MODEL 1
REMARK VINA RESULT:      -8.7      0.000      0.000
REMARK  Name = 
REMARK  7 active torsions:
REMARK  status: ('A' for Active; 'I' for Inactive)
REMARK    1  A    between atoms: N_1  and  S_2
REMARK    2  A    between atoms: S_2  and  O_5
REMARK    3  A    between atoms: O_5  and  C_6
REMARK    4  A    between atoms: C_10  and  C_11
REMARK    5  A    between atoms: C_14  and  C_15
REMARK    6  A    between atoms: C_15  and  C_17
REMARK    7  A    between atoms: C_22  and  O_23
REMARK                            x       y       z     vdW  Elec       q    Type
REMARK                         _______ _______ _______ _____ _____    ______ ____
ROOT
ATOM      1  C   UNL     1       1.384   9.063  19.314  0.00  0.00    +0.000 A 
ATOM      2  C   UNL     1       1.456   8.142  20.346  0.00  0.00    +0.000 A 
ATOM      3  C   UNL     1       2.221   6.990  20.015  0.00  0.00    +0.000 A 
ATOM      4  C   UNL     1       2.693   7.029  18.719  0.00  0.00    +0.000 A 
ATOM      5  S   UNL     1       2.266   8.501  17.952  0.00  0.00    +0.000 S 
ENDROOT
BRANCH   1  10
ATOM      6  C   UNL     1      -1.151  11.727  18.409  0.00  0.00    +0.000 A 
ATOM      7  C   UNL     1      -0.807  12.755  19.284  0.00  0.00    +0.000 A 
ATOM      8  C   UNL     1       0.258  12.592  20.168  0.00  0.00    +0.000 A 
ATOM      9  C   UNL     1       0.978  11.394  20.184  0.00  0.00    +0.000 A 
ATOM     10  C   UNL     1       0.670  10.353  19.293  0.00  0.00    +0.000 A 
ATOM     11  C   UNL     1      -0.389  10.556  18.393  0.00  0.00    +0.000 A 
ATOM     12  F   UNL     1      -0.665   9.612  17.481  0.00  0.00    +0.000 F 
BRANCH   6  13
ATOM     13  O   UNL     1      -2.234  11.961  17.598  0.00  0.00    +0.000 OA
BRANCH  13  14
ATOM     14  S   UNL     1      -3.716  11.404  17.982  0.00  0.00    +0.000 S 
ATOM     15  O   UNL     1      -4.185  11.996  19.215  0.00  0.00    +0.000 OA
ATOM     16  O   UNL     1      -3.786   9.987  17.721  0.00  0.00    +0.000 OA
BRANCH  14  17
ATOM     17  N   UNL     1      -4.697  12.074  16.787  0.00  0.00    +0.000 NA
ATOM     18  H   UNL     1      -5.118  12.921  17.167  0.00  0.00    +0.000 HD
ATOM     19  H   UNL     1      -5.406  11.387  16.529  0.00  0.00    +0.000 HD
ENDBRANCH  14  17
ENDBRANCH  13  14
ENDBRANCH   6  13
ENDBRANCH   1  10
BRANCH   4  20
ATOM     20  C   UNL     1       3.453   6.036  17.969  0.00  0.00    +0.000 C 
ATOM     21  O   UNL     1       4.248   6.321  17.073  0.00  0.00    +0.000 OA
BRANCH  20  22
ATOM     22  C   UNL     1       3.266   4.599  18.268  0.00  0.00    +0.000 A 
ATOM     23  C   UNL     1       2.079   3.959  17.908  0.00  0.00    +0.000 A 
ATOM     24  F   UNL     1       1.117   4.606  17.236  0.00  0.00    +0.000 F 
ATOM     25  C   UNL     1       1.867   2.612  18.212  0.00  0.00    +0.000 A 
ATOM     26  C   UNL     1       2.851   1.880  18.877  0.00  0.00    +0.000 A 
ATOM     27  C   UNL     1       4.032   2.515  19.245  0.00  0.00    +0.000 A 
ATOM     28  C   UNL     1       4.231   3.868  18.961  0.00  0.00    +0.000 A 
ATOM     29  F   UNL     1       5.360   4.453  19.386  0.00  0.00    +0.000 F 
BRANCH  27  30
ATOM     30  O   UNL     1       5.022   1.832  19.890  0.00  0.00    +0.000 OA
ATOM     31  H   UNL     1       5.815   2.386  19.966  0.00  0.00    +0.000 HD
ENDBRANCH  27  30
ENDBRANCH  20  22
ENDBRANCH   4  20
TORSDOF 7
ENDMDL
MODEL 2
REMARK VINA RESULT:      -8.2      2.396      2.583
REMARK  Name = 
REMARK  7 active torsions:
REMARK  status: ('A' for Active; 'I' for Inactive)
REMARK    1  A    between atoms: N_1  and  S_2
REMARK    2  A    between atoms: S_2  and  O_5
REMARK    3  A    between atoms: O_5  and  C_6
REMARK    4  A    between atoms: C_10  and  C_11
REMARK    5  A    between atoms: C_14  and  C_15
REMARK    6  A    between atoms: C_15  and  C_17
REMARK    7  A    between atoms: C_22  and  O_23
REMARK                            x       y       z     vdW  Elec       q    Type
REMARK                         _______ _______ _______ _____ _____    ______ ____
ROOT
ATOM      1  C   UNL     1       1.517   8.954  19.431  0.00  0.00    +0.000 A 
ATOM      2  C   UNL     1       1.612   8.000  20.430  0.00  0.00    +0.000 A 
ATOM      3  C   UNL     1       2.326   6.838  20.029  0.00  0.00    +0.000 A 
ATOM      4  C   UNL     1       2.736   6.904  18.713  0.00  0.00    +0.000 A 
ATOM      5  S   UNL     1       2.315   8.410  18.011  0.00  0.00    +0.000 S 
ENDROOT
BRANCH   1  10
ATOM      6  C   UNL     1      -0.904  11.686  20.442  0.00  0.00    +0.000 A 
ATOM      7  C   UNL     1      -0.426  12.773  19.714  0.00  0.00    +0.000 A 
ATOM      8  C   UNL     1       0.682  12.622  18.881  0.00  0.00    +0.000 A 
ATOM      9  C   UNL     1       1.320  11.382  18.782  0.00  0.00    +0.000 A 
ATOM     10  C   UNL     1       0.841  10.263  19.483  0.00  0.00    +0.000 A 
ATOM     11  C   UNL     1      -0.295  10.437  20.292  0.00  0.00    +0.000 A 
ATOM     12  F   UNL     1      -0.822   9.375  20.920  0.00  0.00    +0.000 F 
BRANCH   6  13
ATOM     13  O   UNL     1      -1.978  11.933  21.262  0.00  0.00    +0.000 OA
BRANCH  13  14
ATOM     14  S   UNL     1      -1.810  11.994  22.881  0.00  0.00    +0.000 S 
ATOM     15  O   UNL     1      -0.634  11.268  23.305  0.00  0.00    +0.000 OA
ATOM     16  O   UNL     1      -3.098  11.830  23.511  0.00  0.00    +0.000 OA
BRANCH  14  17
ATOM     17  N   UNL     1      -1.437  13.613  23.165  0.00  0.00    +0.000 NA
ATOM     18  H   UNL     1      -0.579  13.643  23.716  0.00  0.00    +0.000 HD
ATOM     19  H   UNL     1      -2.217  14.040  23.664  0.00  0.00    +0.000 HD
ENDBRANCH  14  17
ENDBRANCH  13  14
ENDBRANCH   6  13
ENDBRANCH   1  10
BRANCH   4  20
ATOM     20  C   UNL     1       3.430   5.914  17.897  0.00  0.00    +0.000 C 
ATOM     21  O   UNL     1       4.150   6.203  16.941  0.00  0.00    +0.000 OA
BRANCH  20  22
ATOM     22  C   UNL     1       3.262   4.476  18.201  0.00  0.00    +0.000 A 
ATOM     23  C   UNL     1       2.082   3.820  17.850  0.00  0.00    +0.000 A 
ATOM     24  F   UNL     1       1.108   4.452  17.181  0.00  0.00    +0.000 F 
ATOM     25  C   UNL     1       1.889   2.471  18.158  0.00  0.00    +0.000 A 
ATOM     26  C   UNL     1       2.886   1.753  18.819  0.00  0.00    +0.000 A 
ATOM     27  C   UNL     1       4.061   2.404  19.179  0.00  0.00    +0.000 A 
ATOM     28  C   UNL     1       4.241   3.759  18.890  0.00  0.00    +0.000 A 
ATOM     29  F   UNL     1       5.365   4.360  19.307  0.00  0.00    +0.000 F 
BRANCH  27  30
ATOM     30  O   UNL     1       5.063   1.736  19.821  0.00  0.00    +0.000 OA
ATOM     31  H   UNL     1       5.181   2.091  20.717  0.00  0.00    +0.000 HD
ENDBRANCH  27  30
ENDBRANCH  20  22
ENDBRANCH   4  20
TORSDOF 7
ENDMDL
MODEL 3
REMARK VINA RESULT:      -8.2      0.877      1.786
REMARK  Name = 
REMARK  7 active torsions:
REMARK  status: ('A' for Active; 'I' for Inactive)
REMARK    1  A    between atoms: N_1  and  S_2
REMARK    2  A    between atoms: S_2  and  O_5
REMARK    3  A    between atoms: O_5  and  C_6
REMARK    4  A    between atoms: C_10  and  C_11
REMARK    5  A    between atoms: C_14  and  C_15
REMARK    6  A    between atoms: C_15  and  C_17
REMARK    7  A    between atoms: C_22  and  O_23
REMARK                            x       y       z     vdW  Elec       q    Type
REMARK                         _______ _______ _______ _____ _____    ______ ____
ROOT
ATOM      1  C   UNL     1       1.272   9.171  19.238  0.00  0.00    +0.000 A 
ATOM      2  C   UNL     1       1.387   8.306  20.312  0.00  0.00    +0.000 A 
ATOM      3  C   UNL     1       2.209   7.179  20.038  0.00  0.00    +0.000 A 
ATOM      4  C   UNL     1       2.682   7.179  18.742  0.00  0.00    +0.000 A 
ATOM      5  S   UNL     1       2.184   8.589  17.905  0.00  0.00    +0.000 S 
ENDROOT
BRANCH   1  10
ATOM      6  C   UNL     1      -1.416  11.646  18.241  0.00  0.00    +0.000 A 
ATOM      7  C   UNL     1      -1.099  12.746  19.034  0.00  0.00    +0.000 A 
ATOM      8  C   UNL     1      -0.001  12.693  19.893  0.00  0.00    +0.000 A 
ATOM      9  C   UNL     1       0.777  11.534  19.965  0.00  0.00    +0.000 A 
ATOM     10  C   UNL     1       0.495  10.422  19.154  0.00  0.00    +0.000 A 
ATOM     11  C   UNL     1      -0.599  10.513  18.277  0.00  0.00    +0.000 A 
ATOM     12  F   UNL     1      -0.854   9.498  17.439  0.00  0.00    +0.000 F 
BRANCH   6  13
ATOM     13  O   UNL     1      -2.533  11.773  17.451  0.00  0.00    +0.000 OA
BRANCH  13  14
ATOM     14  S   UNL     1      -3.961  11.124  17.892  0.00  0.00    +0.000 S 
ATOM     15  O   UNL     1      -4.544  11.863  18.989  0.00  0.00    +0.000 OA
ATOM     16  O   UNL     1      -3.865   9.685  17.883  0.00  0.00    +0.000 OA
BRANCH  14  17
ATOM     17  N   UNL     1      -4.956  11.461  16.574  0.00  0.00    +0.000 NA
ATOM     18  H   UNL     1      -4.972  12.473  16.446  0.00  0.00    +0.000 HD
ATOM     19  H   UNL     1      -5.887  11.094  16.772  0.00  0.00    +0.000 HD
ENDBRANCH  14  17
ENDBRANCH  13  14
ENDBRANCH   6  13
ENDBRANCH   1  10
BRANCH   4  20
ATOM     20  C   UNL     1       3.492   6.190  18.040  0.00  0.00    +0.000 C 
ATOM     21  O   UNL     1       4.246   6.465  17.107  0.00  0.00    +0.000 OA
BRANCH  20  22
ATOM     22  C   UNL     1       3.410   4.768  18.440  0.00  0.00    +0.000 A 
ATOM     23  C   UNL     1       4.458   4.180  19.150  0.00  0.00    +0.000 A 
ATOM     24  F   UNL     1       5.523   4.895  19.537  0.00  0.00    +0.000 F 
ATOM     25  C   UNL     1       4.417   2.830  19.508  0.00  0.00    +0.000 A 
ATOM     26  C   UNL     1       3.315   2.047  19.165  0.00  0.00    +0.000 A 
ATOM     27  C   UNL     1       2.271   2.626  18.451  0.00  0.00    +0.000 A 
ATOM     28  C   UNL     1       2.326   3.970  18.074  0.00  0.00    +0.000 A 
ATOM     29  F   UNL     1       1.325   4.470  17.336  0.00  0.00    +0.000 F 
BRANCH  27  30
ATOM     30  O   UNL     1       1.172   1.895  18.102  0.00  0.00    +0.000 OA
ATOM     31  H   UNL     1       0.909   1.317  18.837  0.00  0.00    +0.000 HD
ENDBRANCH  27  30
ENDBRANCH  20  22
ENDBRANCH   4  20
TORSDOF 7
ENDMDL
MODEL 4
REMARK VINA RESULT:      -8.1      1.703      1.824
REMARK  Name = 
REMARK  7 active torsions:
REMARK  status: ('A' for Active; 'I' for Inactive)
REMARK    1  A    between atoms: N_1  and  S_2
REMARK    2  A    between atoms: S_2  and  O_5
REMARK    3  A    between atoms: O_5  and  C_6
REMARK    4  A    between atoms: C_10  and  C_11
REMARK    5  A    between atoms: C_14  and  C_15
REMARK    6  A    between atoms: C_15  and  C_17
REMARK    7  A    between atoms: C_22  and  O_23
REMARK                            x       y       z     vdW  Elec       q    Type
REMARK                         _______ _______ _______ _____ _____    ______ ____
ROOT
ATOM      1  C   UNL     1       1.481   8.974  19.069  0.00  0.00    +0.000 A 
ATOM      2  C   UNL     1       2.198   8.838  17.892  0.00  0.00    +0.000 A 
ATOM      3  C   UNL     1       2.958   7.638  17.836  0.00  0.00    +0.000 A 
ATOM      4  C   UNL     1       2.840   6.889  18.989  0.00  0.00    +0.000 A 
ATOM      5  S   UNL     1       1.745   7.618  20.088  0.00  0.00    +0.000 S 
ENDROOT
BRANCH   1  10
ATOM      6  C   UNL     1      -1.274  11.571  18.974  0.00  0.00    +0.000 A 
ATOM      7  C   UNL     1      -1.176  12.136  20.243  0.00  0.00    +0.000 A 
ATOM      8  C   UNL     1      -0.206  11.682  21.136  0.00  0.00    +0.000 A 
ATOM      9  C   UNL     1       0.664  10.654  20.762  0.00  0.00    +0.000 A 
ATOM     10  C   UNL     1       0.605  10.088  19.478  0.00  0.00    +0.000 A 
ATOM     11  C   UNL     1      -0.363  10.584  18.588  0.00  0.00    +0.000 A 
ATOM     12  F   UNL     1      -0.402  10.116  17.332  0.00  0.00    +0.000 F 
BRANCH   6  13
ATOM     13  O   UNL     1      -2.280  12.055  18.173  0.00  0.00    +0.000 OA
BRANCH  13  14
ATOM     14  S   UNL     1      -3.742  11.339  18.123  0.00  0.00    +0.000 S 
ATOM     15  O   UNL     1      -4.597  11.842  19.175  0.00  0.00    +0.000 OA
ATOM     16  O   UNL     1      -3.586   9.931  17.851  0.00  0.00    +0.000 OA
BRANCH  14  17
ATOM     17  N   UNL     1      -4.415  11.943  16.701  0.00  0.00    +0.000 NA
ATOM     18  H   UNL     1      -5.374  11.603  16.641  0.00  0.00    +0.000 HD
ATOM     19  H   UNL     1      -3.852  11.617  15.915  0.00  0.00    +0.000 HD
ENDBRANCH  14  17
ENDBRANCH  13  14
ENDBRANCH   6  13
ENDBRANCH   1  10
BRANCH   4  20
ATOM     20  C   UNL     1       3.494   5.641  19.366  0.00  0.00    +0.000 C 
ATOM     21  O   UNL     1       4.707   5.536  19.551  0.00  0.00    +0.000 OA
BRANCH  20  22
ATOM     22  C   UNL     1       2.682   4.414  19.524  0.00  0.00    +0.000 A 
ATOM     23  C   UNL     1       2.250   3.712  18.398  0.00  0.00    +0.000 A 
ATOM     24  F   UNL     1       2.605   4.092  17.163  0.00  0.00    +0.000 F 
ATOM     25  C   UNL     1       1.454   2.571  18.523  0.00  0.00    +0.000 A 
ATOM     26  C   UNL     1       1.085   2.108  19.787  0.00  0.00    +0.000 A 
ATOM     27  C   UNL     1       1.507   2.808  20.912  0.00  0.00    +0.000 A 
ATOM     28  C   UNL     1       2.283   3.963  20.782  0.00  0.00    +0.000 A 
ATOM     29  F   UNL     1       2.618   4.638  21.891  0.00  0.00    +0.000 F 
BRANCH  27  30
ATOM     30  O   UNL     1       1.174   2.384  22.166  0.00  0.00    +0.000 OA
ATOM     31  H   UNL     1       0.209   2.390  22.274  0.00  0.00    +0.000 HD
ENDBRANCH  27  30
ENDBRANCH  20  22
ENDBRANCH   4  20
TORSDOF 7
ENDMDL
MODEL 5
REMARK VINA RESULT:      -8.1      1.667      1.795
REMARK  Name = 
REMARK  7 active torsions:
REMARK  status: ('A' for Active; 'I' for Inactive)
REMARK    1  A    between atoms: N_1  and  S_2
REMARK    2  A    between atoms: S_2  and  O_5
REMARK    3  A    between atoms: O_5  and  C_6
REMARK    4  A    between atoms: C_10  and  C_11
REMARK    5  A    between atoms: C_14  and  C_15
REMARK    6  A    between atoms: C_15  and  C_17
REMARK    7  A    between atoms: C_22  and  O_23
REMARK                            x       y       z     vdW  Elec       q    Type
REMARK                         _______ _______ _______ _____ _____    ______ ____
ROOT
ATOM      1  C   UNL     1       1.107   9.412  19.523  0.00  0.00    +0.000 A 
ATOM      2  C   UNL     1       1.080   8.869  20.796  0.00  0.00    +0.000 A 
ATOM      3  C   UNL     1       1.750   7.618  20.886  0.00  0.00    +0.000 A 
ATOM      4  C   UNL     1       2.251   7.204  19.668  0.00  0.00    +0.000 A 
ATOM      5  S   UNL     1       1.966   8.379  18.453  0.00  0.00    +0.000 S 
ENDROOT
BRANCH   1  10
ATOM      6  C   UNL     1      -1.498  11.973  18.522  0.00  0.00    +0.000 A 
ATOM      7  C   UNL     1      -0.713  13.099  18.284  0.00  0.00    +0.000 A 
ATOM      8  C   UNL     1       0.671  13.029  18.438  0.00  0.00    +0.000 A 
ATOM      9  C   UNL     1       1.273  11.833  18.840  0.00  0.00    +0.000 A 
ATOM     10  C   UNL     1       0.507  10.676  19.058  0.00  0.00    +0.000 A 
ATOM     11  C   UNL     1      -0.882  10.767  18.867  0.00  0.00    +0.000 A 
ATOM     12  F   UNL     1      -1.636   9.665  18.998  0.00  0.00    +0.000 F 
BRANCH   6  13
ATOM     13  O   UNL     1      -2.853  12.140  18.379  0.00  0.00    +0.000 OA
BRANCH  13  14
ATOM     14  S   UNL     1      -3.692  11.325  17.244  0.00  0.00    +0.000 S 
ATOM     15  O   UNL     1      -4.394  10.205  17.829  0.00  0.00    +0.000 OA
ATOM     16  O   UNL     1      -2.902  11.211  16.043  0.00  0.00    +0.000 OA
BRANCH  14  17
ATOM     17  N   UNL     1      -4.907  12.412  16.815  0.00  0.00    +0.000 NA
ATOM     18  H   UNL     1      -4.472  13.182  16.308  0.00  0.00    +0.000 HD
ATOM     19  H   UNL     1      -5.364  12.736  17.667  0.00  0.00    +0.000 HD
ENDBRANCH  14  17
ENDBRANCH  13  14
ENDBRANCH   6  13
ENDBRANCH   1  10
BRANCH   4  20
ATOM     20  C   UNL     1       2.938   5.969  19.310  0.00  0.00    +0.000 C 
ATOM     21  O   UNL     1       4.070   5.935  18.826  0.00  0.00    +0.000 OA
BRANCH  20  22
ATOM     22  C   UNL     1       2.255   4.672  19.513  0.00  0.00    +0.000 A 
ATOM     23  C   UNL     1       1.646   4.028  18.435  0.00  0.00    +0.000 A 
ATOM     24  F   UNL     1       1.715   4.530  17.195  0.00  0.00    +0.000 F 
ATOM     25  C   UNL     1       0.966   2.820  18.611  0.00  0.00    +0.000 A 
ATOM     26  C   UNL     1       0.895   2.232  19.874  0.00  0.00    +0.000 A 
ATOM     27  C   UNL     1       1.495   2.873  20.952  0.00  0.00    +0.000 A 
ATOM     28  C   UNL     1       2.153   4.093  20.778  0.00  0.00    +0.000 A 
ATOM     29  F   UNL     1       2.666   4.705  21.855  0.00  0.00    +0.000 F 
BRANCH  27  30
ATOM     30  O   UNL     1       1.454   2.327  22.202  0.00  0.00    +0.000 OA
ATOM     31  H   UNL     1       2.162   2.700  22.752  0.00  0.00    +0.000 HD
ENDBRANCH  27  30
ENDBRANCH  20  22
ENDBRANCH   4  20
TORSDOF 7
ENDMDL
MODEL 6
REMARK VINA RESULT:      -8.1      3.507      9.086
REMARK  Name = 
REMARK  7 active torsions:
REMARK  status: ('A' for Active; 'I' for Inactive)
REMARK    1  A    between atoms: N_1  and  S_2
REMARK    2  A    between atoms: S_2  and  O_5
REMARK    3  A    between atoms: O_5  and  C_6
REMARK    4  A    between atoms: C_10  and  C_11
REMARK    5  A    between atoms: C_14  and  C_15
REMARK    6  A    between atoms: C_15  and  C_17
REMARK    7  A    between atoms: C_22  and  O_23
REMARK                            x       y       z     vdW  Elec       q    Type
REMARK                         _______ _______ _______ _____ _____    ______ ____
ROOT
ATOM      1  C   UNL     1       2.162   7.369  18.754  0.00  0.00    +0.000 A 
ATOM      2  C   UNL     1       1.837   7.599  20.079  0.00  0.00    +0.000 A 
ATOM      3  C   UNL     1       1.360   8.918  20.318  0.00  0.00    +0.000 A 
ATOM      4  C   UNL     1       1.362   9.690  19.175  0.00  0.00    +0.000 A 
ATOM      5  S   UNL     1       1.868   8.777  17.816  0.00  0.00    +0.000 S 
ENDROOT
BRANCH   1  10
ATOM      6  C   UNL     1       4.573   4.950  17.116  0.00  0.00    +0.000 A 
ATOM      7  C   UNL     1       3.820   3.779  17.081  0.00  0.00    +0.000 A 
ATOM      8  C   UNL     1       2.519   3.771  17.581  0.00  0.00    +0.000 A 
ATOM      9  C   UNL     1       1.970   4.935  18.126  0.00  0.00    +0.000 A 
ATOM     10  C   UNL     1       2.698   6.136  18.148  0.00  0.00    +0.000 A 
ATOM     11  C   UNL     1       3.996   6.123  17.610  0.00  0.00    +0.000 A 
ATOM     12  F   UNL     1       4.693   7.268  17.550  0.00  0.00    +0.000 F 
BRANCH   6  13
ATOM     13  O   UNL     1       5.856   4.859  16.634  0.00  0.00    +0.000 OA
BRANCH  13  14
ATOM     14  S   UNL     1       7.140   4.858  17.637  0.00  0.00    +0.000 S 
ATOM     15  O   UNL     1       8.208   4.042  17.104  0.00  0.00    +0.000 OA
ATOM     16  O   UNL     1       6.690   4.761  19.004  0.00  0.00    +0.000 OA
BRANCH  14  17
ATOM     17  N   UNL     1       7.714   6.439  17.522  0.00  0.00    +0.000 NA
ATOM     18  H   UNL     1       7.139   7.024  18.127  0.00  0.00    +0.000 HD
ATOM     19  H   UNL     1       7.652   6.733  16.547  0.00  0.00    +0.000 HD
ENDBRANCH  14  17
ENDBRANCH  13  14
ENDBRANCH   6  13
ENDBRANCH   1  10
BRANCH   4  20
ATOM     20  C   UNL     1       1.018  11.095  18.994  0.00  0.00    +0.000 C 
ATOM     21  O   UNL     1       1.803  11.939  18.560  0.00  0.00    +0.000 OA
BRANCH  20  22
ATOM     22  C   UNL     1      -0.337  11.565  19.359  0.00  0.00    +0.000 A 
ATOM     23  C   UNL     1      -0.577  12.089  20.630  0.00  0.00    +0.000 A 
ATOM     24  F   UNL     1       0.415  12.235  21.519  0.00  0.00    +0.000 F 
ATOM     25  C   UNL     1      -1.856  12.505  21.008  0.00  0.00    +0.000 A 
ATOM     26  C   UNL     1      -2.918  12.411  20.108  0.00  0.00    +0.000 A 
ATOM     27  C   UNL     1      -2.687  11.883  18.842  0.00  0.00    +0.000 A 
ATOM     28  C   UNL     1      -1.411  11.445  18.477  0.00  0.00    +0.000 A 
ATOM     29  F   UNL     1      -1.247  10.888  17.268  0.00  0.00    +0.000 F 
BRANCH  27  30
ATOM     30  O   UNL     1      -3.698  11.780  17.932  0.00  0.00    +0.000 OA
ATOM     31  H   UNL     1      -4.503  12.198  18.278  0.00  0.00    +0.000 HD
ENDBRANCH  27  30
ENDBRANCH  20  22
ENDBRANCH   4  20
TORSDOF 7
ENDMDL
MODEL 7
REMARK VINA RESULT:      -8.1      2.802      3.195
REMARK  Name = 
REMARK  7 active torsions:
REMARK  status: ('A' for Active; 'I' for Inactive)
REMARK    1  A    between atoms: N_1  and  S_2
REMARK    2  A    between atoms: S_2  and  O_5
REMARK    3  A    between atoms: O_5  and  C_6
REMARK    4  A    between atoms: C_10  and  C_11
REMARK    5  A    between atoms: C_14  and  C_15
REMARK    6  A    between atoms: C_15  and  C_17
REMARK    7  A    between atoms: C_22  and  O_23
REMARK                            x       y       z     vdW  Elec       q    Type
REMARK                         _______ _______ _______ _____ _____    ______ ____
ROOT
ATOM      1  C   UNL     1       1.408   8.764  19.714  0.00  0.00    +0.000 A 
ATOM      2  C   UNL     1       1.523   9.233  18.417  0.00  0.00    +0.000 A 
ATOM      3  C   UNL     1       2.269   8.365  17.572  0.00  0.00    +0.000 A 
ATOM      4  C   UNL     1       2.745   7.259  18.246  0.00  0.00    +0.000 A 
ATOM      5  S   UNL     1       2.212   7.255  19.875  0.00  0.00    +0.000 S 
ENDROOT
BRANCH   1  10
ATOM      6  C   UNL     1      -0.608  11.254  21.732  0.00  0.00    +0.000 A 
ATOM      7  C   UNL     1      -0.691  10.619  22.969  0.00  0.00    +0.000 A 
ATOM      8  C   UNL     1      -0.082   9.378  23.157  0.00  0.00    +0.000 A 
ATOM      9  C   UNL     1       0.605   8.767  22.104  0.00  0.00    +0.000 A 
ATOM     10  C   UNL     1       0.727   9.401  20.856  0.00  0.00    +0.000 A 
ATOM     11  C   UNL     1       0.129  10.663  20.703  0.00  0.00    +0.000 A 
ATOM     12  F   UNL     1       0.285  11.328  19.548  0.00  0.00    +0.000 F 
BRANCH   6  13
ATOM     13  O   UNL     1      -1.266  12.456  21.626  0.00  0.00    +0.000 OA
BRANCH  13  14
ATOM     14  S   UNL     1      -0.506  13.866  21.925  0.00  0.00    +0.000 S 
ATOM     15  O   UNL     1      -1.150  14.955  21.225  0.00  0.00    +0.000 OA
ATOM     16  O   UNL     1       0.922  13.663  21.907  0.00  0.00    +0.000 OA
BRANCH  14  17
ATOM     17  N   UNL     1      -0.845  14.145  23.552  0.00  0.00    +0.000 NA
ATOM     18  H   UNL     1      -1.839  14.358  23.631  0.00  0.00    +0.000 HD
ATOM     19  H   UNL     1      -0.268  14.923  23.872  0.00  0.00    +0.000 HD
ENDBRANCH  14  17
ENDBRANCH  13  14
ENDBRANCH   6  13
ENDBRANCH   1  10
BRANCH   4  20
ATOM     20  C   UNL     1       3.596   6.172  17.778  0.00  0.00    +0.000 C 
ATOM     21  O   UNL     1       4.534   6.329  16.997  0.00  0.00    +0.000 OA
BRANCH  20  22
ATOM     22  C   UNL     1       3.329   4.791  18.238  0.00  0.00    +0.000 A 
ATOM     23  C   UNL     1       2.093   4.195  17.983  0.00  0.00    +0.000 A 
ATOM     24  F   UNL     1       1.151   4.828  17.271  0.00  0.00    +0.000 F 
ATOM     25  C   UNL     1       1.807   2.906  18.438  0.00  0.00    +0.000 A 
ATOM     26  C   UNL     1       2.766   2.186  19.152  0.00  0.00    +0.000 A 
ATOM     27  C   UNL     1       3.997   2.777  19.415  0.00  0.00    +0.000 A 
ATOM     28  C   UNL     1       4.270   4.076  18.980  0.00  0.00    +0.000 A 
ATOM     29  F   UNL     1       5.448   4.628  19.307  0.00  0.00    +0.000 F 
BRANCH  27  30
ATOM     30  O   UNL     1       4.964   2.104  20.104  0.00  0.00    +0.000 OA
ATOM     31  H   UNL     1       4.662   1.204  20.309  0.00  0.00    +0.000 HD
ENDBRANCH  27  30
ENDBRANCH  20  22
ENDBRANCH   4  20
TORSDOF 7
ENDMDL
MODEL 8
REMARK VINA RESULT:      -8.0      2.640      3.666
REMARK  Name = 
REMARK  7 active torsions:
REMARK  status: ('A' for Active; 'I' for Inactive)
REMARK    1  A    between atoms: N_1  and  S_2
REMARK    2  A    between atoms: S_2  and  O_5
REMARK    3  A    between atoms: O_5  and  C_6
REMARK    4  A    between atoms: C_10  and  C_11
REMARK    5  A    between atoms: C_14  and  C_15
REMARK    6  A    between atoms: C_15  and  C_17
REMARK    7  A    between atoms: C_22  and  O_23
REMARK                            x       y       z     vdW  Elec       q    Type
REMARK                         _______ _______ _______ _____ _____    ______ ____
ROOT
ATOM      1  C   UNL     1       1.846   7.946  19.678  0.00  0.00    +0.000 A 
ATOM      2  C   UNL     1       2.389   8.157  18.422  0.00  0.00    +0.000 A 
ATOM      3  C   UNL     1       3.116   7.037  17.932  0.00  0.00    +0.000 A 
ATOM      4  C   UNL     1       3.150   5.997  18.839  0.00  0.00    +0.000 A 
ATOM      5  S   UNL     1       2.230   6.369  20.237  0.00  0.00    +0.000 S 
ENDROOT
BRANCH   1  10
ATOM      6  C   UNL     1      -0.544  10.734  20.607  0.00  0.00    +0.000 A 
ATOM      7  C   UNL     1      -0.578  10.628  21.996  0.00  0.00    +0.000 A 
ATOM      8  C   UNL     1       0.184   9.655  22.640  0.00  0.00    +0.000 A 
ATOM      9  C   UNL     1       0.977   8.778  21.894  0.00  0.00    +0.000 A 
ATOM     10  C   UNL     1       1.051   8.882  20.495  0.00  0.00    +0.000 A 
ATOM     11  C   UNL     1       0.296   9.891  19.874  0.00  0.00    +0.000 A 
ATOM     12  F   UNL     1       0.397  10.065  18.548  0.00  0.00    +0.000 F 
BRANCH   6  13
ATOM     13  O   UNL     1      -1.352  11.698  20.055  0.00  0.00    +0.000 OA
BRANCH  13  14
ATOM     14  S   UNL     1      -0.742  13.115  19.531  0.00  0.00    +0.000 S 
ATOM     15  O   UNL     1       0.691  13.158  19.716  0.00  0.00    +0.000 OA
ATOM     16  O   UNL     1      -1.613  14.195  19.925  0.00  0.00    +0.000 OA
BRANCH  14  17
ATOM     17  N   UNL     1      -0.954  13.027  17.861  0.00  0.00    +0.000 NA
ATOM     18  H   UNL     1      -0.114  12.609  17.462  0.00  0.00    +0.000 HD
ATOM     19  H   UNL     1      -1.107  13.971  17.506  0.00  0.00    +0.000 HD
ENDBRANCH  14  17
ENDBRANCH  13  14
ENDBRANCH   6  13
ENDBRANCH   1  10
BRANCH   4  20
ATOM     20  C   UNL     1       3.832   4.711  18.763  0.00  0.00    +0.000 C 
ATOM     21  O   UNL     1       3.440   3.697  19.342  0.00  0.00    +0.000 OA
BRANCH  20  22
ATOM     22  C   UNL     1       5.075   4.593  17.969  0.00  0.00    +0.000 A 
ATOM     23  C   UNL     1       6.289   5.031  18.501  0.00  0.00    +0.000 A 
ATOM     24  F   UNL     1       6.368   5.507  19.751  0.00  0.00    +0.000 F 
ATOM     25  C   UNL     1       7.468   4.961  17.755  0.00  0.00    +0.000 A 
ATOM     26  C   UNL     1       7.450   4.439  16.462  0.00  0.00    +0.000 A 
ATOM     27  C   UNL     1       6.242   4.007  15.924  0.00  0.00    +0.000 A 
ATOM     28  C   UNL     1       5.060   4.101  16.664  0.00  0.00    +0.000 A 
ATOM     29  F   UNL     1       3.910   3.728  16.084  0.00  0.00    +0.000 F 
BRANCH  27  30
ATOM     30  O   UNL     1       6.183   3.484  14.665  0.00  0.00    +0.000 OA
ATOM     31  H   UNL     1       6.616   4.082  14.035  0.00  0.00    +0.000 HD
ENDBRANCH  27  30
ENDBRANCH  20  22
ENDBRANCH   4  20
TORSDOF 7
ENDMDL
MODEL 9
REMARK VINA RESULT:      -8.0      3.588      9.011
REMARK  Name = 
REMARK  7 active torsions:
REMARK  status: ('A' for Active; 'I' for Inactive)
REMARK    1  A    between atoms: N_1  and  S_2
REMARK    2  A    between atoms: S_2  and  O_5
REMARK    3  A    between atoms: O_5  and  C_6
REMARK    4  A    between atoms: C_10  and  C_11
REMARK    5  A    between atoms: C_14  and  C_15
REMARK    6  A    between atoms: C_15  and  C_17
REMARK    7  A    between atoms: C_22  and  O_23
REMARK                            x       y       z     vdW  Elec       q    Type
REMARK                         _______ _______ _______ _____ _____    ______ ____
ROOT
ATOM      1  C   UNL     1       2.144   7.322  18.782  0.00  0.00    +0.000 A 
ATOM      2  C   UNL     1       1.817   7.530  20.111  0.00  0.00    +0.000 A 
ATOM      3  C   UNL     1       1.320   8.837  20.368  0.00  0.00    +0.000 A 
ATOM      4  C   UNL     1       1.308   9.624  19.234  0.00  0.00    +0.000 A 
ATOM      5  S   UNL     1       1.826   8.737  17.863  0.00  0.00    +0.000 S 
ENDROOT
BRANCH   1  10
ATOM      6  C   UNL     1       4.593   4.959  17.121  0.00  0.00    +0.000 A 
ATOM      7  C   UNL     1       3.854   3.779  17.062  0.00  0.00    +0.000 A 
ATOM      8  C   UNL     1       2.550   3.747  17.553  0.00  0.00    +0.000 A 
ATOM      9  C   UNL     1       1.984   4.897  18.114  0.00  0.00    +0.000 A 
ATOM     10  C   UNL     1       2.698   6.106  18.160  0.00  0.00    +0.000 A 
ATOM     11  C   UNL     1       3.999   6.117  17.630  0.00  0.00    +0.000 A 
ATOM     12  F   UNL     1       4.683   7.270  17.593  0.00  0.00    +0.000 F 
BRANCH   6  13
ATOM     13  O   UNL     1       5.880   4.890  16.645  0.00  0.00    +0.000 OA
BRANCH  13  14
ATOM     14  S   UNL     1       7.158   4.893  17.656  0.00  0.00    +0.000 S 
ATOM     15  O   UNL     1       8.244   4.107  17.114  0.00  0.00    +0.000 OA
ATOM     16  O   UNL     1       6.702   4.760  19.018  0.00  0.00    +0.000 OA
BRANCH  14  17
ATOM     17  N   UNL     1       7.703   6.486  17.576  0.00  0.00    +0.000 NA
ATOM     18  H   UNL     1       7.382   6.882  16.693  0.00  0.00    +0.000 HD
ATOM     19  H   UNL     1       8.721   6.481  17.636  0.00  0.00    +0.000 HD
ENDBRANCH  14  17
ENDBRANCH  13  14
ENDBRANCH   6  13
ENDBRANCH   1  10
BRANCH   4  20
ATOM     20  C   UNL     1       0.940  11.026  19.072  0.00  0.00    +0.000 C 
ATOM     21  O   UNL     1       1.737  11.905  18.740  0.00  0.00    +0.000 OA
BRANCH  20  22
ATOM     22  C   UNL     1      -0.454  11.447  19.330  0.00  0.00    +0.000 A 
ATOM     23  C   UNL     1      -1.458  11.141  18.410  0.00  0.00    +0.000 A 
ATOM     24  F   UNL     1      -1.199  10.414  17.314  0.00  0.00    +0.000 F 
ATOM     25  C   UNL     1      -2.775  11.558  18.616  0.00  0.00    +0.000 A 
ATOM     26  C   UNL     1      -3.110  12.285  19.759  0.00  0.00    +0.000 A 
ATOM     27  C   UNL     1      -2.112  12.599  20.676  0.00  0.00    +0.000 A 
ATOM     28  C   UNL     1      -0.791  12.201  20.454  0.00  0.00    +0.000 A 
ATOM     29  F   UNL     1       0.149  12.576  21.335  0.00  0.00    +0.000 F 
BRANCH  27  30
ATOM     30  O   UNL     1      -2.399  13.302  21.810  0.00  0.00    +0.000 OA
ATOM     31  H   UNL     1      -2.758  14.174  21.579  0.00  0.00    +0.000 HD
ENDBRANCH  27  30
ENDBRANCH  20  22
ENDBRANCH   4  20
TORSDOF 7
ENDMDL
