MODEL 1
REMARK VINA RESULT:      -7.6      0.000      0.000
REMARK  Name = 
REMARK  9 active torsions:
REMARK  status: ('A' for Active; 'I' for Inactive)
REMARK    1  A    between atoms: C_1  and  C_2
REMARK    2  A    between atoms: C_7  and  C_8
REMARK    3  A    between atoms: N_10  and  C_11
REMARK    4  A    between atoms: C_13  and  C_14
REMARK    5  A    between atoms: C_14  and  N_15
REMARK    6  A    between atoms: C_19  and  O_21
REMARK    7  A    between atoms: O_21  and  C_22
REMARK    8  A    between atoms: C_22  and  C_23
REMARK    9  A    between atoms: C_22  and  C_27
REMARK                            x       y       z     vdW  Elec       q    Type
REMARK                         _______ _______ _______ _____ _____    ______ ____
ROOT
ATOM      1  N   UNL     1      -0.072  10.472  20.015  0.00  0.00    +0.000 NA
ATOM      2  C   UNL     1       0.163  10.154  18.589  0.00  0.00    +0.000 C 
ATOM      3  C   UNL     1       1.490   9.435  18.269  0.00  0.00    +0.000 C 
ATOM      4  N   UNL     1       1.756   8.288  19.137  0.00  0.00    +0.000 N 
ATOM      5  C   UNL     1       2.693   7.362  18.707  0.00  0.00    +0.000 C 
ATOM      6  O   UNL     1       3.203   7.352  17.597  0.00  0.00    +0.000 OA
ATOM      7  C   UNL     1       1.433   8.457  20.556  0.00  0.00    +0.000 C 
ATOM      8  C   UNL     1       0.110   9.219  20.792  0.00  0.00    +0.000 C 
ENDROOT
BRANCH   1   9
ATOM      9  C   UNL     1       0.793  11.536  20.544  0.00  0.00    +0.000 C 
BRANCH   9  15
ATOM     10  C   UNL     1      -0.483  13.672  21.539  0.00  0.00    +0.000 A 
ATOM     11  N   UNL     1      -0.746  14.916  21.115  0.00  0.00    +0.000 NA
ATOM     12  N   UNL     1      -0.278  14.963  19.868  0.00  0.00    +0.000 N 
ATOM     13  C   UNL     1      -0.307  16.210  19.141  0.00  0.00    +0.000 C 
ATOM     14  C   UNL     1       0.262  13.787  19.452  0.00  0.00    +0.000 A 
ATOM     15  C   UNL     1       0.178  12.906  20.518  0.00  0.00    +0.000 A 
BRANCH  10  22
ATOM     16  C   UNL     1      -5.925  14.698  23.713  0.00  0.00    +0.000 C 
ATOM     17  C   UNL     1      -5.216  13.435  23.287  0.00  0.00    +0.000 C 
ATOM     18  O   UNL     1      -5.886  12.444  22.988  0.00  0.00    +0.000 OA
ATOM     19  N   UNL     1      -3.822  13.448  23.229  0.00  0.00    +0.000 N 
ATOM     20  C   UNL     1      -3.194  12.341  22.506  0.00  0.00    +0.000 C 
ATOM     21  C   UNL     1      -1.776  12.050  22.987  0.00  0.00    +0.000 C 
ATOM     22  C   UNL     1      -0.876  13.289  22.947  0.00  0.00    +0.000 C 
ATOM     23  C   UNL     1      -1.571  14.419  23.739  0.00  0.00    +0.000 C 
ATOM     24  C   UNL     1      -3.029  14.675  23.330  0.00  0.00    +0.000 C 
ENDBRANCH  10  22
ENDBRANCH   9  15
ENDBRANCH   1   9
BRANCH   5  25
ATOM     25  O   UNL     1       2.987   6.425  19.647  0.00  0.00    +0.000 OA
BRANCH  25  26
ATOM     26  C   UNL     1       2.589   5.054  19.314  0.00  0.00    +0.000 C 
BRANCH  26  27
ATOM     27  C   UNL     1       3.780   4.187  18.955  0.00  0.00    +0.000 C 
ATOM     28  F   UNL     1       4.912   4.629  19.558  0.00  0.00    +0.000 F 
ATOM     29  F   UNL     1       3.670   2.885  19.276  0.00  0.00    +0.000 F 
ATOM     30  F   UNL     1       4.012   4.227  17.619  0.00  0.00    +0.000 F 
ENDBRANCH  26  27
BRANCH  26  31
ATOM     31  C   UNL     1       1.748   4.469  20.431  0.00  0.00    +0.000 C 
ATOM     32  F   UNL     1       0.813   5.356  20.858  0.00  0.00    +0.000 F 
ATOM     33  F   UNL     1       1.056   3.393  19.971  0.00  0.00    +0.000 F 
ATOM     34  F   UNL     1       2.409   4.063  21.527  0.00  0.00    +0.000 F 
ENDBRANCH  26  31
ENDBRANCH  25  26
ENDBRANCH   5  25
TORSDOF 7
ENDMDL
MODEL 2
REMARK VINA RESULT:      -7.4      0.902      1.279
REMARK  Name = 
REMARK  9 active torsions:
REMARK  status: ('A' for Active; 'I' for Inactive)
REMARK    1  A    between atoms: C_1  and  C_2
REMARK    2  A    between atoms: C_7  and  C_8
REMARK    3  A    between atoms: N_10  and  C_11
REMARK    4  A    between atoms: C_13  and  C_14
REMARK    5  A    between atoms: C_14  and  N_15
REMARK    6  A    between atoms: C_19  and  O_21
REMARK    7  A    between atoms: O_21  and  C_22
REMARK    8  A    between atoms: C_22  and  C_23
REMARK    9  A    between atoms: C_22  and  C_27
REMARK                            x       y       z     vdW  Elec       q    Type
REMARK                         _______ _______ _______ _____ _____    ______ ____
ROOT
ATOM      1  N   UNL     1      -0.127  10.543  20.420  0.00  0.00    +0.000 NA
ATOM      2  C   UNL     1       0.061  10.477  18.954  0.00  0.00    +0.000 C 
ATOM      3  C   UNL     1       1.362   9.802  18.471  0.00  0.00    +0.000 C 
ATOM      4  N   UNL     1       1.626   8.516  19.117  0.00  0.00    +0.000 N 
ATOM      5  C   UNL     1       2.530   7.664  18.502  0.00  0.00    +0.000 C 
ATOM      6  O   UNL     1       3.008   7.841  17.392  0.00  0.00    +0.000 OA
ATOM      7  C   UNL     1       1.347   8.439  20.552  0.00  0.00    +0.000 C 
ATOM      8  C   UNL     1       0.048   9.170  20.960  0.00  0.00    +0.000 C 
ENDROOT
BRANCH   1   9
ATOM      9  C   UNL     1       0.776  11.482  21.100  0.00  0.00    +0.000 C 
BRANCH   9  15
ATOM     10  C   UNL     1      -0.391  13.735  21.965  0.00  0.00    +0.000 A 
ATOM     11  N   UNL     1      -0.427  15.012  21.561  0.00  0.00    +0.000 NA
ATOM     12  N   UNL     1       0.250  15.032  20.414  0.00  0.00    +0.000 N 
ATOM     13  C   UNL     1       0.494  16.292  19.751  0.00  0.00    +0.000 C 
ATOM     14  C   UNL     1       0.711  13.810  20.040  0.00  0.00    +0.000 A 
ATOM     15  C   UNL     1       0.341  12.918  21.035  0.00  0.00    +0.000 A 
BRANCH  10  22
ATOM     16  C   UNL     1      -6.200  14.610  22.902  0.00  0.00    +0.000 C 
ATOM     17  C   UNL     1      -5.379  13.365  22.672  0.00  0.00    +0.000 C 
ATOM     18  O   UNL     1      -5.939  12.344  22.266  0.00  0.00    +0.000 OA
ATOM     19  N   UNL     1      -4.005  13.426  22.912  0.00  0.00    +0.000 N 
ATOM     20  C   UNL     1      -3.204  12.328  22.371  0.00  0.00    +0.000 C 
ATOM     21  C   UNL     1      -1.913  12.097  23.150  0.00  0.00    +0.000 C 
ATOM     22  C   UNL     1      -1.063  13.367  23.268  0.00  0.00    +0.000 C 
ATOM     23  C   UNL     1      -1.946  14.487  23.861  0.00  0.00    +0.000 C 
ATOM     24  C   UNL     1      -3.290  14.683  23.145  0.00  0.00    +0.000 C 
ENDBRANCH  10  22
ENDBRANCH   9  15
ENDBRANCH   1   9
BRANCH   5  25
ATOM     25  O   UNL     1       2.829   6.571  19.254  0.00  0.00    +0.000 OA
BRANCH  25  26
ATOM     26  C   UNL     1       3.192   5.369  18.498  0.00  0.00    +0.000 C 
BRANCH  26  27
ATOM     27  C   UNL     1       4.409   4.676  19.081  0.00  0.00    +0.000 C 
ATOM     28  F   UNL     1       5.067   3.956  18.137  0.00  0.00    +0.000 F 
ATOM     29  F   UNL     1       5.327   5.484  19.642  0.00  0.00    +0.000 F 
ATOM     30  F   UNL     1       4.039   3.798  20.048  0.00  0.00    +0.000 F 
ENDBRANCH  26  27
BRANCH  26  31
ATOM     31  C   UNL     1       1.994   4.449  18.372  0.00  0.00    +0.000 C 
ATOM     32  F   UNL     1       1.248   4.456  19.507  0.00  0.00    +0.000 F 
ATOM     33  F   UNL     1       1.172   4.896  17.387  0.00  0.00    +0.000 F 
ATOM     34  F   UNL     1       2.256   3.160  18.103  0.00  0.00    +0.000 F 
ENDBRANCH  26  31
ENDBRANCH  25  26
ENDBRANCH   5  25
TORSDOF 7
ENDMDL
MODEL 3
REMARK VINA RESULT:      -7.2      1.171      1.539
REMARK  Name = 
REMARK  9 active torsions:
REMARK  status: ('A' for Active; 'I' for Inactive)
REMARK    1  A    between atoms: C_1  and  C_2
REMARK    2  A    between atoms: C_7  and  C_8
REMARK    3  A    between atoms: N_10  and  C_11
REMARK    4  A    between atoms: C_13  and  C_14
REMARK    5  A    between atoms: C_14  and  N_15
REMARK    6  A    between atoms: C_19  and  O_21
REMARK    7  A    between atoms: O_21  and  C_22
REMARK    8  A    between atoms: C_22  and  C_23
REMARK    9  A    between atoms: C_22  and  C_27
REMARK                            x       y       z     vdW  Elec       q    Type
REMARK                         _______ _______ _______ _____ _____    ______ ____
ROOT
ATOM      1  N   UNL     1      -0.207  10.502  20.459  0.00  0.00    +0.000 NA
ATOM      2  C   UNL     1      -0.169  10.517  18.980  0.00  0.00    +0.000 C 
ATOM      3  C   UNL     1       1.126   9.984  18.333  0.00  0.00    +0.000 C 
ATOM      4  N   UNL     1       1.566   8.700  18.880  0.00  0.00    +0.000 N 
ATOM      5  C   UNL     1       2.469   7.961  18.133  0.00  0.00    +0.000 C 
ATOM      6  O   UNL     1       2.810   8.228  16.990  0.00  0.00    +0.000 OA
ATOM      7  C   UNL     1       1.447   8.535  20.330  0.00  0.00    +0.000 C 
ATOM      8  C   UNL     1       0.141   9.128  20.905  0.00  0.00    +0.000 C 
ENDROOT
BRANCH   1   9
ATOM      9  C   UNL     1       0.680  11.488  21.093  0.00  0.00    +0.000 C 
BRANCH   9  15
ATOM     10  C   UNL     1      -0.625  13.642  22.009  0.00  0.00    +0.000 A 
ATOM     11  N   UNL     1      -0.734  14.926  21.640  0.00  0.00    +0.000 NA
ATOM     12  N   UNL     1      -0.049  15.019  20.501  0.00  0.00    +0.000 N 
ATOM     13  C   UNL     1       0.126  16.309  19.877  0.00  0.00    +0.000 C 
ATOM     14  C   UNL     1       0.487  13.837  20.098  0.00  0.00    +0.000 A 
ATOM     15  C   UNL     1       0.161  12.897  21.064  0.00  0.00    +0.000 A 
BRANCH  10  22
ATOM     16  C   UNL     1      -6.194  15.187  23.419  0.00  0.00    +0.000 C 
ATOM     17  C   UNL     1      -5.577  13.882  22.979  0.00  0.00    +0.000 C 
ATOM     18  O   UNL     1      -6.299  13.015  22.481  0.00  0.00    +0.000 OA
ATOM     19  N   UNL     1      -4.200  13.718  23.137  0.00  0.00    +0.000 N 
ATOM     20  C   UNL     1      -3.595  12.602  22.409  0.00  0.00    +0.000 C 
ATOM     21  C   UNL     1      -2.318  12.089  23.068  0.00  0.00    +0.000 C 
ATOM     22  C   UNL     1      -1.286  13.199  23.294  0.00  0.00    +0.000 C 
ATOM     23  C   UNL     1      -1.966  14.340  24.081  0.00  0.00    +0.000 C 
ATOM     24  C   UNL     1      -3.297  14.818  23.483  0.00  0.00    +0.000 C 
ENDBRANCH  10  22
ENDBRANCH   9  15
ENDBRANCH   1   9
BRANCH   5  25
ATOM     25  O   UNL     1       2.937   6.867  18.791  0.00  0.00    +0.000 OA
BRANCH  25  26
ATOM     26  C   UNL     1       3.580   5.854  17.949  0.00  0.00    +0.000 C 
BRANCH  26  27
ATOM     27  C   UNL     1       4.998   5.559  18.396  0.00  0.00    +0.000 C 
ATOM     28  F   UNL     1       5.101   5.565  19.750  0.00  0.00    +0.000 F 
ATOM     29  F   UNL     1       5.505   4.381  17.988  0.00  0.00    +0.000 F 
ATOM     30  F   UNL     1       5.849   6.513  17.941  0.00  0.00    +0.000 F 
ENDBRANCH  26  27
BRANCH  26  31
ATOM     31  C   UNL     1       2.714   4.612  17.876  0.00  0.00    +0.000 C 
ATOM     32  F   UNL     1       2.758   3.912  19.039  0.00  0.00    +0.000 F 
ATOM     33  F   UNL     1       1.413   4.967  17.706  0.00  0.00    +0.000 F 
ATOM     34  F   UNL     1       3.007   3.736  16.900  0.00  0.00    +0.000 F 
ENDBRANCH  26  31
ENDBRANCH  25  26
ENDBRANCH   5  25
TORSDOF 7
ENDMDL
MODEL 4
REMARK VINA RESULT:      -7.2      0.866      1.349
REMARK  Name = 
REMARK  9 active torsions:
REMARK  status: ('A' for Active; 'I' for Inactive)
REMARK    1  A    between atoms: C_1  and  C_2
REMARK    2  A    between atoms: C_7  and  C_8
REMARK    3  A    between atoms: N_10  and  C_11
REMARK    4  A    between atoms: C_13  and  C_14
REMARK    5  A    between atoms: C_14  and  N_15
REMARK    6  A    between atoms: C_19  and  O_21
REMARK    7  A    between atoms: O_21  and  C_22
REMARK    8  A    between atoms: C_22  and  C_23
REMARK    9  A    between atoms: C_22  and  C_27
REMARK                            x       y       z     vdW  Elec       q    Type
REMARK                         _______ _______ _______ _____ _____    ______ ____
ROOT
ATOM      1  N   UNL     1       0.122  10.268  19.991  0.00  0.00    +0.000 NA
ATOM      2  C   UNL     1       0.437  10.028  18.565  0.00  0.00    +0.000 C 
ATOM      3  C   UNL     1       1.738   9.250  18.284  0.00  0.00    +0.000 C 
ATOM      4  N   UNL     1       1.876   8.034  19.088  0.00  0.00    +0.000 N 
ATOM      5  C   UNL     1       2.786   7.081  18.657  0.00  0.00    +0.000 C 
ATOM      6  O   UNL     1       3.369   7.111  17.584  0.00  0.00    +0.000 OA
ATOM      7  C   UNL     1       1.467   8.132  20.490  0.00  0.00    +0.000 C 
ATOM      8  C   UNL     1       0.176   8.959  20.691  0.00  0.00    +0.000 C 
ENDROOT
BRANCH   1   9
ATOM      9  C   UNL     1       1.009  11.239  20.647  0.00  0.00    +0.000 C 
BRANCH   9  15
ATOM     10  C   UNL     1      -0.232  13.410  21.612  0.00  0.00    +0.000 A 
ATOM     11  N   UNL     1      -0.350  14.692  21.240  0.00  0.00    +0.000 NA
ATOM     12  N   UNL     1       0.276  14.772  20.066  0.00  0.00    +0.000 N 
ATOM     13  C   UNL     1       0.428  16.056  19.424  0.00  0.00    +0.000 C 
ATOM     14  C   UNL     1       0.782  13.582  19.645  0.00  0.00    +0.000 A 
ATOM     15  C   UNL     1       0.499  12.652  20.634  0.00  0.00    +0.000 A 
BRANCH  10  22
ATOM     16  C   UNL     1      -5.572  15.285  23.446  0.00  0.00    +0.000 C 
ATOM     17  C   UNL     1      -5.076  13.952  22.939  0.00  0.00    +0.000 C 
ATOM     18  O   UNL     1      -5.888  13.146  22.478  0.00  0.00    +0.000 OA
ATOM     19  N   UNL     1      -3.706  13.694  22.995  0.00  0.00    +0.000 N 
ATOM     20  C   UNL     1      -3.229  12.558  22.205  0.00  0.00    +0.000 C 
ATOM     21  C   UNL     1      -1.947  11.947  22.761  0.00  0.00    +0.000 C 
ATOM     22  C   UNL     1      -0.829  12.981  22.932  0.00  0.00    +0.000 C 
ATOM     23  C   UNL     1      -1.374  14.146  23.787  0.00  0.00    +0.000 C 
ATOM     24  C   UNL     1      -2.709  14.724  23.295  0.00  0.00    +0.000 C 
ENDBRANCH  10  22
ENDBRANCH   9  15
ENDBRANCH   1   9
BRANCH   5  25
ATOM     25  O   UNL     1       2.959   6.069  19.548  0.00  0.00    +0.000 OA
BRANCH  25  26
ATOM     26  C   UNL     1       1.924   5.030  19.528  0.00  0.00    +0.000 C 
BRANCH  26  27
ATOM     27  C   UNL     1       1.936   4.241  18.233  0.00  0.00    +0.000 C 
ATOM     28  F   UNL     1       1.210   4.863  17.269  0.00  0.00    +0.000 F 
ATOM     29  F   UNL     1       3.150   4.014  17.700  0.00  0.00    +0.000 F 
ATOM     30  F   UNL     1       1.370   3.021  18.415  0.00  0.00    +0.000 F 
ENDBRANCH  26  27
BRANCH  26  31
ATOM     31  C   UNL     1       2.044   4.151  20.756  0.00  0.00    +0.000 C 
ATOM     32  F   UNL     1       3.015   3.215  20.598  0.00  0.00    +0.000 F 
ATOM     33  F   UNL     1       2.422   4.901  21.825  0.00  0.00    +0.000 F 
ATOM     34  F   UNL     1       0.937   3.484  21.124  0.00  0.00    +0.000 F 
ENDBRANCH  26  31
ENDBRANCH  25  26
ENDBRANCH   5  25
TORSDOF 7
ENDMDL
MODEL 5
REMARK VINA RESULT:      -7.2      1.645      2.034
REMARK  Name = 
REMARK  9 active torsions:
REMARK  status: ('A' for Active; 'I' for Inactive)
REMARK    1  A    between atoms: C_1  and  C_2
REMARK    2  A    between atoms: C_7  and  C_8
REMARK    3  A    between atoms: N_10  and  C_11
REMARK    4  A    between atoms: C_13  and  C_14
REMARK    5  A    between atoms: C_14  and  N_15
REMARK    6  A    between atoms: C_19  and  O_21
REMARK    7  A    between atoms: O_21  and  C_22
REMARK    8  A    between atoms: C_22  and  C_23
REMARK    9  A    between atoms: C_22  and  C_27
REMARK                            x       y       z     vdW  Elec       q    Type
REMARK                         _______ _______ _______ _____ _____    ______ ____
ROOT
ATOM      1  N   UNL     1       0.290   9.762  20.272  0.00  0.00    +0.000 NA
ATOM      2  C   UNL     1       0.592   9.475  18.852  0.00  0.00    +0.000 C 
ATOM      3  C   UNL     1       1.909   8.718  18.583  0.00  0.00    +0.000 C 
ATOM      4  N   UNL     1       2.087   7.538  19.430  0.00  0.00    +0.000 N 
ATOM      5  C   UNL     1       3.013   6.591  19.024  0.00  0.00    +0.000 C 
ATOM      6  O   UNL     1       3.582   6.594  17.943  0.00  0.00    +0.000 OA
ATOM      7  C   UNL     1       1.692   7.680  20.833  0.00  0.00    +0.000 C 
ATOM      8  C   UNL     1       0.385   8.482  21.020  0.00  0.00    +0.000 C 
ENDROOT
BRANCH   1   9
ATOM      9  C   UNL     1       1.161  10.778  20.879  0.00  0.00    +0.000 C 
BRANCH   9  15
ATOM     10  C   UNL     1      -0.209  13.038  20.433  0.00  0.00    +0.000 A 
ATOM     11  N   UNL     1       0.083  14.263  19.972  0.00  0.00    +0.000 NA
ATOM     12  N   UNL     1       1.366  14.202  19.617  0.00  0.00    +0.000 N 
ATOM     13  C   UNL     1       2.040  15.397  19.168  0.00  0.00    +0.000 C 
ATOM     14  C   UNL     1       1.920  12.975  19.809  0.00  0.00    +0.000 A 
ATOM     15  C   UNL     1       0.936  12.173  20.367  0.00  0.00    +0.000 A 
BRANCH  10  22
ATOM     16  C   UNL     1      -2.223  15.324  25.543  0.00  0.00    +0.000 C 
ATOM     17  C   UNL     1      -2.526  15.632  24.097  0.00  0.00    +0.000 C 
ATOM     18  O   UNL     1      -3.002  16.732  23.805  0.00  0.00    +0.000 OA
ATOM     19  N   UNL     1      -2.235  14.658  23.141  0.00  0.00    +0.000 N 
ATOM     20  C   UNL     1      -2.227  15.103  21.746  0.00  0.00    +0.000 C 
ATOM     21  C   UNL     1      -2.535  13.977  20.764  0.00  0.00    +0.000 C 
ATOM     22  C   UNL     1      -1.607  12.771  20.943  0.00  0.00    +0.000 C 
ATOM     23  C   UNL     1      -1.666  12.329  22.421  0.00  0.00    +0.000 C 
ATOM     24  C   UNL     1      -1.442  13.462  23.433  0.00  0.00    +0.000 C 
ENDBRANCH  10  22
ENDBRANCH   9  15
ENDBRANCH   1   9
BRANCH   5  25
ATOM     25  O   UNL     1       3.222   5.618  19.950  0.00  0.00    +0.000 OA
BRANCH  25  26
ATOM     26  C   UNL     1       2.733   4.285  19.582  0.00  0.00    +0.000 C 
BRANCH  26  27
ATOM     27  C   UNL     1       3.867   3.298  19.386  0.00  0.00    +0.000 C 
ATOM     28  F   UNL     1       5.008   3.926  19.005  0.00  0.00    +0.000 F 
ATOM     29  F   UNL     1       4.189   2.558  20.462  0.00  0.00    +0.000 F 
ATOM     30  F   UNL     1       3.564   2.416  18.399  0.00  0.00    +0.000 F 
ENDBRANCH  26  27
BRANCH  26  31
ATOM     31  C   UNL     1       1.706   3.810  20.590  0.00  0.00    +0.000 C 
ATOM     32  F   UNL     1       2.142   3.999  21.863  0.00  0.00    +0.000 F 
ATOM     33  F   UNL     1       0.571   4.550  20.474  0.00  0.00    +0.000 F 
ATOM     34  F   UNL     1       1.338   2.521  20.507  0.00  0.00    +0.000 F 
ENDBRANCH  26  31
ENDBRANCH  25  26
ENDBRANCH   5  25
TORSDOF 7
ENDMDL
MODEL 6
REMARK VINA RESULT:      -7.0      2.528      3.799
REMARK  Name = 
REMARK  9 active torsions:
REMARK  status: ('A' for Active; 'I' for Inactive)
REMARK    1  A    between atoms: C_1  and  C_2
REMARK    2  A    between atoms: C_7  and  C_8
REMARK    3  A    between atoms: N_10  and  C_11
REMARK    4  A    between atoms: C_13  and  C_14
REMARK    5  A    between atoms: C_14  and  N_15
REMARK    6  A    between atoms: C_19  and  O_21
REMARK    7  A    between atoms: O_21  and  C_22
REMARK    8  A    between atoms: C_22  and  C_23
REMARK    9  A    between atoms: C_22  and  C_27
REMARK                            x       y       z     vdW  Elec       q    Type
REMARK                         _______ _______ _______ _____ _____    ______ ____
ROOT
ATOM      1  N   UNL     1       1.444   9.734  18.752  0.00  0.00    +0.000 NA
ATOM      2  C   UNL     1       1.320   9.307  20.164  0.00  0.00    +0.000 C 
ATOM      3  C   UNL     1       1.198   7.788  20.400  0.00  0.00    +0.000 C 
ATOM      4  N   UNL     1       2.197   7.002  19.675  0.00  0.00    +0.000 N 
ATOM      5  C   UNL     1       2.423   5.703  20.101  0.00  0.00    +0.000 C 
ATOM      6  O   UNL     1       1.963   5.216  21.123  0.00  0.00    +0.000 OA
ATOM      7  C   UNL     1       2.488   7.427  18.304  0.00  0.00    +0.000 C 
ATOM      8  C   UNL     1       2.557   8.962  18.143  0.00  0.00    +0.000 C 
ENDROOT
BRANCH   1   9
ATOM      9  C   UNL     1       0.213   9.571  17.965  0.00  0.00    +0.000 C 
BRANCH   9  15
ATOM     10  C   UNL     1      -0.861  11.923  18.670  0.00  0.00    +0.000 A 
ATOM     11  N   UNL     1      -2.103  12.417  18.778  0.00  0.00    +0.000 NA
ATOM     12  N   UNL     1      -2.909  11.387  18.520  0.00  0.00    +0.000 N 
ATOM     13  C   UNL     1      -4.335  11.598  18.450  0.00  0.00    +0.000 C 
ATOM     14  C   UNL     1      -2.240  10.231  18.268  0.00  0.00    +0.000 A 
ATOM     15  C   UNL     1      -0.887  10.527  18.329  0.00  0.00    +0.000 A 
BRANCH  10  22
ATOM     16  C   UNL     1      -1.209  16.701  22.196  0.00  0.00    +0.000 C 
ATOM     17  C   UNL     1      -0.516  15.369  22.347  0.00  0.00    +0.000 C 
ATOM     18  O   UNL     1      -0.220  14.972  23.476  0.00  0.00    +0.000 OA
ATOM     19  N   UNL     1      -0.254  14.628  21.194  0.00  0.00    +0.000 N 
ATOM     20  C   UNL     1       0.107  13.224  21.396  0.00  0.00    +0.000 C 
ATOM     21  C   UNL     1       0.960  12.664  20.262  0.00  0.00    +0.000 C 
ATOM     22  C   UNL     1       0.310  12.853  18.888  0.00  0.00    +0.000 C 
ATOM     23  C   UNL     1      -0.032  14.350  18.716  0.00  0.00    +0.000 C 
ATOM     24  C   UNL     1      -0.820  14.959  19.884  0.00  0.00    +0.000 C 
ENDBRANCH  10  22
ENDBRANCH   9  15
ENDBRANCH   1   9
BRANCH   5  25
ATOM     25  O   UNL     1       3.246   5.006  19.273  0.00  0.00    +0.000 OA
BRANCH  25  26
ATOM     26  C   UNL     1       2.889   3.598  19.072  0.00  0.00    +0.000 C 
BRANCH  26  27
ATOM     27  C   UNL     1       2.353   3.340  17.678  0.00  0.00    +0.000 C 
ATOM     28  F   UNL     1       1.830   2.092  17.573  0.00  0.00    +0.000 F 
ATOM     29  F   UNL     1       1.394   4.184  17.257  0.00  0.00    +0.000 F 
ATOM     30  F   UNL     1       3.352   3.418  16.762  0.00  0.00    +0.000 F 
ENDBRANCH  26  27
BRANCH  26  31
ATOM     31  C   UNL     1       4.063   2.707  19.427  0.00  0.00    +0.000 C 
ATOM     32  F   UNL     1       4.076   2.416  20.754  0.00  0.00    +0.000 F 
ATOM     33  F   UNL     1       3.946   1.514  18.787  0.00  0.00    +0.000 F 
ATOM     34  F   UNL     1       5.285   3.184  19.136  0.00  0.00    +0.000 F 
ENDBRANCH  26  31
ENDBRANCH  25  26
ENDBRANCH   5  25
TORSDOF 7
ENDMDL
MODEL 7
REMARK VINA RESULT:      -7.0      2.178      3.449
REMARK  Name = 
REMARK  9 active torsions:
REMARK  status: ('A' for Active; 'I' for Inactive)
REMARK    1  A    between atoms: C_1  and  C_2
REMARK    2  A    between atoms: C_7  and  C_8
REMARK    3  A    between atoms: N_10  and  C_11
REMARK    4  A    between atoms: C_13  and  C_14
REMARK    5  A    between atoms: C_14  and  N_15
REMARK    6  A    between atoms: C_19  and  O_21
REMARK    7  A    between atoms: O_21  and  C_22
REMARK    8  A    between atoms: C_22  and  C_23
REMARK    9  A    between atoms: C_22  and  C_27
REMARK                            x       y       z     vdW  Elec       q    Type
REMARK                         _______ _______ _______ _____ _____    ______ ____
ROOT
ATOM      1  N   UNL     1       0.894   9.759  20.317  0.00  0.00    +0.000 NA
ATOM      2  C   UNL     1       1.572   8.895  21.310  0.00  0.00    +0.000 C 
ATOM      3  C   UNL     1       1.765   7.421  20.901  0.00  0.00    +0.000 C 
ATOM      4  N   UNL     1       2.324   7.257  19.558  0.00  0.00    +0.000 N 
ATOM      5  C   UNL     1       2.886   6.030  19.243  0.00  0.00    +0.000 C 
ATOM      6  O   UNL     1       3.084   5.129  20.045  0.00  0.00    +0.000 OA
ATOM      7  C   UNL     1       1.809   8.157  18.524  0.00  0.00    +0.000 C 
ATOM      8  C   UNL     1       1.608   9.606  19.024  0.00  0.00    +0.000 C 
ENDROOT
BRANCH   1   9
ATOM      9  C   UNL     1      -0.538   9.472  20.152  0.00  0.00    +0.000 C 
BRANCH   9  15
ATOM     10  C   UNL     1      -1.439  11.830  19.250  0.00  0.00    +0.000 A 
ATOM     11  N   UNL     1      -2.020  12.269  18.125  0.00  0.00    +0.000 NA
ATOM     12  N   UNL     1      -2.209  11.177  17.384  0.00  0.00    +0.000 N 
ATOM     13  C   UNL     1      -2.730  11.305  16.044  0.00  0.00    +0.000 C 
ATOM     14  C   UNL     1      -1.792  10.036  17.994  0.00  0.00    +0.000 A 
ATOM     15  C   UNL     1      -1.253  10.405  19.216  0.00  0.00    +0.000 A 
BRANCH  10  22
ATOM     16  C   UNL     1      -5.374  13.849  23.229  0.00  0.00    +0.000 C 
ATOM     17  C   UNL     1      -4.200  12.908  23.341  0.00  0.00    +0.000 C 
ATOM     18  O   UNL     1      -4.155  12.115  24.285  0.00  0.00    +0.000 OA
ATOM     19  N   UNL     1      -3.216  12.959  22.353  0.00  0.00    +0.000 N 
ATOM     20  C   UNL     1      -2.285  11.831  22.307  0.00  0.00    +0.000 C 
ATOM     21  C   UNL     1      -0.935  12.202  21.702  0.00  0.00    +0.000 C 
ATOM     22  C   UNL     1      -1.068  12.838  20.314  0.00  0.00    +0.000 C 
ATOM     23  C   UNL     1      -2.042  14.032  20.420  0.00  0.00    +0.000 C 
ATOM     24  C   UNL     1      -3.377  13.704  21.102  0.00  0.00    +0.000 C 
ENDBRANCH  10  22
ENDBRANCH   9  15
ENDBRANCH   1   9
BRANCH   5  25
ATOM     25  O   UNL     1       3.232   5.922  17.932  0.00  0.00    +0.000 OA
BRANCH  25  26
ATOM     26  C   UNL     1       4.488   5.213  17.670  0.00  0.00    +0.000 C 
BRANCH  26  27
ATOM     27  C   UNL     1       4.251   3.802  17.169  0.00  0.00    +0.000 C 
ATOM     28  F   UNL     1       4.379   2.894  18.170  0.00  0.00    +0.000 F 
ATOM     29  F   UNL     1       3.048   3.576  16.611  0.00  0.00    +0.000 F 
ATOM     30  F   UNL     1       5.171   3.471  16.227  0.00  0.00    +0.000 F 
ENDBRANCH  26  27
BRANCH  26  31
ATOM     31  C   UNL     1       5.363   6.030  16.740  0.00  0.00    +0.000 C 
ATOM     32  F   UNL     1       5.419   7.329  17.133  0.00  0.00    +0.000 F 
ATOM     33  F   UNL     1       6.642   5.573  16.792  0.00  0.00    +0.000 F 
ATOM     34  F   UNL     1       5.009   6.044  15.445  0.00  0.00    +0.000 F 
ENDBRANCH  26  31
ENDBRANCH  25  26
ENDBRANCH   5  25
TORSDOF 7
ENDMDL
MODEL 8
REMARK VINA RESULT:      -7.0      4.749      9.902
REMARK  Name = 
REMARK  9 active torsions:
REMARK  status: ('A' for Active; 'I' for Inactive)
REMARK    1  A    between atoms: C_1  and  C_2
REMARK    2  A    between atoms: C_7  and  C_8
REMARK    3  A    between atoms: N_10  and  C_11
REMARK    4  A    between atoms: C_13  and  C_14
REMARK    5  A    between atoms: C_14  and  N_15
REMARK    6  A    between atoms: C_19  and  O_21
REMARK    7  A    between atoms: O_21  and  C_22
REMARK    8  A    between atoms: C_22  and  C_23
REMARK    9  A    between atoms: C_22  and  C_27
REMARK                            x       y       z     vdW  Elec       q    Type
REMARK                         _______ _______ _______ _____ _____    ______ ____
ROOT
ATOM      1  N   UNL     1       1.290   8.190  21.293  0.00  0.00    +0.000 NA
ATOM      2  C   UNL     1       1.633   9.613  21.509  0.00  0.00    +0.000 C 
ATOM      3  C   UNL     1       1.034  10.612  20.497  0.00  0.00    +0.000 C 
ATOM      4  N   UNL     1      -0.400  10.421  20.269  0.00  0.00    +0.000 N 
ATOM      5  C   UNL     1      -1.102  11.470  19.698  0.00  0.00    +0.000 C 
ATOM      6  O   UNL     1      -0.650  12.589  19.508  0.00  0.00    +0.000 OA
ATOM      7  C   UNL     1      -0.864   9.036  20.170  0.00  0.00    +0.000 C 
ATOM      8  C   UNL     1      -0.188   8.093  21.191  0.00  0.00    +0.000 C 
ENDROOT
BRANCH   1   9
ATOM      9  C   UNL     1       1.928   7.590  20.112  0.00  0.00    +0.000 C 
BRANCH   9  15
ATOM     10  C   UNL     1       2.399   5.137  19.140  0.00  0.00    +0.000 A 
ATOM     11  N   UNL     1       2.447   3.898  19.647  0.00  0.00    +0.000 NA
ATOM     12  N   UNL     1       2.090   4.031  20.924  0.00  0.00    +0.000 N 
ATOM     13  C   UNL     1       2.136   2.886  21.801  0.00  0.00    +0.000 C 
ATOM     14  C   UNL     1       1.789   5.312  21.267  0.00  0.00    +0.000 A 
ATOM     15  C   UNL     1       1.997   6.090  20.139  0.00  0.00    +0.000 A 
BRANCH  10  22
ATOM     16  C   UNL     1       7.747   7.148  17.482  0.00  0.00    +0.000 C 
ATOM     17  C   UNL     1       7.094   5.790  17.395  0.00  0.00    +0.000 C 
ATOM     18  O   UNL     1       7.807   4.789  17.284  0.00  0.00    +0.000 OA
ATOM     19  N   UNL     1       5.702   5.721  17.466  0.00  0.00    +0.000 N 
ATOM     20  C   UNL     1       5.132   4.396  17.712  0.00  0.00    +0.000 C 
ATOM     21  C   UNL     1       3.714   4.252  17.168  0.00  0.00    +0.000 C 
ATOM     22  C   UNL     1       2.771   5.342  17.689  0.00  0.00    +0.000 C 
ATOM     23  C   UNL     1       3.407   6.717  17.388  0.00  0.00    +0.000 C 
ATOM     24  C   UNL     1       4.864   6.858  17.851  0.00  0.00    +0.000 C 
ENDBRANCH  10  22
ENDBRANCH   9  15
ENDBRANCH   1   9
BRANCH   5  25
ATOM     25  O   UNL     1      -2.384  11.143  19.380  0.00  0.00    +0.000 OA
BRANCH  25  26
ATOM     26  C   UNL     1      -2.797  11.474  18.013  0.00  0.00    +0.000 C 
BRANCH  26  27
ATOM     27  C   UNL     1      -2.344  10.428  17.013  0.00  0.00    +0.000 C 
ATOM     28  F   UNL     1      -2.483  10.871  15.738  0.00  0.00    +0.000 F 
ATOM     29  F   UNL     1      -1.066  10.023  17.131  0.00  0.00    +0.000 F 
ATOM     30  F   UNL     1      -3.105   9.309  17.118  0.00  0.00    +0.000 F 
ENDBRANCH  26  27
BRANCH  26  31
ATOM     31  C   UNL     1      -4.290  11.728  17.967  0.00  0.00    +0.000 C 
ATOM     32  F   UNL     1      -4.680  12.141  16.733  0.00  0.00    +0.000 F 
ATOM     33  F   UNL     1      -4.961  10.568  18.198  0.00  0.00    +0.000 F 
ATOM     34  F   UNL     1      -4.770  12.633  18.835  0.00  0.00    +0.000 F 
ENDBRANCH  26  31
ENDBRANCH  25  26
ENDBRANCH   5  25
TORSDOF 7
ENDMDL
MODEL 9
REMARK VINA RESULT:      -7.0      2.527      4.708
REMARK  Name = 
REMARK  9 active torsions:
REMARK  status: ('A' for Active; 'I' for Inactive)
REMARK    1  A    between atoms: C_1  and  C_2
REMARK    2  A    between atoms: C_7  and  C_8
REMARK    3  A    between atoms: N_10  and  C_11
REMARK    4  A    between atoms: C_13  and  C_14
REMARK    5  A    between atoms: C_14  and  N_15
REMARK    6  A    between atoms: C_19  and  O_21
REMARK    7  A    between atoms: O_21  and  C_22
REMARK    8  A    between atoms: C_22  and  C_23
REMARK    9  A    between atoms: C_22  and  C_27
REMARK                            x       y       z     vdW  Elec       q    Type
REMARK                         _______ _______ _______ _____ _____    ______ ____
ROOT
ATOM      1  N   UNL     1       0.449  10.001  19.516  0.00  0.00    +0.000 NA
ATOM      2  C   UNL     1       0.766   9.538  18.146  0.00  0.00    +0.000 C 
ATOM      3  C   UNL     1       2.065   8.721  17.995  0.00  0.00    +0.000 C 
ATOM      4  N   UNL     1       2.198   7.648  18.982  0.00  0.00    +0.000 N 
ATOM      5  C   UNL     1       3.106   6.637  18.710  0.00  0.00    +0.000 C 
ATOM      6  O   UNL     1       3.691   6.494  17.648  0.00  0.00    +0.000 OA
ATOM      7  C   UNL     1       1.786   7.969  20.350  0.00  0.00    +0.000 C 
ATOM      8  C   UNL     1       0.497   8.820  20.414  0.00  0.00    +0.000 C 
ENDROOT
BRANCH   1   9
ATOM      9  C   UNL     1       1.337  11.062  20.011  0.00  0.00    +0.000 C 
BRANCH   9  15
ATOM     10  C   UNL     1       0.373  13.560  20.125  0.00  0.00    +0.000 A 
ATOM     11  N   UNL     1      -0.438  14.239  20.948  0.00  0.00    +0.000 NA
ATOM     12  N   UNL     1      -0.707  13.395  21.944  0.00  0.00    +0.000 N 
ATOM     13  C   UNL     1      -1.650  13.777  22.968  0.00  0.00    +0.000 C 
ATOM     14  C   UNL     1      -0.084  12.194  21.813  0.00  0.00    +0.000 A 
ATOM     15  C   UNL     1       0.623  12.235  20.621  0.00  0.00    +0.000 A 
BRANCH  10  22
ATOM     16  C   UNL     1       4.847  17.482  20.141  0.00  0.00    +0.000 C 
ATOM     17  C   UNL     1       4.737  16.060  19.647  0.00  0.00    +0.000 C 
ATOM     18  O   UNL     1       5.765  15.393  19.507  0.00  0.00    +0.000 OA
ATOM     19  N   UNL     1       3.465  15.549  19.386  0.00  0.00    +0.000 N 
ATOM     20  C   UNL     1       3.370  14.096  19.235  0.00  0.00    +0.000 C 
ATOM     21  C   UNL     1       2.191  13.667  18.368  0.00  0.00    +0.000 C 
ATOM     22  C   UNL     1       0.858  14.239  18.864  0.00  0.00    +0.000 C 
ATOM     23  C   UNL     1       1.004  15.771  18.987  0.00  0.00    +0.000 C 
ATOM     24  C   UNL     1       2.232  16.230  19.786  0.00  0.00    +0.000 C 
ENDBRANCH  10  22
ENDBRANCH   9  15
ENDBRANCH   1   9
BRANCH   5  25
ATOM     25  O   UNL     1       3.274   5.778  19.751  0.00  0.00    +0.000 OA
BRANCH  25  26
ATOM     26  C   UNL     1       2.776   4.417  19.529  0.00  0.00    +0.000 C 
BRANCH  26  27
ATOM     27  C   UNL     1       3.902   3.406  19.445  0.00  0.00    +0.000 C 
ATOM     28  F   UNL     1       3.977   2.654  20.573  0.00  0.00    +0.000 F 
ATOM     29  F   UNL     1       3.830   2.536  18.421  0.00  0.00    +0.000 F 
ATOM     30  F   UNL     1       5.098   4.035  19.321  0.00  0.00    +0.000 F 
ENDBRANCH  26  27
BRANCH  26  31
ATOM     31  C   UNL     1       1.742   4.062  20.579  0.00  0.00    +0.000 C 
ATOM     32  F   UNL     1       1.362   2.762  20.475  0.00  0.00    +0.000 F 
ATOM     33  F   UNL     1       2.283   4.192  21.819  0.00  0.00    +0.000 F 
ATOM     34  F   UNL     1       0.610   4.785  20.573  0.00  0.00    +0.000 F 
ENDBRANCH  26  31
ENDBRANCH  25  26
ENDBRANCH   5  25
TORSDOF 7
ENDMDL
