MODEL 1
REMARK VINA RESULT:      -7.9      0.000      0.000
REMARK  Name = 
REMARK  4 active torsions:
REMARK  status: ('A' for Active; 'I' for Inactive)
REMARK    1  A    between atoms: C_2  and  C_3
REMARK    2  A    between atoms: C_3  and  C_4
REMARK    3  A    between atoms: N_10  and  C_11
REMARK    4  A    between atoms: C_14  and  C_15
REMARK                            x       y       z     vdW  Elec       q    Type
REMARK                         _______ _______ _______ _____ _____    ______ ____
ROOT
ATOM      1  C   UNL     1       2.321   7.384  19.448  0.00  0.00    +0.000 A 
ATOM      2  C   UNL     1       1.764   7.253  20.719  0.00  0.00    +0.000 A 
ATOM      3  C   UNL     1       0.860   8.207  21.187  0.00  0.00    +0.000 A 
ATOM      4  C   UNL     1       0.558   9.337  20.416  0.00  0.00    +0.000 A 
ATOM      5  C   UNL     1       1.114   9.463  19.137  0.00  0.00    +0.000 A 
ATOM      6  C   UNL     1       1.986   8.482  18.652  0.00  0.00    +0.000 A 
ENDROOT
BRANCH   4   7
ATOM      7  C   UNL     1      -0.344  10.371  21.008  0.00  0.00    +0.000 A 
ATOM      8  C   UNL     1      -0.503  10.347  22.503  0.00  0.00    +0.000 A 
ATOM      9  C   UNL     1      -1.334  11.239  23.054  0.00  0.00    +0.000 A 
ATOM     10  C   UNL     1      -2.025  12.142  22.223  0.00  0.00    +0.000 A 
ATOM     11  N   UNL     1      -2.894  13.099  22.463  0.00  0.00    +0.000 NA
ATOM     12  N   UNL     1      -3.251  13.656  21.251  0.00  0.00    +0.000 NA
ATOM     13  C   UNL     1      -2.586  13.021  20.311  0.00  0.00    +0.000 A 
ATOM     14  N   UNL     1      -1.795  12.056  20.866  0.00  0.00    +0.000 N 
ATOM     15  N   UNL     1      -0.972  11.186  20.209  0.00  0.00    +0.000 NA
ENDBRANCH   4   7
BRANCH   1  18
ATOM     16  O   UNL     1       1.790   5.148  17.733  0.00  0.00    +0.000 OA
ATOM     17  C   UNL     1       2.915   5.374  18.159  0.00  0.00    +0.000 C 
ATOM     18  N   UNL     1       3.238   6.406  19.027  0.00  0.00    +0.000 N 
ATOM     19  H   UNL     1       4.056   6.267  19.607  0.00  0.00    +0.000 HD
BRANCH  17  20
ATOM     20  C   UNL     1       4.139   4.542  17.795  0.00  0.00    +0.000 C 
BRANCH  20  21
ATOM     21  C   UNL     1       4.770   4.871  16.428  0.00  0.00    +0.000 C 
ATOM     22  C   UNL     1       5.017   6.367  16.182  0.00  0.00    +0.000 C 
ATOM     23  C   UNL     1       6.064   6.960  17.119  0.00  0.00    +0.000 C 
ATOM     24  C   UNL     1       7.372   6.172  17.117  0.00  0.00    +0.000 C 
ATOM     25  C   UNL     1       7.189   4.658  17.211  0.00  0.00    +0.000 C 
ATOM     26  C   UNL     1       6.111   4.132  16.265  0.00  0.00    +0.000 C 
ENDBRANCH  20  21
ENDBRANCH  17  20
ENDBRANCH   1  18
TORSDOF 4
ENDMDL
MODEL 2
REMARK VINA RESULT:      -7.9      2.437      9.497
REMARK  Name = 
REMARK  4 active torsions:
REMARK  status: ('A' for Active; 'I' for Inactive)
REMARK    1  A    between atoms: C_2  and  C_3
REMARK    2  A    between atoms: C_3  and  C_4
REMARK    3  A    between atoms: N_10  and  C_11
REMARK    4  A    between atoms: C_14  and  C_15
REMARK                            x       y       z     vdW  Elec       q    Type
REMARK                         _______ _______ _______ _____ _____    ______ ____
ROOT
ATOM      1  C   UNL     1       1.066   8.538  20.120  0.00  0.00    +0.000 A 
ATOM      2  C   UNL     1       1.524   7.311  20.597  0.00  0.00    +0.000 A 
ATOM      3  C   UNL     1       2.438   6.568  19.851  0.00  0.00    +0.000 A 
ATOM      4  C   UNL     1       2.851   7.012  18.588  0.00  0.00    +0.000 A 
ATOM      5  C   UNL     1       2.396   8.247  18.113  0.00  0.00    +0.000 A 
ATOM      6  C   UNL     1       1.513   9.012  18.883  0.00  0.00    +0.000 A 
ENDROOT
BRANCH   4   7
ATOM      7  C   UNL     1       3.759   6.129  17.795  0.00  0.00    +0.000 A 
ATOM      8  C   UNL     1       3.263   4.738  17.509  0.00  0.00    +0.000 A 
ATOM      9  C   UNL     1       4.073   3.916  16.833  0.00  0.00    +0.000 A 
ATOM     10  C   UNL     1       5.343   4.375  16.432  0.00  0.00    +0.000 A 
ATOM     11  N   UNL     1       6.338   3.812  15.784  0.00  0.00    +0.000 NA
ATOM     12  N   UNL     1       7.354   4.743  15.683  0.00  0.00    +0.000 NA
ATOM     13  C   UNL     1       6.943   5.844  16.272  0.00  0.00    +0.000 A 
ATOM     14  N   UNL     1       5.680   5.671  16.763  0.00  0.00    +0.000 N 
ATOM     15  N   UNL     1       4.929   6.584  17.447  0.00  0.00    +0.000 NA
ENDBRANCH   4   7
BRANCH   1  18
ATOM     16  O   UNL     1       1.520   9.732  22.687  0.00  0.00    +0.000 OA
ATOM     17  C   UNL     1       0.440   9.831  22.118  0.00  0.00    +0.000 C 
ATOM     18  N   UNL     1       0.134   9.243  20.900  0.00  0.00    +0.000 N 
ATOM     19  H   UNL     1      -0.845   9.050  20.726  0.00  0.00    +0.000 HD
BRANCH  17  20
ATOM     20  C   UNL     1      -0.738  10.620  22.672  0.00  0.00    +0.000 C 
BRANCH  20  21
ATOM     21  C   UNL     1      -0.670  12.143  22.445  0.00  0.00    +0.000 C 
ATOM     22  C   UNL     1      -0.699  12.570  20.969  0.00  0.00    +0.000 C 
ATOM     23  C   UNL     1      -2.021  12.247  20.281  0.00  0.00    +0.000 C 
ATOM     24  C   UNL     1      -3.229  12.789  21.042  0.00  0.00    +0.000 C 
ATOM     25  C   UNL     1      -3.191  12.525  22.546  0.00  0.00    +0.000 C 
ATOM     26  C   UNL     1      -1.834  12.847  23.169  0.00  0.00    +0.000 C 
ENDBRANCH  20  21
ENDBRANCH  17  20
ENDBRANCH   1  18
TORSDOF 4
ENDMDL
MODEL 3
REMARK VINA RESULT:      -7.9      2.508      9.795
REMARK  Name = 
REMARK  4 active torsions:
REMARK  status: ('A' for Active; 'I' for Inactive)
REMARK    1  A    between atoms: C_2  and  C_3
REMARK    2  A    between atoms: C_3  and  C_4
REMARK    3  A    between atoms: N_10  and  C_11
REMARK    4  A    between atoms: C_14  and  C_15
REMARK                            x       y       z     vdW  Elec       q    Type
REMARK                         _______ _______ _______ _____ _____    ______ ____
ROOT
ATOM      1  C   UNL     1       0.835   9.333  19.563  0.00  0.00    +0.000 A 
ATOM      2  C   UNL     1       1.320   8.247  20.289  0.00  0.00    +0.000 A 
ATOM      3  C   UNL     1       2.269   7.396  19.724  0.00  0.00    +0.000 A 
ATOM      4  C   UNL     1       2.691   7.583  18.400  0.00  0.00    +0.000 A 
ATOM      5  C   UNL     1       2.207   8.678  17.675  0.00  0.00    +0.000 A 
ATOM      6  C   UNL     1       1.288   9.556  18.260  0.00  0.00    +0.000 A 
ENDROOT
BRANCH   4   7
ATOM      7  C   UNL     1       3.639   6.585  17.817  0.00  0.00    +0.000 A 
ATOM      8  C   UNL     1       3.140   5.171  17.703  0.00  0.00    +0.000 A 
ATOM      9  C   UNL     1       3.982   4.252  17.219  0.00  0.00    +0.000 A 
ATOM     10  C   UNL     1       5.286   4.637  16.852  0.00  0.00    +0.000 A 
ATOM     11  N   UNL     1       6.316   3.977  16.371  0.00  0.00    +0.000 NA
ATOM     12  N   UNL     1       7.353   4.875  16.211  0.00  0.00    +0.000 NA
ATOM     13  C   UNL     1       6.920   6.054  16.598  0.00  0.00    +0.000 A 
ATOM     14  N   UNL     1       5.621   5.965  17.012  0.00  0.00    +0.000 N 
ATOM     15  N   UNL     1       4.839   6.975  17.495  0.00  0.00    +0.000 NA
ENDBRANCH   4   7
BRANCH   1  18
ATOM     16  O   UNL     1       1.313  11.657  21.173  0.00  0.00    +0.000 OA
ATOM     17  C   UNL     1       0.176  11.289  20.903  0.00  0.00    +0.000 C 
ATOM     18  N   UNL     1      -0.132  10.153  20.170  0.00  0.00    +0.000 N 
ATOM     19  H   UNL     1      -1.039   9.737  20.343  0.00  0.00    +0.000 HD
BRANCH  17  20
ATOM     20  C   UNL     1      -1.079  12.034  21.338  0.00  0.00    +0.000 C 
BRANCH  20  21
ATOM     21  C   UNL     1      -1.170  12.337  22.847  0.00  0.00    +0.000 C 
ATOM     22  C   UNL     1      -0.997  13.820  23.211  0.00  0.00    +0.000 C 
ATOM     23  C   UNL     1      -2.128  14.697  22.685  0.00  0.00    +0.000 C 
ATOM     24  C   UNL     1      -3.509  14.183  23.083  0.00  0.00    +0.000 C 
ATOM     25  C   UNL     1      -3.698  12.680  22.882  0.00  0.00    +0.000 C 
ATOM     26  C   UNL     1      -2.522  11.860  23.410  0.00  0.00    +0.000 C 
ENDBRANCH  20  21
ENDBRANCH  17  20
ENDBRANCH   1  18
TORSDOF 4
ENDMDL
MODEL 4
REMARK VINA RESULT:      -7.9      2.360      9.610
REMARK  Name = 
REMARK  4 active torsions:
REMARK  status: ('A' for Active; 'I' for Inactive)
REMARK    1  A    between atoms: C_2  and  C_3
REMARK    2  A    between atoms: C_3  and  C_4
REMARK    3  A    between atoms: N_10  and  C_11
REMARK    4  A    between atoms: C_14  and  C_15
REMARK                            x       y       z     vdW  Elec       q    Type
REMARK                         _______ _______ _______ _____ _____    ______ ____
ROOT
ATOM      1  C   UNL     1       1.128   9.493  19.617  0.00  0.00    +0.000 A 
ATOM      2  C   UNL     1       1.557   9.597  18.295  0.00  0.00    +0.000 A 
ATOM      3  C   UNL     1       2.263   8.548  17.704  0.00  0.00    +0.000 A 
ATOM      4  C   UNL     1       2.606   7.414  18.452  0.00  0.00    +0.000 A 
ATOM      5  C   UNL     1       2.168   7.308  19.777  0.00  0.00    +0.000 A 
ATOM      6  C   UNL     1       1.423   8.343  20.354  0.00  0.00    +0.000 A 
ENDROOT
BRANCH   4   7
ATOM      7  C   UNL     1       3.442   6.365  17.793  0.00  0.00    +0.000 A 
ATOM      8  C   UNL     1       2.885   4.969  17.784  0.00  0.00    +0.000 A 
ATOM      9  C   UNL     1       3.631   4.005  17.234  0.00  0.00    +0.000 A 
ATOM     10  C   UNL     1       4.894   4.330  16.703  0.00  0.00    +0.000 A 
ATOM     11  N   UNL     1       5.836   3.618  16.126  0.00  0.00    +0.000 NA
ATOM     12  N   UNL     1       6.877   4.470  15.816  0.00  0.00    +0.000 NA
ATOM     13  C   UNL     1       6.535   5.676  16.213  0.00  0.00    +0.000 A 
ATOM     14  N   UNL     1       5.292   5.648  16.780  0.00  0.00    +0.000 N 
ATOM     15  N   UNL     1       4.609   6.700  17.320  0.00  0.00    +0.000 NA
ENDBRANCH   4   7
BRANCH   1  18
ATOM     16  O   UNL     1      -1.514  10.378  18.941  0.00  0.00    +0.000 OA
ATOM     17  C   UNL     1      -0.863  10.924  19.823  0.00  0.00    +0.000 C 
ATOM     18  N   UNL     1       0.435  10.581  20.172  0.00  0.00    +0.000 N 
ATOM     19  H   UNL     1       0.994  11.311  20.596  0.00  0.00    +0.000 HD
BRANCH  17  20
ATOM     20  C   UNL     1      -1.388  12.074  20.673  0.00  0.00    +0.000 C 
BRANCH  20  21
ATOM     21  C   UNL     1      -0.740  12.207  22.065  0.00  0.00    +0.000 C 
ATOM     22  C   UNL     1      -0.562  13.654  22.550  0.00  0.00    +0.000 C 
ATOM     23  C   UNL     1      -1.888  14.367  22.794  0.00  0.00    +0.000 C 
ATOM     24  C   UNL     1      -2.821  13.582  23.713  0.00  0.00    +0.000 C 
ATOM     25  C   UNL     1      -2.929  12.097  23.372  0.00  0.00    +0.000 C 
ATOM     26  C   UNL     1      -1.569  11.447  23.118  0.00  0.00    +0.000 C 
ENDBRANCH  20  21
ENDBRANCH  17  20
ENDBRANCH   1  18
TORSDOF 4
ENDMDL
MODEL 5
REMARK VINA RESULT:      -7.8      0.712      1.262
REMARK  Name = 
REMARK  4 active torsions:
REMARK  status: ('A' for Active; 'I' for Inactive)
REMARK    1  A    between atoms: C_2  and  C_3
REMARK    2  A    between atoms: C_3  and  C_4
REMARK    3  A    between atoms: N_10  and  C_11
REMARK    4  A    between atoms: C_14  and  C_15
REMARK                            x       y       z     vdW  Elec       q    Type
REMARK                         _______ _______ _______ _____ _____    ______ ____
ROOT
ATOM      1  C   UNL     1       2.210   7.976  19.040  0.00  0.00    +0.000 A 
ATOM      2  C   UNL     1       1.824   7.788  20.366  0.00  0.00    +0.000 A 
ATOM      3  C   UNL     1       0.880   8.636  20.947  0.00  0.00    +0.000 A 
ATOM      4  C   UNL     1       0.365   9.723  20.227  0.00  0.00    +0.000 A 
ATOM      5  C   UNL     1       0.750   9.906  18.894  0.00  0.00    +0.000 A 
ATOM      6  C   UNL     1       1.663   9.028  18.300  0.00  0.00    +0.000 A 
ENDROOT
BRANCH   4   7
ATOM      7  C   UNL     1      -0.571  10.651  20.931  0.00  0.00    +0.000 A 
ATOM      8  C   UNL     1      -0.629  10.538  22.429  0.00  0.00    +0.000 A 
ATOM      9  C   UNL     1      -1.487  11.332  23.079  0.00  0.00    +0.000 A 
ATOM     10  C   UNL     1      -2.297  12.220  22.345  0.00  0.00    +0.000 A 
ATOM     11  N   UNL     1      -3.218  13.091  22.691  0.00  0.00    +0.000 NA
ATOM     12  N   UNL     1      -3.695  13.680  21.537  0.00  0.00    +0.000 NA
ATOM     13  C   UNL     1      -3.047  13.149  20.523  0.00  0.00    +0.000 A 
ATOM     14  N   UNL     1      -2.151  12.221  20.974  0.00  0.00    +0.000 N 
ATOM     15  N   UNL     1      -1.310  11.454  20.219  0.00  0.00    +0.000 NA
ENDBRANCH   4   7
BRANCH   1  18
ATOM     16  O   UNL     1       1.770   5.332  18.023  0.00  0.00    +0.000 OA
ATOM     17  C   UNL     1       2.878   5.853  17.992  0.00  0.00    +0.000 C 
ATOM     18  N   UNL     1       3.175   7.106  18.505  0.00  0.00    +0.000 N 
ATOM     19  H   UNL     1       4.136   7.262  18.785  0.00  0.00    +0.000 HD
BRANCH  17  20
ATOM     20  C   UNL     1       4.106   5.192  17.379  0.00  0.00    +0.000 C 
BRANCH  20  21
ATOM     21  C   UNL     1       5.197   6.164  16.890  0.00  0.00    +0.000 C 
ATOM     22  C   UNL     1       6.615   5.830  17.378  0.00  0.00    +0.000 C 
ATOM     23  C   UNL     1       7.145   4.516  16.815  0.00  0.00    +0.000 C 
ATOM     24  C   UNL     1       7.048   4.445  15.292  0.00  0.00    +0.000 C 
ATOM     25  C   UNL     1       5.705   4.906  14.730  0.00  0.00    +0.000 C 
ATOM     26  C   UNL     1       5.220   6.215  15.351  0.00  0.00    +0.000 C 
ENDBRANCH  20  21
ENDBRANCH  17  20
ENDBRANCH   1  18
TORSDOF 4
ENDMDL
MODEL 6
REMARK VINA RESULT:      -7.6      0.721      1.666
REMARK  Name = 
REMARK  4 active torsions:
REMARK  status: ('A' for Active; 'I' for Inactive)
REMARK    1  A    between atoms: C_2  and  C_3
REMARK    2  A    between atoms: C_3  and  C_4
REMARK    3  A    between atoms: N_10  and  C_11
REMARK    4  A    between atoms: C_14  and  C_15
REMARK                            x       y       z     vdW  Elec       q    Type
REMARK                         _______ _______ _______ _____ _____    ______ ____
ROOT
ATOM      1  C   UNL     1       2.422   7.432  19.242  0.00  0.00    +0.000 A 
ATOM      2  C   UNL     1       2.093   8.413  18.308  0.00  0.00    +0.000 A 
ATOM      3  C   UNL     1       1.192   9.423  18.643  0.00  0.00    +0.000 A 
ATOM      4  C   UNL     1       0.559   9.423  19.893  0.00  0.00    +0.000 A 
ATOM      5  C   UNL     1       0.895   8.441  20.832  0.00  0.00    +0.000 A 
ATOM      6  C   UNL     1       1.832   7.454  20.509  0.00  0.00    +0.000 A 
ENDROOT
BRANCH   4   7
ATOM      7  C   UNL     1      -0.467  10.477  20.161  0.00  0.00    +0.000 A 
ATOM      8  C   UNL     1      -1.260  10.959  18.978  0.00  0.00    +0.000 A 
ATOM      9  C   UNL     1      -2.157  11.929  19.185  0.00  0.00    +0.000 A 
ATOM     10  C   UNL     1      -2.313  12.459  20.480  0.00  0.00    +0.000 A 
ATOM     11  N   UNL     1      -3.083  13.401  20.979  0.00  0.00    +0.000 NA
ATOM     12  N   UNL     1      -2.797  13.507  22.326  0.00  0.00    +0.000 NA
ATOM     13  C   UNL     1      -1.864  12.625  22.605  0.00  0.00    +0.000 A 
ATOM     14  N   UNL     1      -1.519  11.933  21.478  0.00  0.00    +0.000 N 
ATOM     15  N   UNL     1      -0.578  10.949  21.370  0.00  0.00    +0.000 NA
ENDBRANCH   4   7
BRANCH   1  18
ATOM     16  O   UNL     1       1.818   5.070  17.733  0.00  0.00    +0.000 OA
ATOM     17  C   UNL     1       2.962   5.329  18.083  0.00  0.00    +0.000 C 
ATOM     18  N   UNL     1       3.322   6.426  18.852  0.00  0.00    +0.000 N 
ATOM     19  H   UNL     1       4.168   6.333  19.401  0.00  0.00    +0.000 HD
BRANCH  17  20
ATOM     20  C   UNL     1       4.170   4.474  17.725  0.00  0.00    +0.000 C 
BRANCH  20  21
ATOM     21  C   UNL     1       4.827   4.805  16.370  0.00  0.00    +0.000 C 
ATOM     22  C   UNL     1       5.050   6.304  16.117  0.00  0.00    +0.000 C 
ATOM     23  C   UNL     1       6.063   6.925  17.073  0.00  0.00    +0.000 C 
ATOM     24  C   UNL     1       7.386   6.163  17.107  0.00  0.00    +0.000 C 
ATOM     25  C   UNL     1       7.231   4.646  17.210  0.00  0.00    +0.000 C 
ATOM     26  C   UNL     1       6.186   4.091  16.243  0.00  0.00    +0.000 C 
ENDBRANCH  20  21
ENDBRANCH  17  20
ENDBRANCH   1  18
TORSDOF 4
ENDMDL
MODEL 7
REMARK VINA RESULT:      -7.6      2.338      9.570
REMARK  Name = 
REMARK  4 active torsions:
REMARK  status: ('A' for Active; 'I' for Inactive)
REMARK    1  A    between atoms: C_2  and  C_3
REMARK    2  A    between atoms: C_3  and  C_4
REMARK    3  A    between atoms: N_10  and  C_11
REMARK    4  A    between atoms: C_14  and  C_15
REMARK                            x       y       z     vdW  Elec       q    Type
REMARK                         _______ _______ _______ _____ _____    ______ ____
ROOT
ATOM      1  C   UNL     1       0.946   9.962  19.718  0.00  0.00    +0.000 A 
ATOM      2  C   UNL     1       1.193   8.794  20.437  0.00  0.00    +0.000 A 
ATOM      3  C   UNL     1       1.926   7.758  19.858  0.00  0.00    +0.000 A 
ATOM      4  C   UNL     1       2.360   7.854  18.528  0.00  0.00    +0.000 A 
ATOM      5  C   UNL     1       2.116   9.030  17.810  0.00  0.00    +0.000 A 
ATOM      6  C   UNL     1       1.419  10.085  18.409  0.00  0.00    +0.000 A 
ENDROOT
BRANCH   4   7
ATOM      7  C   UNL     1       3.059   6.675  17.932  0.00  0.00    +0.000 A 
ATOM      8  C   UNL     1       2.392   5.339  18.106  0.00  0.00    +0.000 A 
ATOM      9  C   UNL     1       3.016   4.263  17.613  0.00  0.00    +0.000 A 
ATOM     10  C   UNL     1       4.260   4.422  16.971  0.00  0.00    +0.000 A 
ATOM     11  N   UNL     1       5.097   3.576  16.413  0.00  0.00    +0.000 NA
ATOM     12  N   UNL     1       6.178   4.300  15.948  0.00  0.00    +0.000 NA
ATOM     13  C   UNL     1       5.963   5.564  16.237  0.00  0.00    +0.000 A 
ATOM     14  N   UNL     1       4.767   5.701  16.883  0.00  0.00    +0.000 N 
ATOM     15  N   UNL     1       4.211   6.858  17.351  0.00  0.00    +0.000 NA
ENDBRANCH   4   7
BRANCH   1  18
ATOM     16  O   UNL     1      -1.709  10.796  19.027  0.00  0.00    +0.000 OA
ATOM     17  C   UNL     1      -1.110  11.290  19.974  0.00  0.00    +0.000 C 
ATOM     18  N   UNL     1       0.190  10.971  20.339  0.00  0.00    +0.000 N 
ATOM     19  H   UNL     1       0.704  11.683  20.841  0.00  0.00    +0.000 HD
BRANCH  17  20
ATOM     20  C   UNL     1      -1.710  12.341  20.899  0.00  0.00    +0.000 C 
BRANCH  20  21
ATOM     21  C   UNL     1      -1.094  12.398  22.311  0.00  0.00    +0.000 C 
ATOM     22  C   UNL     1      -0.901  13.817  22.867  0.00  0.00    +0.000 C 
ATOM     23  C   UNL     1      -2.218  14.545  23.112  0.00  0.00    +0.000 C 
ATOM     24  C   UNL     1      -3.189  13.737  23.970  0.00  0.00    +0.000 C 
ATOM     25  C   UNL     1      -3.316  12.272  23.559  0.00  0.00    +0.000 C 
ATOM     26  C   UNL     1      -1.963  11.607  23.308  0.00  0.00    +0.000 C 
ENDBRANCH  20  21
ENDBRANCH  17  20
ENDBRANCH   1  18
TORSDOF 4
ENDMDL
MODEL 8
REMARK VINA RESULT:      -7.6      0.835      1.366
REMARK  Name = 
REMARK  4 active torsions:
REMARK  status: ('A' for Active; 'I' for Inactive)
REMARK    1  A    between atoms: C_2  and  C_3
REMARK    2  A    between atoms: C_3  and  C_4
REMARK    3  A    between atoms: N_10  and  C_11
REMARK    4  A    between atoms: C_14  and  C_15
REMARK                            x       y       z     vdW  Elec       q    Type
REMARK                         _______ _______ _______ _____ _____    ______ ____
ROOT
ATOM      1  C   UNL     1       2.306   7.586  19.126  0.00  0.00    +0.000 A 
ATOM      2  C   UNL     1       1.789   7.620  20.420  0.00  0.00    +0.000 A 
ATOM      3  C   UNL     1       0.870   8.606  20.779  0.00  0.00    +0.000 A 
ATOM      4  C   UNL     1       0.513   9.610  19.868  0.00  0.00    +0.000 A 
ATOM      5  C   UNL     1       1.029   9.570  18.567  0.00  0.00    +0.000 A 
ATOM      6  C   UNL     1       1.916   8.553  18.196  0.00  0.00    +0.000 A 
ENDROOT
BRANCH   4   7
ATOM      7  C   UNL     1      -0.402  10.693  20.339  0.00  0.00    +0.000 A 
ATOM      8  C   UNL     1      -1.371  11.241  19.328  0.00  0.00    +0.000 A 
ATOM      9  C   UNL     1      -2.176  12.237  19.714  0.00  0.00    +0.000 A 
ATOM     10  C   UNL     1      -2.077  12.732  21.029  0.00  0.00    +0.000 A 
ATOM     11  N   UNL     1      -2.706  13.686  21.679  0.00  0.00    +0.000 NA
ATOM     12  N   UNL     1      -2.182  13.740  22.955  0.00  0.00    +0.000 NA
ATOM     13  C   UNL     1      -1.252  12.815  23.043  0.00  0.00    +0.000 A 
ATOM     14  N   UNL     1      -1.142  12.147  21.856  0.00  0.00    +0.000 N 
ATOM     15  N   UNL     1      -0.278  11.132  21.559  0.00  0.00    +0.000 NA
ENDBRANCH   4   7
BRANCH   1  18
ATOM     16  O   UNL     1       1.800   5.133  17.729  0.00  0.00    +0.000 OA
ATOM     17  C   UNL     1       2.928   5.438  18.097  0.00  0.00    +0.000 C 
ATOM     18  N   UNL     1       3.240   6.582  18.816  0.00  0.00    +0.000 N 
ATOM     19  H   UNL     1       4.072   6.539  19.392  0.00  0.00    +0.000 HD
BRANCH  17  20
ATOM     20  C   UNL     1       4.165   4.595  17.819  0.00  0.00    +0.000 C 
BRANCH  20  21
ATOM     21  C   UNL     1       4.839   4.853  16.457  0.00  0.00    +0.000 C 
ATOM     22  C   UNL     1       5.086   6.335  16.137  0.00  0.00    +0.000 C 
ATOM     23  C   UNL     1       6.098   6.986  17.073  0.00  0.00    +0.000 C 
ATOM     24  C   UNL     1       7.410   6.208  17.157  0.00  0.00    +0.000 C 
ATOM     25  C   UNL     1       7.232   4.701  17.329  0.00  0.00    +0.000 C 
ATOM     26  C   UNL     1       6.189   4.115  16.379  0.00  0.00    +0.000 C 
ENDBRANCH  20  21
ENDBRANCH  17  20
ENDBRANCH   1  18
TORSDOF 4
ENDMDL
MODEL 9
REMARK VINA RESULT:      -7.6      1.039      1.909
REMARK  Name = 
REMARK  4 active torsions:
REMARK  status: ('A' for Active; 'I' for Inactive)
REMARK    1  A    between atoms: C_2  and  C_3
REMARK    2  A    between atoms: C_3  and  C_4
REMARK    3  A    between atoms: N_10  and  C_11
REMARK    4  A    between atoms: C_14  and  C_15
REMARK                            x       y       z     vdW  Elec       q    Type
REMARK                         _______ _______ _______ _____ _____    ______ ____
ROOT
ATOM      1  C   UNL     1       2.166   8.123  18.698  0.00  0.00    +0.000 A 
ATOM      2  C   UNL     1       1.828   8.099  20.050  0.00  0.00    +0.000 A 
ATOM      3  C   UNL     1       0.843   8.956  20.540  0.00  0.00    +0.000 A 
ATOM      4  C   UNL     1       0.235   9.894  19.695  0.00  0.00    +0.000 A 
ATOM      5  C   UNL     1       0.571   9.912  18.336  0.00  0.00    +0.000 A 
ATOM      6  C   UNL     1       1.528   9.021  17.839  0.00  0.00    +0.000 A 
ENDROOT
BRANCH   4   7
ATOM      7  C   UNL     1      -0.746  10.848  20.295  0.00  0.00    +0.000 A 
ATOM      8  C   UNL     1      -1.559  11.670  19.334  0.00  0.00    +0.000 A 
ATOM      9  C   UNL     1      -2.417  12.558  19.846  0.00  0.00    +0.000 A 
ATOM     10  C   UNL     1      -2.515  12.694  21.245  0.00  0.00    +0.000 A 
ATOM     11  N   UNL     1      -3.238  13.468  22.024  0.00  0.00    +0.000 NA
ATOM     12  N   UNL     1      -2.908  13.173  23.332  0.00  0.00    +0.000 NA
ATOM     13  C   UNL     1      -1.995  12.227  23.308  0.00  0.00    +0.000 A 
ATOM     14  N   UNL     1      -1.709  11.884  22.016  0.00  0.00    +0.000 N 
ATOM     15  N   UNL     1      -0.805  10.952  21.592  0.00  0.00    +0.000 NA
ENDBRANCH   4   7
BRANCH   1  18
ATOM     16  O   UNL     1       1.993   5.271  18.448  0.00  0.00    +0.000 OA
ATOM     17  C   UNL     1       3.003   5.882  18.121  0.00  0.00    +0.000 C 
ATOM     18  N   UNL     1       3.176   7.251  18.256  0.00  0.00    +0.000 N 
ATOM     19  H   UNL     1       4.130   7.579  18.339  0.00  0.00    +0.000 HD
BRANCH  17  20
ATOM     20  C   UNL     1       4.232   5.218  17.513  0.00  0.00    +0.000 C 
BRANCH  20  21
ATOM     21  C   UNL     1       5.308   6.190  16.988  0.00  0.00    +0.000 C 
ATOM     22  C   UNL     1       6.744   5.836  17.402  0.00  0.00    +0.000 C 
ATOM     23  C   UNL     1       7.234   4.527  16.793  0.00  0.00    +0.000 C 
ATOM     24  C   UNL     1       7.065   4.482  15.276  0.00  0.00    +0.000 C 
ATOM     25  C   UNL     1       5.700   4.962  14.785  0.00  0.00    +0.000 C 
ATOM     26  C   UNL     1       5.257   6.265  15.450  0.00  0.00    +0.000 C 
ENDBRANCH  20  21
ENDBRANCH  17  20
ENDBRANCH   1  18
TORSDOF 4
ENDMDL
