MODEL 1
REMARK VINA RESULT:      -5.9      0.000      0.000
REMARK  Name = 
REMARK  8 active torsions:
REMARK  status: ('A' for Active; 'I' for Inactive)
REMARK    1  A    between atoms: C_2  and  C_3
REMARK    2  A    between atoms: C_3  and  C_4
REMARK    3  A    between atoms: C_3  and  C_7
REMARK    4  A    between atoms: C_7  and  S_8
REMARK    5  A    between atoms: C_7  and  C_12
REMARK    6  A    between atoms: S_8  and  C_9
REMARK    7  A    between atoms: C_9  and  C_10
REMARK    8  A    between atoms: C_10  and  O_11
REMARK                            x       y       z     vdW  Elec       q    Type
REMARK                         _______ _______ _______ _____ _____    ______ ____
ROOT
ATOM      1  C   UNL     1       4.386   4.669  16.697  0.00  0.00    +0.000 C 
ENDROOT
BRANCH   1   2
ATOM      2  C   UNL     1       3.356   3.801  17.453  0.00  0.00    +0.000 A 
ATOM      3  C   UNL     1       2.053   4.242  17.763  0.00  0.00    +0.000 A 
ATOM      4  C   UNL     1       1.173   3.456  18.512  0.00  0.00    +0.000 A 
ATOM      5  C   UNL     1       1.558   2.194  18.940  0.00  0.00    +0.000 A 
ATOM      6  C   UNL     1       2.815   1.707  18.597  0.00  0.00    +0.000 A 
ATOM      7  C   UNL     1       3.699   2.496  17.853  0.00  0.00    +0.000 A 
ENDBRANCH   1   2
BRANCH   1   8
ATOM      8  C   UNL     1       4.903   5.917  17.466  0.00  0.00    +0.000 C 
BRANCH   8   9
ATOM      9  C   UNL     1       5.689   6.914  16.640  0.00  0.00    +0.000 C 
ATOM     10  N   UNL     1       6.836   7.437  17.153  0.00  0.00    +0.000 N 
ATOM     11  O   UNL     1       5.311   7.268  15.524  0.00  0.00    +0.000 OA
ATOM     12  H   UNL     1       7.308   7.063  17.966  0.00  0.00    +0.000 HD
ATOM     13  H   UNL     1       7.356   8.090  16.576  0.00  0.00    +0.000 HD
ENDBRANCH   8   9
BRANCH   8  15
ATOM     14  N   UNL     1       6.421   5.052  19.630  0.00  0.00    +0.000 NA
ATOM     15  C   UNL     1       5.733   5.445  18.648  0.00  0.00    +0.000 C 
ENDBRANCH   8  15
ENDBRANCH   1   8
BRANCH   1  16
ATOM     16  S   UNL     1       5.734   3.574  15.913  0.00  0.00    +0.000 S 
BRANCH  16  17
ATOM     17  C   UNL     1       5.751   4.142  14.163  0.00  0.00    +0.000 C 
BRANCH  17  18
ATOM     18  C   UNL     1       7.128   4.641  13.733  0.00  0.00    +0.000 C 
BRANCH  18  19
ATOM     19  O   UNL     1       7.688   5.485  14.736  0.00  0.00    +0.000 OA
ATOM     20  H   UNL     1       8.197   6.166  14.261  0.00  0.00    +0.000 HD
ENDBRANCH  18  19
ENDBRANCH  17  18
ENDBRANCH  16  17
ENDBRANCH   1  16
TORSDOF 8
ENDMDL
MODEL 2
REMARK VINA RESULT:      -5.9      0.110      1.165
REMARK  Name = 
REMARK  8 active torsions:
REMARK  status: ('A' for Active; 'I' for Inactive)
REMARK    1  A    between atoms: C_2  and  C_3
REMARK    2  A    between atoms: C_3  and  C_4
REMARK    3  A    between atoms: C_3  and  C_7
REMARK    4  A    between atoms: C_7  and  S_8
REMARK    5  A    between atoms: C_7  and  C_12
REMARK    6  A    between atoms: S_8  and  C_9
REMARK    7  A    between atoms: C_9  and  C_10
REMARK    8  A    between atoms: C_10  and  O_11
REMARK                            x       y       z     vdW  Elec       q    Type
REMARK                         _______ _______ _______ _____ _____    ______ ____
ROOT
ATOM      1  C   UNL     1       4.397   4.639  16.732  0.00  0.00    +0.000 C 
ENDROOT
BRANCH   1   2
ATOM      2  C   UNL     1       3.396   3.765  17.518  0.00  0.00    +0.000 A 
ATOM      3  C   UNL     1       3.643   2.418  17.853  0.00  0.00    +0.000 A 
ATOM      4  C   UNL     1       2.683   1.636  18.502  0.00  0.00    +0.000 A 
ATOM      5  C   UNL     1       1.464   2.191  18.867  0.00  0.00    +0.000 A 
ATOM      6  C   UNL     1       1.215   3.533  18.604  0.00  0.00    +0.000 A 
ATOM      7  C   UNL     1       2.173   4.315  17.948  0.00  0.00    +0.000 A 
ENDBRANCH   1   2
BRANCH   1   8
ATOM      8  C   UNL     1       4.925   5.894  17.481  0.00  0.00    +0.000 C 
BRANCH   8   9
ATOM      9  C   UNL     1       5.697   6.884  16.634  0.00  0.00    +0.000 C 
ATOM     10  N   UNL     1       6.873   7.381  17.108  0.00  0.00    +0.000 N 
ATOM     11  O   UNL     1       5.285   7.255  15.536  0.00  0.00    +0.000 OA
ATOM     12  H   UNL     1       7.367   6.991  17.900  0.00  0.00    +0.000 HD
ATOM     13  H   UNL     1       7.383   8.029  16.518  0.00  0.00    +0.000 HD
ENDBRANCH   8   9
BRANCH   8  15
ATOM     14  N   UNL     1       6.475   5.052  19.631  0.00  0.00    +0.000 NA
ATOM     15  C   UNL     1       5.772   5.433  18.655  0.00  0.00    +0.000 C 
ENDBRANCH   8  15
ENDBRANCH   1   8
BRANCH   1  16
ATOM     16  S   UNL     1       5.732   3.551  15.915  0.00  0.00    +0.000 S 
BRANCH  16  17
ATOM     17  C   UNL     1       5.675   4.090  14.157  0.00  0.00    +0.000 C 
BRANCH  17  18
ATOM     18  C   UNL     1       7.031   4.583  13.661  0.00  0.00    +0.000 C 
BRANCH  18  19
ATOM     19  O   UNL     1       7.697   5.321  14.683  0.00  0.00    +0.000 OA
ATOM     20  H   UNL     1       7.066   5.383  15.424  0.00  0.00    +0.000 HD
ENDBRANCH  18  19
ENDBRANCH  17  18
ENDBRANCH  16  17
ENDBRANCH   1  16
TORSDOF 8
ENDMDL
MODEL 3
REMARK VINA RESULT:      -5.9      3.389      5.769
REMARK  Name = 
REMARK  8 active torsions:
REMARK  status: ('A' for Active; 'I' for Inactive)
REMARK    1  A    between atoms: C_2  and  C_3
REMARK    2  A    between atoms: C_3  and  C_4
REMARK    3  A    between atoms: C_3  and  C_7
REMARK    4  A    between atoms: C_7  and  S_8
REMARK    5  A    between atoms: C_7  and  C_12
REMARK    6  A    between atoms: S_8  and  C_9
REMARK    7  A    between atoms: C_9  and  C_10
REMARK    8  A    between atoms: C_10  and  O_11
REMARK                            x       y       z     vdW  Elec       q    Type
REMARK                         _______ _______ _______ _____ _____    ______ ____
ROOT
ATOM      1  C   UNL     1       3.856   4.311  17.808  0.00  0.00    +0.000 C 
ENDROOT
BRANCH   1   2
ATOM      2  C   UNL     1       5.030   4.515  16.826  0.00  0.00    +0.000 A 
ATOM      3  C   UNL     1       4.874   4.512  15.424  0.00  0.00    +0.000 A 
ATOM      4  C   UNL     1       5.971   4.627  14.564  0.00  0.00    +0.000 A 
ATOM      5  C   UNL     1       7.248   4.785  15.083  0.00  0.00    +0.000 A 
ATOM      6  C   UNL     1       7.426   4.853  16.460  0.00  0.00    +0.000 A 
ATOM      7  C   UNL     1       6.330   4.731  17.321  0.00  0.00    +0.000 A 
ENDBRANCH   1   2
BRANCH   1   8
ATOM      8  C   UNL     1       3.454   2.834  18.073  0.00  0.00    +0.000 C 
BRANCH   8   9
ATOM      9  C   UNL     1       1.966   2.573  18.187  0.00  0.00    +0.000 C 
ATOM     10  N   UNL     1       1.537   1.504  18.914  0.00  0.00    +0.000 N 
ATOM     11  O   UNL     1       1.139   3.296  17.634  0.00  0.00    +0.000 OA
ATOM     12  H   UNL     1       2.131   0.982  19.545  0.00  0.00    +0.000 HD
ATOM     13  H   UNL     1       0.537   1.357  18.992  0.00  0.00    +0.000 HD
ENDBRANCH   8   9
BRANCH   8  15
ATOM     14  N   UNL     1       4.761   1.961  20.367  0.00  0.00    +0.000 NA
ATOM     15  C   UNL     1       4.168   2.356  19.326  0.00  0.00    +0.000 C 
ENDBRANCH   8  15
ENDBRANCH   1   8
BRANCH   1  16
ATOM     16  S   UNL     1       4.095   5.386  19.364  0.00  0.00    +0.000 S 
BRANCH  16  17
ATOM     17  C   UNL     1       2.365   5.777  19.855  0.00  0.00    +0.000 C 
BRANCH  17  18
ATOM     18  C   UNL     1       1.855   4.849  20.953  0.00  0.00    +0.000 C 
BRANCH  18  19
ATOM     19  O   UNL     1       0.679   4.167  20.523  0.00  0.00    +0.000 OA
ATOM     20  H   UNL     1       0.230   4.770  19.902  0.00  0.00    +0.000 HD
ENDBRANCH  18  19
ENDBRANCH  17  18
ENDBRANCH  16  17
ENDBRANCH   1  16
TORSDOF 8
ENDMDL
MODEL 4
REMARK VINA RESULT:      -5.8      3.500      6.006
REMARK  Name = 
REMARK  8 active torsions:
REMARK  status: ('A' for Active; 'I' for Inactive)
REMARK    1  A    between atoms: C_2  and  C_3
REMARK    2  A    between atoms: C_3  and  C_4
REMARK    3  A    between atoms: C_3  and  C_7
REMARK    4  A    between atoms: C_7  and  S_8
REMARK    5  A    between atoms: C_7  and  C_12
REMARK    6  A    between atoms: S_8  and  C_9
REMARK    7  A    between atoms: C_9  and  C_10
REMARK    8  A    between atoms: C_10  and  O_11
REMARK                            x       y       z     vdW  Elec       q    Type
REMARK                         _______ _______ _______ _____ _____    ______ ____
ROOT
ATOM      1  C   UNL     1       4.010   4.771  18.537  0.00  0.00    +0.000 C 
ENDROOT
BRANCH   1   2
ATOM      2  C   UNL     1       5.339   5.528  18.326  0.00  0.00    +0.000 A 
ATOM      3  C   UNL     1       6.486   5.310  19.117  0.00  0.00    +0.000 A 
ATOM      4  C   UNL     1       7.650   6.065  18.944  0.00  0.00    +0.000 A 
ATOM      5  C   UNL     1       7.710   7.034  17.952  0.00  0.00    +0.000 A 
ATOM      6  C   UNL     1       6.615   7.228  17.116  0.00  0.00    +0.000 A 
ATOM      7  C   UNL     1       5.448   6.478  17.293  0.00  0.00    +0.000 A 
ENDBRANCH   1   2
BRANCH   1   8
ATOM      8  C   UNL     1       4.050   3.248  18.233  0.00  0.00    +0.000 C 
BRANCH   8   9
ATOM      9  C   UNL     1       2.770   2.659  17.676  0.00  0.00    +0.000 C 
ATOM     10  N   UNL     1       2.305   1.487  18.188  0.00  0.00    +0.000 N 
ATOM     11  O   UNL     1       2.147   3.210  16.768  0.00  0.00    +0.000 OA
ATOM     12  H   UNL     1       2.647   1.076  19.047  0.00  0.00    +0.000 HD
ATOM     13  H   UNL     1       1.438   1.119  17.813  0.00  0.00    +0.000 HD
ENDBRANCH   8   9
BRANCH   8  15
ATOM     14  N   UNL     1       4.798   1.902  20.548  0.00  0.00    +0.000 NA
ATOM     15  C   UNL     1       4.458   2.513  19.498  0.00  0.00    +0.000 C 
ENDBRANCH   8  15
ENDBRANCH   1   8
BRANCH   1  16
ATOM     16  S   UNL     1       3.228   5.251  20.209  0.00  0.00    +0.000 S 
BRANCH  16  17
ATOM     17  C   UNL     1       1.517   4.590  20.061  0.00  0.00    +0.000 C 
BRANCH  17  18
ATOM     18  C   UNL     1       1.273   3.409  20.996  0.00  0.00    +0.000 C 
BRANCH  18  19
ATOM     19  O   UNL     1       2.249   3.387  22.035  0.00  0.00    +0.000 OA
ATOM     20  H   UNL     1       2.706   4.247  21.994  0.00  0.00    +0.000 HD
ENDBRANCH  18  19
ENDBRANCH  17  18
ENDBRANCH  16  17
ENDBRANCH   1  16
TORSDOF 8
ENDMDL
MODEL 5
REMARK VINA RESULT:      -5.8      2.903      4.310
REMARK  Name = 
REMARK  8 active torsions:
REMARK  status: ('A' for Active; 'I' for Inactive)
REMARK    1  A    between atoms: C_2  and  C_3
REMARK    2  A    between atoms: C_3  and  C_4
REMARK    3  A    between atoms: C_3  and  C_7
REMARK    4  A    between atoms: C_7  and  S_8
REMARK    5  A    between atoms: C_7  and  C_12
REMARK    6  A    between atoms: S_8  and  C_9
REMARK    7  A    between atoms: C_9  and  C_10
REMARK    8  A    between atoms: C_10  and  O_11
REMARK                            x       y       z     vdW  Elec       q    Type
REMARK                         _______ _______ _______ _____ _____    ______ ____
ROOT
ATOM      1  C   UNL     1       4.553   4.969  18.194  0.00  0.00    +0.000 C 
ENDROOT
BRANCH   1   2
ATOM      2  C   UNL     1       3.638   6.177  18.490  0.00  0.00    +0.000 A 
ATOM      3  C   UNL     1       2.877   6.299  19.671  0.00  0.00    +0.000 A 
ATOM      4  C   UNL     1       2.003   7.371  19.873  0.00  0.00    +0.000 A 
ATOM      5  C   UNL     1       1.893   8.370  18.915  0.00  0.00    +0.000 A 
ATOM      6  C   UNL     1       2.676   8.308  17.768  0.00  0.00    +0.000 A 
ATOM      7  C   UNL     1       3.546   7.232  17.562  0.00  0.00    +0.000 A 
ENDBRANCH   1   2
BRANCH   1   8
ATOM      8  C   UNL     1       6.004   5.318  17.760  0.00  0.00    +0.000 C 
BRANCH   8   9
ATOM      9  C   UNL     1       6.630   4.373  16.755  0.00  0.00    +0.000 C 
ATOM     10  N   UNL     1       5.850   3.427  16.165  0.00  0.00    +0.000 N 
ATOM     11  O   UNL     1       7.824   4.436  16.467  0.00  0.00    +0.000 OA
ATOM     12  H   UNL     1       4.839   3.431  16.202  0.00  0.00    +0.000 HD
ATOM     13  H   UNL     1       6.285   2.816  15.482  0.00  0.00    +0.000 HD
ENDBRANCH   8   9
BRANCH   8  15
ATOM     14  N   UNL     1       7.590   5.489  20.037  0.00  0.00    +0.000 NA
ATOM     15  C   UNL     1       6.870   5.411  19.005  0.00  0.00    +0.000 C 
ENDBRANCH   8  15
ENDBRANCH   1   8
BRANCH   1  16
ATOM     16  S   UNL     1       4.403   3.665  19.577  0.00  0.00    +0.000 S 
BRANCH  16  17
ATOM     17  C   UNL     1       2.850   2.783  19.135  0.00  0.00    +0.000 C 
BRANCH  17  18
ATOM     18  C   UNL     1       2.963   2.052  17.800  0.00  0.00    +0.000 C 
BRANCH  18  19
ATOM     19  O   UNL     1       4.170   1.294  17.748  0.00  0.00    +0.000 OA
ATOM     20  H   UNL     1       4.153   0.707  18.526  0.00  0.00    +0.000 HD
ENDBRANCH  18  19
ENDBRANCH  17  18
ENDBRANCH  16  17
ENDBRANCH   1  16
TORSDOF 8
ENDMDL
MODEL 6
REMARK VINA RESULT:      -5.7      2.833      4.231
REMARK  Name = 
REMARK  8 active torsions:
REMARK  status: ('A' for Active; 'I' for Inactive)
REMARK    1  A    between atoms: C_2  and  C_3
REMARK    2  A    between atoms: C_3  and  C_4
REMARK    3  A    between atoms: C_3  and  C_7
REMARK    4  A    between atoms: C_7  and  S_8
REMARK    5  A    between atoms: C_7  and  C_12
REMARK    6  A    between atoms: S_8  and  C_9
REMARK    7  A    between atoms: C_9  and  C_10
REMARK    8  A    between atoms: C_10  and  O_11
REMARK                            x       y       z     vdW  Elec       q    Type
REMARK                         _______ _______ _______ _____ _____    ______ ____
ROOT
ATOM      1  C   UNL     1       4.162   5.762  18.496  0.00  0.00    +0.000 C 
ENDROOT
BRANCH   1   2
ATOM      2  C   UNL     1       2.988   4.888  18.987  0.00  0.00    +0.000 A 
ATOM      3  C   UNL     1       2.180   4.123  18.121  0.00  0.00    +0.000 A 
ATOM      4  C   UNL     1       1.080   3.400  18.593  0.00  0.00    +0.000 A 
ATOM      5  C   UNL     1       0.781   3.393  19.948  0.00  0.00    +0.000 A 
ATOM      6  C   UNL     1       1.596   4.089  20.834  0.00  0.00    +0.000 A 
ATOM      7  C   UNL     1       2.693   4.818  20.362  0.00  0.00    +0.000 A 
ENDBRANCH   1   2
BRANCH   1   8
ATOM      8  C   UNL     1       5.321   4.999  17.797  0.00  0.00    +0.000 C 
BRANCH   8   9
ATOM      9  C   UNL     1       6.619   4.927  18.574  0.00  0.00    +0.000 C 
ATOM     10  N   UNL     1       7.710   4.365  17.986  0.00  0.00    +0.000 N 
ATOM     11  O   UNL     1       6.707   5.355  19.725  0.00  0.00    +0.000 OA
ATOM     12  H   UNL     1       7.773   4.167  16.996  0.00  0.00    +0.000 HD
ATOM     13  H   UNL     1       8.574   4.343  18.517  0.00  0.00    +0.000 HD
ENDBRANCH   8   9
BRANCH   8  15
ATOM     14  N   UNL     1       5.756   6.148  15.302  0.00  0.00    +0.000 NA
ATOM     15  C   UNL     1       5.559   5.626  16.434  0.00  0.00    +0.000 C 
ENDBRANCH   8  15
ENDBRANCH   1   8
BRANCH   1  16
ATOM     16  S   UNL     1       3.509   7.291  17.563  0.00  0.00    +0.000 S 
BRANCH  16  17
ATOM     17  C   UNL     1       2.259   7.973  18.728  0.00  0.00    +0.000 C 
BRANCH  17  18
ATOM     18  C   UNL     1       1.328   8.976  18.052  0.00  0.00    +0.000 C 
BRANCH  18  19
ATOM     19  O   UNL     1       2.083   9.984  17.384  0.00  0.00    +0.000 OA
ATOM     20  H   UNL     1       1.434  10.634  17.059  0.00  0.00    +0.000 HD
ENDBRANCH  18  19
ENDBRANCH  17  18
ENDBRANCH  16  17
ENDBRANCH   1  16
TORSDOF 8
ENDMDL
MODEL 7
REMARK VINA RESULT:      -5.7      2.768      4.315
REMARK  Name = 
REMARK  8 active torsions:
REMARK  status: ('A' for Active; 'I' for Inactive)
REMARK    1  A    between atoms: C_2  and  C_3
REMARK    2  A    between atoms: C_3  and  C_4
REMARK    3  A    between atoms: C_3  and  C_7
REMARK    4  A    between atoms: C_7  and  S_8
REMARK    5  A    between atoms: C_7  and  C_12
REMARK    6  A    between atoms: S_8  and  C_9
REMARK    7  A    between atoms: C_9  and  C_10
REMARK    8  A    between atoms: C_10  and  O_11
REMARK                            x       y       z     vdW  Elec       q    Type
REMARK                         _______ _______ _______ _____ _____    ______ ____
ROOT
ATOM      1  C   UNL     1       4.528   5.324  17.862  0.00  0.00    +0.000 C 
ENDROOT
BRANCH   1   2
ATOM      2  C   UNL     1       3.565   6.432  18.339  0.00  0.00    +0.000 A 
ATOM      3  C   UNL     1       2.890   6.389  19.577  0.00  0.00    +0.000 A 
ATOM      4  C   UNL     1       1.970   7.375  19.945  0.00  0.00    +0.000 A 
ATOM      5  C   UNL     1       1.725   8.449  19.101  0.00  0.00    +0.000 A 
ATOM      6  C   UNL     1       2.420   8.550  17.901  0.00  0.00    +0.000 A 
ATOM      7  C   UNL     1       3.337   7.561  17.529  0.00  0.00    +0.000 A 
ENDBRANCH   1   2
BRANCH   1   8
ATOM      8  C   UNL     1       5.994   5.773  17.612  0.00  0.00    +0.000 C 
BRANCH   8   9
ATOM      9  C   UNL     1       6.688   5.113  16.438  0.00  0.00    +0.000 C 
ATOM     10  N   UNL     1       6.371   3.827  16.122  0.00  0.00    +0.000 N 
ATOM     11  O   UNL     1       7.535   5.706  15.771  0.00  0.00    +0.000 OA
ATOM     12  H   UNL     1       5.564   3.342  16.493  0.00  0.00    +0.000 HD
ATOM     13  H   UNL     1       6.834   3.410  15.322  0.00  0.00    +0.000 HD
ENDBRANCH   8   9
BRANCH   8  15
ATOM     14  N   UNL     1       7.453   5.366  19.944  0.00  0.00    +0.000 NA
ATOM     15  C   UNL     1       6.791   5.550  18.886  0.00  0.00    +0.000 C 
ENDBRANCH   8  15
ENDBRANCH   1   8
BRANCH   1  16
ATOM     16  S   UNL     1       4.322   3.757  18.928  0.00  0.00    +0.000 S 
BRANCH  16  17
ATOM     17  C   UNL     1       3.159   2.738  17.930  0.00  0.00    +0.000 C 
BRANCH  17  18
ATOM     18  C   UNL     1       1.700   3.037  18.263  0.00  0.00    +0.000 C 
BRANCH  18  19
ATOM     19  O   UNL     1       1.176   4.016  17.369  0.00  0.00    +0.000 OA
ATOM     20  H   UNL     1       1.716   3.957  16.559  0.00  0.00    +0.000 HD
ENDBRANCH  18  19
ENDBRANCH  17  18
ENDBRANCH  16  17
ENDBRANCH   1  16
TORSDOF 8
ENDMDL
MODEL 8
REMARK VINA RESULT:      -5.7      3.399      4.709
REMARK  Name = 
REMARK  8 active torsions:
REMARK  status: ('A' for Active; 'I' for Inactive)
REMARK    1  A    between atoms: C_2  and  C_3
REMARK    2  A    between atoms: C_3  and  C_4
REMARK    3  A    between atoms: C_3  and  C_7
REMARK    4  A    between atoms: C_7  and  S_8
REMARK    5  A    between atoms: C_7  and  C_12
REMARK    6  A    between atoms: S_8  and  C_9
REMARK    7  A    between atoms: C_9  and  C_10
REMARK    8  A    between atoms: C_10  and  O_11
REMARK                            x       y       z     vdW  Elec       q    Type
REMARK                         _______ _______ _______ _____ _____    ______ ____
ROOT
ATOM      1  C   UNL     1       4.070   4.400  18.619  0.00  0.00    +0.000 C 
ENDROOT
BRANCH   1   2
ATOM      2  C   UNL     1       3.337   5.753  18.746  0.00  0.00    +0.000 A 
ATOM      3  C   UNL     1       3.352   6.737  17.736  0.00  0.00    +0.000 A 
ATOM      4  C   UNL     1       2.738   7.980  17.914  0.00  0.00    +0.000 A 
ATOM      5  C   UNL     1       2.062   8.260  19.093  0.00  0.00    +0.000 A 
ATOM      6  C   UNL     1       1.979   7.286  20.083  0.00  0.00    +0.000 A 
ATOM      7  C   UNL     1       2.599   6.045  19.908  0.00  0.00    +0.000 A 
ENDBRANCH   1   2
BRANCH   1   8
ATOM      8  C   UNL     1       3.442   3.221  19.413  0.00  0.00    +0.000 C 
BRANCH   8   9
ATOM      9  C   UNL     1       4.319   1.995  19.566  0.00  0.00    +0.000 C 
ATOM     10  N   UNL     1       4.172   0.965  18.689  0.00  0.00    +0.000 N 
ATOM     11  O   UNL     1       5.153   1.906  20.467  0.00  0.00    +0.000 OA
ATOM     12  H   UNL     1       3.653   1.036  17.823  0.00  0.00    +0.000 HD
ATOM     13  H   UNL     1       4.781   0.161  18.799  0.00  0.00    +0.000 HD
ENDBRANCH   8   9
BRANCH   8  15
ATOM     14  N   UNL     1       1.031   2.534  18.209  0.00  0.00    +0.000 NA
ATOM     15  C   UNL     1       2.124   2.845  18.756  0.00  0.00    +0.000 C 
ENDBRANCH   8  15
ENDBRANCH   1   8
BRANCH   1  16
ATOM     16  S   UNL     1       4.480   4.032  16.794  0.00  0.00    +0.000 S 
BRANCH  16  17
ATOM     17  C   UNL     1       6.173   4.731  16.611  0.00  0.00    +0.000 C 
BRANCH  17  18
ATOM     18  C   UNL     1       6.964   4.673  17.914  0.00  0.00    +0.000 C 
BRANCH  18  19
ATOM     19  O   UNL     1       8.231   4.055  17.701  0.00  0.00    +0.000 OA
ATOM     20  H   UNL     1       8.135   3.134  18.004  0.00  0.00    +0.000 HD
ENDBRANCH  18  19
ENDBRANCH  17  18
ENDBRANCH  16  17
ENDBRANCH   1  16
TORSDOF 8
ENDMDL
MODEL 9
REMARK VINA RESULT:      -5.6      2.974      4.372
REMARK  Name = 
REMARK  8 active torsions:
REMARK  status: ('A' for Active; 'I' for Inactive)
REMARK    1  A    between atoms: C_2  and  C_3
REMARK    2  A    between atoms: C_3  and  C_4
REMARK    3  A    between atoms: C_3  and  C_7
REMARK    4  A    between atoms: C_7  and  S_8
REMARK    5  A    between atoms: C_7  and  C_12
REMARK    6  A    between atoms: S_8  and  C_9
REMARK    7  A    between atoms: C_9  and  C_10
REMARK    8  A    between atoms: C_10  and  O_11
REMARK                            x       y       z     vdW  Elec       q    Type
REMARK                         _______ _______ _______ _____ _____    ______ ____
ROOT
ATOM      1  C   UNL     1       4.448   5.458  17.577  0.00  0.00    +0.000 C 
ENDROOT
BRANCH   1   2
ATOM      2  C   UNL     1       3.467   6.491  18.173  0.00  0.00    +0.000 A 
ATOM      3  C   UNL     1       3.061   7.655  17.488  0.00  0.00    +0.000 A 
ATOM      4  C   UNL     1       2.228   8.605  18.087  0.00  0.00    +0.000 A 
ATOM      5  C   UNL     1       1.749   8.399  19.372  0.00  0.00    +0.000 A 
ATOM      6  C   UNL     1       2.082   7.230  20.049  0.00  0.00    +0.000 A 
ATOM      7  C   UNL     1       2.921   6.283  19.454  0.00  0.00    +0.000 A 
ENDBRANCH   1   2
BRANCH   1   8
ATOM      8  C   UNL     1       5.930   5.916  17.486  0.00  0.00    +0.000 C 
BRANCH   8   9
ATOM      9  C   UNL     1       6.724   5.334  16.335  0.00  0.00    +0.000 C 
ATOM     10  N   UNL     1       7.757   4.489  16.607  0.00  0.00    +0.000 N 
ATOM     11  O   UNL     1       6.465   5.612  15.165  0.00  0.00    +0.000 OA
ATOM     12  H   UNL     1       7.912   4.068  17.514  0.00  0.00    +0.000 HD
ATOM     13  H   UNL     1       8.264   4.097  15.822  0.00  0.00    +0.000 HD
ENDBRANCH   8   9
BRANCH   8  15
ATOM     14  N   UNL     1       7.180   5.346  19.904  0.00  0.00    +0.000 NA
ATOM     15  C   UNL     1       6.614   5.606  18.807  0.00  0.00    +0.000 C 
ENDBRANCH   8  15
ENDBRANCH   1   8
BRANCH   1  16
ATOM     16  S   UNL     1       4.169   3.743  18.363  0.00  0.00    +0.000 S 
BRANCH  16  17
ATOM     17  C   UNL     1       2.539   3.241  17.672  0.00  0.00    +0.000 C 
BRANCH  17  18
ATOM     18  C   UNL     1       1.833   2.213  18.551  0.00  0.00    +0.000 C 
BRANCH  18  19
ATOM     19  O   UNL     1       0.418   2.357  18.447  0.00  0.00    +0.000 OA
ATOM     20  H   UNL     1       0.089   2.445  19.360  0.00  0.00    +0.000 HD
ENDBRANCH  18  19
ENDBRANCH  17  18
ENDBRANCH  16  17
ENDBRANCH   1  16
TORSDOF 8
ENDMDL
