MODEL 1
REMARK VINA RESULT:      -6.9      0.000      0.000
REMARK  Name = 
REMARK  12 active torsions:
REMARK  status: ('A' for Active; 'I' for Inactive)
REMARK    1  A    between atoms: C_1  and  C_2
REMARK    2  A    between atoms: C_2  and  N_3
REMARK    3  A    between atoms: C_4  and  C_6
REMARK    4  A    between atoms: C_8  and  N_9
REMARK    5  A    between atoms: N_14  and  C_15
REMARK    6  A    between atoms: C_15  and  C_16
REMARK    7  A    between atoms: C_18  and  C_19
REMARK    8  A    between atoms: C_20  and  C_21
REMARK    9  A    between atoms: C_21  and  C_22
REMARK   10  A    between atoms: C_21  and  O_23
REMARK   11  A    between atoms: C_26  and  O_27
REMARK   12  A    between atoms: C_28  and  O_29
REMARK                            x       y       z     vdW  Elec       q    Type
REMARK                         _______ _______ _______ _____ _____    ______ ____
ROOT
ATOM      1  N   UNL     1       1.864   7.983  19.920  0.00  0.00    +0.000 N 
ATOM      2  C   UNL     1       1.179   7.426  20.971  0.00  0.00    +0.000 A 
ATOM      3  N   UNL     1       1.342   6.125  21.030  0.00  0.00    +0.000 NA
ATOM      4  C   UNL     1       2.182   5.830  19.977  0.00  0.00    +0.000 A 
ATOM      5  C   UNL     1       2.709   4.604  19.531  0.00  0.00    +0.000 A 
ATOM      6  N   UNL     1       2.326   3.408  20.145  0.00  0.00    +0.000 N 
ATOM      7  N   UNL     1       3.561   4.626  18.475  0.00  0.00    +0.000 NA
ATOM      8  C   UNL     1       3.816   5.820  17.887  0.00  0.00    +0.000 A 
ATOM      9  N   UNL     1       3.338   7.048  18.204  0.00  0.00    +0.000 NA
ATOM     10  C   UNL     1       2.530   6.978  19.278  0.00  0.00    +0.000 A 
ATOM     11  H   UNL     1       1.861   3.613  21.030  0.00  0.00    +0.000 HD
ENDROOT
BRANCH   1  14
ATOM     12  C   UNL     1       0.589  11.286  20.077  0.00  0.00    +0.000 C 
ATOM     13  O   UNL     1       1.175  10.107  20.648  0.00  0.00    +0.000 OA
ATOM     14  C   UNL     1       1.826   9.393  19.590  0.00  0.00    +0.000 C 
ATOM     15  C   UNL     1       1.110   9.741  18.295  0.00  0.00    +0.000 C 
ATOM     16  C   UNL     1       0.690  11.184  18.552  0.00  0.00    +0.000 C 
BRANCH  12  18
ATOM     17  N   UNL     1      -1.665  12.105  19.579  0.00  0.00    +0.000 N 
ATOM     18  C   UNL     1      -0.858  11.502  20.516  0.00  0.00    +0.000 C 
ATOM     19  O   UNL     1      -1.235  11.200  21.645  0.00  0.00    +0.000 OA
ATOM     20  H   UNL     1      -1.318  12.182  18.623  0.00  0.00    +0.000 HD
BRANCH  17  22
ATOM     21  C   UNL     1      -3.909  11.775  18.650  0.00  0.00    +0.000 C 
ATOM     22  C   UNL     1      -3.079  12.286  19.815  0.00  0.00    +0.000 C 
ENDBRANCH  17  22
ENDBRANCH  12  18
BRANCH  15  23
ATOM     23  O   UNL     1       1.979   9.642  17.164  0.00  0.00    +0.000 OA
ATOM     24  H   UNL     1       1.956  10.524  16.730  0.00  0.00    +0.000 HD
ENDBRANCH  15  23
BRANCH  16  25
ATOM     25  O   UNL     1       1.709  12.038  17.990  0.00  0.00    +0.000 OA
ATOM     26  H   UNL     1       1.457  12.972  18.093  0.00  0.00    +0.000 HD
ENDBRANCH  16  25
ENDBRANCH   1  14
BRANCH   6  27
ATOM     27  C   UNL     1       3.320   2.355  20.188  0.00  0.00    +0.000 C 
ATOM     28  C   UNL     1       3.231   1.538  18.907  0.00  0.00    +0.000 C 
ENDBRANCH   6  27
BRANCH   8  29
ATOM     29  C   UNL     1       4.654   5.766  16.728  0.00  0.00    +0.000 C 
ATOM     30  C   UNL     1       5.387   5.658  15.777  0.00  0.00    +0.000 C 
BRANCH  30  31
ATOM     31  C   UNL     1       6.295   5.398  14.657  0.00  0.00    +0.000 C 
ATOM     32  C   UNL     1       6.051   4.028  14.040  0.00  0.00    +0.000 C 
BRANCH  31  33
ATOM     33  O   UNL     1       7.651   5.492  15.081  0.00  0.00    +0.000 OA
ATOM     34  H   UNL     1       7.867   6.436  15.161  0.00  0.00    +0.000 HD
ENDBRANCH  31  33
ENDBRANCH  30  31
ENDBRANCH   8  29
TORSDOF 9
ENDMDL
MODEL 2
REMARK VINA RESULT:      -6.8      1.164      1.352
REMARK  Name = 
REMARK  12 active torsions:
REMARK  status: ('A' for Active; 'I' for Inactive)
REMARK    1  A    between atoms: C_1  and  C_2
REMARK    2  A    between atoms: C_2  and  N_3
REMARK    3  A    between atoms: C_4  and  C_6
REMARK    4  A    between atoms: C_8  and  N_9
REMARK    5  A    between atoms: N_14  and  C_15
REMARK    6  A    between atoms: C_15  and  C_16
REMARK    7  A    between atoms: C_18  and  C_19
REMARK    8  A    between atoms: C_20  and  C_21
REMARK    9  A    between atoms: C_21  and  C_22
REMARK   10  A    between atoms: C_21  and  O_23
REMARK   11  A    between atoms: C_26  and  O_27
REMARK   12  A    between atoms: C_28  and  O_29
REMARK                            x       y       z     vdW  Elec       q    Type
REMARK                         _______ _______ _______ _____ _____    ______ ____
ROOT
ATOM      1  N   UNL     1       2.025   7.667  19.865  0.00  0.00    +0.000 N 
ATOM      2  C   UNL     1       1.363   7.102  20.927  0.00  0.00    +0.000 A 
ATOM      3  N   UNL     1       1.514   5.799  20.965  0.00  0.00    +0.000 NA
ATOM      4  C   UNL     1       2.321   5.510  19.885  0.00  0.00    +0.000 A 
ATOM      5  C   UNL     1       2.823   4.284  19.408  0.00  0.00    +0.000 A 
ATOM      6  N   UNL     1       2.444   3.084  20.016  0.00  0.00    +0.000 N 
ATOM      7  N   UNL     1       3.645   4.313  18.328  0.00  0.00    +0.000 NA
ATOM      8  C   UNL     1       3.896   5.512  17.749  0.00  0.00    +0.000 A 
ATOM      9  N   UNL     1       3.440   6.740  18.096  0.00  0.00    +0.000 NA
ATOM     10  C   UNL     1       2.661   6.664  19.191  0.00  0.00    +0.000 A 
ATOM     11  H   UNL     1       2.007   3.282  20.917  0.00  0.00    +0.000 HD
ENDROOT
BRANCH   1  14
ATOM     12  C   UNL     1       0.874  11.002  20.195  0.00  0.00    +0.000 C 
ATOM     13  O   UNL     1       1.484   9.800  20.687  0.00  0.00    +0.000 OA
ATOM     14  C   UNL     1       1.992   9.081  19.556  0.00  0.00    +0.000 C 
ATOM     15  C   UNL     1       1.148   9.466  18.351  0.00  0.00    +0.000 C 
ATOM     16  C   UNL     1       0.801  10.917  18.668  0.00  0.00    +0.000 C 
BRANCH  12  18
ATOM     17  N   UNL     1      -0.540  11.327  22.169  0.00  0.00    +0.000 N 
ATOM     18  C   UNL     1      -0.509  11.254  20.795  0.00  0.00    +0.000 C 
ATOM     19  O   UNL     1      -1.509  11.329  20.087  0.00  0.00    +0.000 OA
ATOM     20  H   UNL     1       0.347  11.408  22.667  0.00  0.00    +0.000 HD
BRANCH  17  22
ATOM     21  C   UNL     1      -1.809  13.130  23.238  0.00  0.00    +0.000 C 
ATOM     22  C   UNL     1      -1.758  11.658  22.872  0.00  0.00    +0.000 C 
ENDBRANCH  17  22
ENDBRANCH  12  18
BRANCH  15  23
ATOM     23  O   UNL     1       1.882   9.357  17.130  0.00  0.00    +0.000 OA
ATOM     24  H   UNL     1       1.717  10.195  16.642  0.00  0.00    +0.000 HD
ENDBRANCH  15  23
BRANCH  16  25
ATOM     25  O   UNL     1       1.777  11.749  18.004  0.00  0.00    +0.000 OA
ATOM     26  H   UNL     1       2.573  11.838  18.558  0.00  0.00    +0.000 HD
ENDBRANCH  16  25
ENDBRANCH   1  14
BRANCH   6  27
ATOM     27  C   UNL     1       3.429   2.021  20.017  0.00  0.00    +0.000 C 
ATOM     28  C   UNL     1       3.490   1.403  18.627  0.00  0.00    +0.000 C 
ENDBRANCH   6  27
BRANCH   8  29
ATOM     29  C   UNL     1       4.700   5.465  16.567  0.00  0.00    +0.000 C 
ATOM     30  C   UNL     1       5.437   5.436  15.613  0.00  0.00    +0.000 C 
BRANCH  30  31
ATOM     31  C   UNL     1       6.433   5.385  14.540  0.00  0.00    +0.000 C 
ATOM     32  C   UNL     1       6.321   4.101  13.729  0.00  0.00    +0.000 C 
BRANCH  31  33
ATOM     33  O   UNL     1       7.748   5.495  15.073  0.00  0.00    +0.000 OA
ATOM     34  H   UNL     1       8.358   5.097  14.429  0.00  0.00    +0.000 HD
ENDBRANCH  31  33
ENDBRANCH  30  31
ENDBRANCH   8  29
TORSDOF 9
ENDMDL
MODEL 3
REMARK VINA RESULT:      -6.8      1.795      2.069
REMARK  Name = 
REMARK  12 active torsions:
REMARK  status: ('A' for Active; 'I' for Inactive)
REMARK    1  A    between atoms: C_1  and  C_2
REMARK    2  A    between atoms: C_2  and  N_3
REMARK    3  A    between atoms: C_4  and  C_6
REMARK    4  A    between atoms: C_8  and  N_9
REMARK    5  A    between atoms: N_14  and  C_15
REMARK    6  A    between atoms: C_15  and  C_16
REMARK    7  A    between atoms: C_18  and  C_19
REMARK    8  A    between atoms: C_20  and  C_21
REMARK    9  A    between atoms: C_21  and  C_22
REMARK   10  A    between atoms: C_21  and  O_23
REMARK   11  A    between atoms: C_26  and  O_27
REMARK   12  A    between atoms: C_28  and  O_29
REMARK                            x       y       z     vdW  Elec       q    Type
REMARK                         _______ _______ _______ _____ _____    ______ ____
ROOT
ATOM      1  N   UNL     1       1.150   9.130  20.081  0.00  0.00    +0.000 N 
ATOM      2  C   UNL     1       0.394   8.709  21.147  0.00  0.00    +0.000 A 
ATOM      3  N   UNL     1       0.543   7.426  21.381  0.00  0.00    +0.000 NA
ATOM      4  C   UNL     1       1.447   7.001  20.430  0.00  0.00    +0.000 A 
ATOM      5  C   UNL     1       1.994   5.729  20.178  0.00  0.00    +0.000 A 
ATOM      6  N   UNL     1       1.563   4.620  20.912  0.00  0.00    +0.000 N 
ATOM      7  N   UNL     1       2.912   5.618  19.185  0.00  0.00    +0.000 NA
ATOM      8  C   UNL     1       3.213   6.729  18.469  0.00  0.00    +0.000 A 
ATOM      9  N   UNL     1       2.725   7.986  18.596  0.00  0.00    +0.000 NA
ATOM     10  C   UNL     1       1.848   8.052  19.616  0.00  0.00    +0.000 A 
ATOM     11  H   UNL     1       1.044   4.935  21.732  0.00  0.00    +0.000 HD
ENDROOT
BRANCH   1  14
ATOM     12  C   UNL     1       0.968  12.658  20.348  0.00  0.00    +0.000 C 
ATOM     13  O   UNL     1       1.563  11.380  20.612  0.00  0.00    +0.000 OA
ATOM     14  C   UNL     1       1.143  10.486  19.574  0.00  0.00    +0.000 C 
ATOM     15  C   UNL     1      -0.198  10.983  19.057  0.00  0.00    +0.000 C 
ATOM     16  C   UNL     1      -0.051  12.492  19.217  0.00  0.00    +0.000 C 
BRANCH  12  18
ATOM     17  N   UNL     1      -0.937  12.794  21.881  0.00  0.00    +0.000 N 
ATOM     18  C   UNL     1       0.317  13.276  21.585  0.00  0.00    +0.000 C 
ATOM     19  O   UNL     1       0.869  14.172  22.218  0.00  0.00    +0.000 OA
ATOM     20  H   UNL     1      -1.255  11.951  21.402  0.00  0.00    +0.000 HD
BRANCH  17  22
ATOM     21  C   UNL     1      -2.881  12.378  23.315  0.00  0.00    +0.000 C 
ATOM     22  C   UNL     1      -1.636  13.213  23.076  0.00  0.00    +0.000 C 
ENDBRANCH  17  22
ENDBRANCH  12  18
BRANCH  15  23
ATOM     23  O   UNL     1      -0.410  10.618  17.691  0.00  0.00    +0.000 OA
ATOM     24  H   UNL     1      -0.648  11.451  17.226  0.00  0.00    +0.000 HD
ENDBRANCH  15  23
BRANCH  16  25
ATOM     25  O   UNL     1       0.411  13.017  17.954  0.00  0.00    +0.000 OA
ATOM     26  H   UNL     1      -0.339  13.381  17.449  0.00  0.00    +0.000 HD
ENDBRANCH  16  25
ENDBRANCH   1  14
BRANCH   6  27
ATOM     27  C   UNL     1       2.545   3.582  21.152  0.00  0.00    +0.000 C 
ATOM     28  C   UNL     1       1.863   2.403  21.833  0.00  0.00    +0.000 C 
ENDBRANCH   6  27
BRANCH   8  29
ATOM     29  C   UNL     1       4.124   6.529  17.383  0.00  0.00    +0.000 C 
ATOM     30  C   UNL     1       4.883   6.290  16.478  0.00  0.00    +0.000 C 
BRANCH  30  31
ATOM     31  C   UNL     1       5.762   5.873  15.382  0.00  0.00    +0.000 C 
ATOM     32  C   UNL     1       5.471   4.445  14.940  0.00  0.00    +0.000 C 
BRANCH  31  33
ATOM     33  O   UNL     1       7.128   5.980  15.768  0.00  0.00    +0.000 OA
ATOM     34  H   UNL     1       7.621   5.293  15.289  0.00  0.00    +0.000 HD
ENDBRANCH  31  33
ENDBRANCH  30  31
ENDBRANCH   8  29
TORSDOF 9
ENDMDL
MODEL 4
REMARK VINA RESULT:      -6.7      1.412      1.597
REMARK  Name = 
REMARK  12 active torsions:
REMARK  status: ('A' for Active; 'I' for Inactive)
REMARK    1  A    between atoms: C_1  and  C_2
REMARK    2  A    between atoms: C_2  and  N_3
REMARK    3  A    between atoms: C_4  and  C_6
REMARK    4  A    between atoms: C_8  and  N_9
REMARK    5  A    between atoms: N_14  and  C_15
REMARK    6  A    between atoms: C_15  and  C_16
REMARK    7  A    between atoms: C_18  and  C_19
REMARK    8  A    between atoms: C_20  and  C_21
REMARK    9  A    between atoms: C_21  and  C_22
REMARK   10  A    between atoms: C_21  and  O_23
REMARK   11  A    between atoms: C_26  and  O_27
REMARK   12  A    between atoms: C_28  and  O_29
REMARK                            x       y       z     vdW  Elec       q    Type
REMARK                         _______ _______ _______ _____ _____    ______ ____
ROOT
ATOM      1  N   UNL     1       1.294   8.865  20.277  0.00  0.00    +0.000 N 
ATOM      2  C   UNL     1       0.563   8.411  21.346  0.00  0.00    +0.000 A 
ATOM      3  N   UNL     1       0.691   7.116  21.517  0.00  0.00    +0.000 NA
ATOM      4  C   UNL     1       1.556   6.717  20.521  0.00  0.00    +0.000 A 
ATOM      5  C   UNL     1       2.067   5.446  20.195  0.00  0.00    +0.000 A 
ATOM      6  N   UNL     1       1.634   4.314  20.891  0.00  0.00    +0.000 N 
ATOM      7  N   UNL     1       2.952   5.362  19.169  0.00  0.00    +0.000 NA
ATOM      8  C   UNL     1       3.254   6.498  18.494  0.00  0.00    +0.000 A 
ATOM      9  N   UNL     1       2.798   7.758  18.693  0.00  0.00    +0.000 NA
ATOM     10  C   UNL     1       1.954   7.795  19.742  0.00  0.00    +0.000 A 
ATOM     11  H   UNL     1       1.147   4.602  21.741  0.00  0.00    +0.000 HD
ENDROOT
BRANCH   1  14
ATOM     12  C   UNL     1       0.054  12.176  20.059  0.00  0.00    +0.000 C 
ATOM     13  O   UNL     1       0.575  11.045  20.771  0.00  0.00    +0.000 OA
ATOM     14  C   UNL     1       1.301  10.243  19.832  0.00  0.00    +0.000 C 
ATOM     15  C   UNL     1       0.700  10.488  18.458  0.00  0.00    +0.000 C 
ATOM     16  C   UNL     1       0.278  11.949  18.561  0.00  0.00    +0.000 C 
BRANCH  12  18
ATOM     17  N   UNL     1      -1.760  12.393  21.691  0.00  0.00    +0.000 N 
ATOM     18  C   UNL     1      -1.422  12.437  20.358  0.00  0.00    +0.000 C 
ATOM     19  O   UNL     1      -2.234  12.618  19.455  0.00  0.00    +0.000 OA
ATOM     20  H   UNL     1      -1.007  12.391  22.379  0.00  0.00    +0.000 HD
BRANCH  17  22
ATOM     21  C   UNL     1      -3.301  12.361  23.596  0.00  0.00    +0.000 C 
ATOM     22  C   UNL     1      -3.097  12.716  22.134  0.00  0.00    +0.000 C 
ENDBRANCH  17  22
ENDBRANCH  12  18
BRANCH  15  23
ATOM     23  O   UNL     1       1.657  10.291  17.414  0.00  0.00    +0.000 OA
ATOM     24  H   UNL     1       2.511  10.105  17.866  0.00  0.00    +0.000 HD
ENDBRANCH  15  23
BRANCH  16  25
ATOM     25  O   UNL     1       1.352  12.748  18.018  0.00  0.00    +0.000 OA
ATOM     26  H   UNL     1       1.312  12.744  17.045  0.00  0.00    +0.000 HD
ENDBRANCH  16  25
ENDBRANCH   1  14
BRANCH   6  27
ATOM     27  C   UNL     1       2.600   3.246  21.053  0.00  0.00    +0.000 C 
ATOM     28  C   UNL     1       2.302   2.151  20.039  0.00  0.00    +0.000 C 
ENDBRANCH   6  27
BRANCH   8  29
ATOM     29  C   UNL     1       4.127   6.329  17.373  0.00  0.00    +0.000 C 
ATOM     30  C   UNL     1       4.886   6.126  16.458  0.00  0.00    +0.000 C 
BRANCH  30  31
ATOM     31  C   UNL     1       5.819   5.753  15.392  0.00  0.00    +0.000 C 
ATOM     32  C   UNL     1       5.580   4.331  14.906  0.00  0.00    +0.000 C 
BRANCH  31  33
ATOM     33  O   UNL     1       7.165   5.881  15.840  0.00  0.00    +0.000 OA
ATOM     34  H   UNL     1       7.226   6.707  16.348  0.00  0.00    +0.000 HD
ENDBRANCH  31  33
ENDBRANCH  30  31
ENDBRANCH   8  29
TORSDOF 9
ENDMDL
MODEL 5
REMARK VINA RESULT:      -6.7      1.107      1.208
REMARK  Name = 
REMARK  12 active torsions:
REMARK  status: ('A' for Active; 'I' for Inactive)
REMARK    1  A    between atoms: C_1  and  C_2
REMARK    2  A    between atoms: C_2  and  N_3
REMARK    3  A    between atoms: C_4  and  C_6
REMARK    4  A    between atoms: C_8  and  N_9
REMARK    5  A    between atoms: N_14  and  C_15
REMARK    6  A    between atoms: C_15  and  C_16
REMARK    7  A    between atoms: C_18  and  C_19
REMARK    8  A    between atoms: C_20  and  C_21
REMARK    9  A    between atoms: C_21  and  C_22
REMARK   10  A    between atoms: C_21  and  O_23
REMARK   11  A    between atoms: C_26  and  O_27
REMARK   12  A    between atoms: C_28  and  O_29
REMARK                            x       y       z     vdW  Elec       q    Type
REMARK                         _______ _______ _______ _____ _____    ______ ____
ROOT
ATOM      1  N   UNL     1       2.197   7.144  19.531  0.00  0.00    +0.000 N 
ATOM      2  C   UNL     1       1.479   6.520  20.520  0.00  0.00    +0.000 A 
ATOM      3  N   UNL     1       1.627   5.217  20.489  0.00  0.00    +0.000 NA
ATOM      4  C   UNL     1       2.491   4.989  19.438  0.00  0.00    +0.000 A 
ATOM      5  C   UNL     1       3.017   3.791  18.918  0.00  0.00    +0.000 A 
ATOM      6  N   UNL     1       2.604   2.559  19.433  0.00  0.00    +0.000 N 
ATOM      7  N   UNL     1       3.896   3.880  17.888  0.00  0.00    +0.000 NA
ATOM      8  C   UNL     1       4.178   5.110  17.395  0.00  0.00    +0.000 A 
ATOM      9  N   UNL     1       3.706   6.317  17.788  0.00  0.00    +0.000 NA
ATOM     10  C   UNL     1       2.869   6.180  18.834  0.00  0.00    +0.000 A 
ATOM     11  H   UNL     1       2.119   2.705  20.319  0.00  0.00    +0.000 HD
ENDROOT
BRANCH   1  14
ATOM     12  C   UNL     1       0.800  10.399  19.634  0.00  0.00    +0.000 C 
ATOM     13  O   UNL     1       1.286   9.190  20.236  0.00  0.00    +0.000 OA
ATOM     14  C   UNL     1       2.182   8.574  19.303  0.00  0.00    +0.000 C 
ATOM     15  C   UNL     1       1.763   9.010  17.909  0.00  0.00    +0.000 C 
ATOM     16  C   UNL     1       1.243  10.419  18.168  0.00  0.00    +0.000 C 
BRANCH  12  18
ATOM     17  N   UNL     1      -1.373  10.734  18.554  0.00  0.00    +0.000 N 
ATOM     18  C   UNL     1      -0.716  10.552  19.749  0.00  0.00    +0.000 C 
ATOM     19  O   UNL     1      -1.276  10.562  20.842  0.00  0.00    +0.000 OA
ATOM     20  H   UNL     1      -0.859  10.560  17.691  0.00  0.00    +0.000 HD
BRANCH  17  22
ATOM     21  C   UNL     1      -3.376   9.815  17.481  0.00  0.00    +0.000 C 
ATOM     22  C   UNL     1      -2.816  10.795  18.497  0.00  0.00    +0.000 C 
ENDBRANCH  17  22
ENDBRANCH  12  18
BRANCH  15  23
ATOM     23  O   UNL     1       2.866   9.016  16.999  0.00  0.00    +0.000 OA
ATOM     24  H   UNL     1       2.654   8.341  16.317  0.00  0.00    +0.000 HD
ENDBRANCH  15  23
BRANCH  16  25
ATOM     25  O   UNL     1       2.331  11.334  17.914  0.00  0.00    +0.000 OA
ATOM     26  H   UNL     1       3.184  10.881  18.036  0.00  0.00    +0.000 HD
ENDBRANCH  16  25
ENDBRANCH   1  14
BRANCH   6  27
ATOM     27  C   UNL     1       3.587   1.493  19.424  0.00  0.00    +0.000 C 
ATOM     28  C   UNL     1       4.654   1.796  20.466  0.00  0.00    +0.000 C 
ENDBRANCH   6  27
BRANCH   8  29
ATOM     29  C   UNL     1       5.046   5.130  16.257  0.00  0.00    +0.000 C 
ATOM     30  C   UNL     1       5.726   5.109  15.262  0.00  0.00    +0.000 C 
BRANCH  30  31
ATOM     31  C   UNL     1       6.442   5.047  13.985  0.00  0.00    +0.000 C 
ATOM     32  C   UNL     1       6.266   3.696  13.306  0.00  0.00    +0.000 C 
BRANCH  31  33
ATOM     33  O   UNL     1       7.830   5.302  14.178  0.00  0.00    +0.000 OA
ATOM     34  H   UNL     1       8.057   6.089  13.655  0.00  0.00    +0.000 HD
ENDBRANCH  31  33
ENDBRANCH  30  31
ENDBRANCH   8  29
TORSDOF 9
ENDMDL
MODEL 6
REMARK VINA RESULT:      -6.7      2.690      8.835
REMARK  Name = 
REMARK  12 active torsions:
REMARK  status: ('A' for Active; 'I' for Inactive)
REMARK    1  A    between atoms: C_1  and  C_2
REMARK    2  A    between atoms: C_2  and  N_3
REMARK    3  A    between atoms: C_4  and  C_6
REMARK    4  A    between atoms: C_8  and  N_9
REMARK    5  A    between atoms: N_14  and  C_15
REMARK    6  A    between atoms: C_15  and  C_16
REMARK    7  A    between atoms: C_18  and  C_19
REMARK    8  A    between atoms: C_20  and  C_21
REMARK    9  A    between atoms: C_21  and  C_22
REMARK   10  A    between atoms: C_21  and  O_23
REMARK   11  A    between atoms: C_26  and  O_27
REMARK   12  A    between atoms: C_28  and  O_29
REMARK                            x       y       z     vdW  Elec       q    Type
REMARK                         _______ _______ _______ _____ _____    ______ ____
ROOT
ATOM      1  N   UNL     1       4.848   4.111  16.285  0.00  0.00    +0.000 N 
ATOM      2  C   UNL     1       4.916   2.797  16.676  0.00  0.00    +0.000 A 
ATOM      3  N   UNL     1       4.219   2.570  17.764  0.00  0.00    +0.000 NA
ATOM      4  C   UNL     1       3.664   3.791  18.084  0.00  0.00    +0.000 A 
ATOM      5  C   UNL     1       2.824   4.174  19.146  0.00  0.00    +0.000 A 
ATOM      6  N   UNL     1       2.488   3.256  20.145  0.00  0.00    +0.000 N 
ATOM      7  N   UNL     1       2.391   5.461  19.180  0.00  0.00    +0.000 NA
ATOM      8  C   UNL     1       2.830   6.306  18.217  0.00  0.00    +0.000 A 
ATOM      9  N   UNL     1       3.664   6.059  17.178  0.00  0.00    +0.000 NA
ATOM     10  C   UNL     1       4.035   4.765  17.166  0.00  0.00    +0.000 A 
ATOM     11  H   UNL     1       2.728   2.313  19.835  0.00  0.00    +0.000 HD
ENDROOT
BRANCH   1  14
ATOM     12  C   UNL     1       5.726   4.333  12.859  0.00  0.00    +0.000 C 
ATOM     13  O   UNL     1       4.801   4.396  13.954  0.00  0.00    +0.000 OA
ATOM     14  C   UNL     1       5.558   4.650  15.144  0.00  0.00    +0.000 C 
ATOM     15  C   UNL     1       6.956   4.096  14.923  0.00  0.00    +0.000 C 
ATOM     16  C   UNL     1       7.148   4.324  13.428  0.00  0.00    +0.000 C 
BRANCH  12  18
ATOM     17  N   UNL     1       6.625   2.415  11.630  0.00  0.00    +0.000 N 
ATOM     18  C   UNL     1       5.492   3.125  11.953  0.00  0.00    +0.000 C 
ATOM     19  O   UNL     1       4.375   2.860  11.517  0.00  0.00    +0.000 OA
ATOM     20  H   UNL     1       7.479   2.607  12.152  0.00  0.00    +0.000 HD
BRANCH  17  22
ATOM     21  C   UNL     1       6.253  -0.005  11.748  0.00  0.00    +0.000 C 
ATOM     22  C   UNL     1       6.547   1.193  10.862  0.00  0.00    +0.000 C 
ENDBRANCH  17  22
ENDBRANCH  12  18
BRANCH  15  23
ATOM     23  O   UNL     1       7.935   4.801  15.691  0.00  0.00    +0.000 OA
ATOM     24  H   UNL     1       7.510   5.648  15.954  0.00  0.00    +0.000 HD
ENDBRANCH  15  23
BRANCH  16  25
ATOM     25  O   UNL     1       7.833   5.585  13.268  0.00  0.00    +0.000 OA
ATOM     26  H   UNL     1       7.318   6.301  13.679  0.00  0.00    +0.000 HD
ENDBRANCH  16  25
ENDBRANCH   1  14
BRANCH   6  27
ATOM     27  C   UNL     1       1.178   3.405  20.747  0.00  0.00    +0.000 C 
ATOM     28  C   UNL     1       1.128   2.589  22.031  0.00  0.00    +0.000 C 
ENDBRANCH   6  27
BRANCH   8  29
ATOM     29  C   UNL     1       2.407   7.666  18.356  0.00  0.00    +0.000 C 
ATOM     30  C   UNL     1       1.982   8.789  18.462  0.00  0.00    +0.000 C 
BRANCH  30  31
ATOM     31  C   UNL     1       1.343  10.100  18.604  0.00  0.00    +0.000 C 
ATOM     32  C   UNL     1      -0.133  10.050  18.235  0.00  0.00    +0.000 C 
BRANCH  31  33
ATOM     33  O   UNL     1       2.002  11.067  17.793  0.00  0.00    +0.000 OA
ATOM     34  H   UNL     1       2.958  10.914  17.875  0.00  0.00    +0.000 HD
ENDBRANCH  31  33
ENDBRANCH  30  31
ENDBRANCH   8  29
TORSDOF 9
ENDMDL
MODEL 7
REMARK VINA RESULT:      -6.6      1.073      1.189
REMARK  Name = 
REMARK  12 active torsions:
REMARK  status: ('A' for Active; 'I' for Inactive)
REMARK    1  A    between atoms: C_1  and  C_2
REMARK    2  A    between atoms: C_2  and  N_3
REMARK    3  A    between atoms: C_4  and  C_6
REMARK    4  A    between atoms: C_8  and  N_9
REMARK    5  A    between atoms: N_14  and  C_15
REMARK    6  A    between atoms: C_15  and  C_16
REMARK    7  A    between atoms: C_18  and  C_19
REMARK    8  A    between atoms: C_20  and  C_21
REMARK    9  A    between atoms: C_21  and  C_22
REMARK   10  A    between atoms: C_21  and  O_23
REMARK   11  A    between atoms: C_26  and  O_27
REMARK   12  A    between atoms: C_28  and  O_29
REMARK                            x       y       z     vdW  Elec       q    Type
REMARK                         _______ _______ _______ _____ _____    ______ ____
ROOT
ATOM      1  N   UNL     1       1.176   8.869  20.260  0.00  0.00    +0.000 N 
ATOM      2  C   UNL     1       0.475   8.407  21.345  0.00  0.00    +0.000 A 
ATOM      3  N   UNL     1       0.663   7.124  21.544  0.00  0.00    +0.000 NA
ATOM      4  C   UNL     1       1.537   6.741  20.548  0.00  0.00    +0.000 A 
ATOM      5  C   UNL     1       2.102   5.488  20.246  0.00  0.00    +0.000 A 
ATOM      6  N   UNL     1       1.727   4.353  20.972  0.00  0.00    +0.000 N 
ATOM      7  N   UNL     1       2.981   5.421  19.214  0.00  0.00    +0.000 NA
ATOM      8  C   UNL     1       3.227   6.553  18.512  0.00  0.00    +0.000 A 
ATOM      9  N   UNL     1       2.715   7.795  18.687  0.00  0.00    +0.000 NA
ATOM     10  C   UNL     1       1.880   7.819  19.742  0.00  0.00    +0.000 A 
ATOM     11  H   UNL     1       1.235   4.638  21.819  0.00  0.00    +0.000 HD
ENDROOT
BRANCH   1  14
ATOM     12  C   UNL     1      -0.281  12.075  19.870  0.00  0.00    +0.000 C 
ATOM     13  O   UNL     1       0.265  10.998  20.646  0.00  0.00    +0.000 OA
ATOM     14  C   UNL     1       1.117  10.235  19.784  0.00  0.00    +0.000 C 
ATOM     15  C   UNL     1       0.606  10.410  18.363  0.00  0.00    +0.000 C 
ATOM     16  C   UNL     1       0.073  11.838  18.399  0.00  0.00    +0.000 C 
BRANCH  12  18
ATOM     17  N   UNL     1      -2.520  12.206  18.885  0.00  0.00    +0.000 N 
ATOM     18  C   UNL     1      -1.791  12.231  20.051  0.00  0.00    +0.000 C 
ATOM     19  O   UNL     1      -2.286  12.415  21.160  0.00  0.00    +0.000 OA
ATOM     20  H   UNL     1      -2.054  11.897  18.032  0.00  0.00    +0.000 HD
BRANCH  17  22
ATOM     21  C   UNL     1      -4.564  11.113  18.087  0.00  0.00    +0.000 C 
ATOM     22  C   UNL     1      -3.965  12.243  18.906  0.00  0.00    +0.000 C 
ENDBRANCH  17  22
ENDBRANCH  12  18
BRANCH  15  23
ATOM     23  O   UNL     1       1.653  10.266  17.399  0.00  0.00    +0.000 OA
ATOM     24  H   UNL     1       2.406   9.857  17.881  0.00  0.00    +0.000 HD
ENDBRANCH  15  23
BRANCH  16  25
ATOM     25  O   UNL     1       1.124  12.705  17.920  0.00  0.00    +0.000 OA
ATOM     26  H   UNL     1       0.972  12.929  16.985  0.00  0.00    +0.000 HD
ENDBRANCH  16  25
ENDBRANCH   1  14
BRANCH   6  27
ATOM     27  C   UNL     1       2.742   3.334  21.148  0.00  0.00    +0.000 C 
ATOM     28  C   UNL     1       2.504   2.220  20.139  0.00  0.00    +0.000 C 
ENDBRANCH   6  27
BRANCH   8  29
ATOM     29  C   UNL     1       4.096   6.399  17.386  0.00  0.00    +0.000 C 
ATOM     30  C   UNL     1       4.859   6.212  16.471  0.00  0.00    +0.000 C 
BRANCH  30  31
ATOM     31  C   UNL     1       5.810   5.864  15.412  0.00  0.00    +0.000 C 
ATOM     32  C   UNL     1       5.566   4.460  14.876  0.00  0.00    +0.000 C 
BRANCH  31  33
ATOM     33  O   UNL     1       7.147   5.962  15.889  0.00  0.00    +0.000 OA
ATOM     34  H   UNL     1       7.386   5.099  16.267  0.00  0.00    +0.000 HD
ENDBRANCH  31  33
ENDBRANCH  30  31
ENDBRANCH   8  29
TORSDOF 9
ENDMDL
MODEL 8
REMARK VINA RESULT:      -6.4      2.039      2.359
REMARK  Name = 
REMARK  12 active torsions:
REMARK  status: ('A' for Active; 'I' for Inactive)
REMARK    1  A    between atoms: C_1  and  C_2
REMARK    2  A    between atoms: C_2  and  N_3
REMARK    3  A    between atoms: C_4  and  C_6
REMARK    4  A    between atoms: C_8  and  N_9
REMARK    5  A    between atoms: N_14  and  C_15
REMARK    6  A    between atoms: C_15  and  C_16
REMARK    7  A    between atoms: C_18  and  C_19
REMARK    8  A    between atoms: C_20  and  C_21
REMARK    9  A    between atoms: C_21  and  C_22
REMARK   10  A    between atoms: C_21  and  O_23
REMARK   11  A    between atoms: C_26  and  O_27
REMARK   12  A    between atoms: C_28  and  O_29
REMARK                            x       y       z     vdW  Elec       q    Type
REMARK                         _______ _______ _______ _____ _____    ______ ____
ROOT
ATOM      1  N   UNL     1       1.085   9.224  20.057  0.00  0.00    +0.000 N 
ATOM      2  C   UNL     1       0.354   8.833  21.151  0.00  0.00    +0.000 A 
ATOM      3  N   UNL     1       0.527   7.563  21.430  0.00  0.00    +0.000 NA
ATOM      4  C   UNL     1       1.421   7.115  20.481  0.00  0.00    +0.000 A 
ATOM      5  C   UNL     1       1.982   5.842  20.267  0.00  0.00    +0.000 A 
ATOM      6  N   UNL     1       1.580   4.755  21.050  0.00  0.00    +0.000 N 
ATOM      7  N   UNL     1       2.885   5.707  19.263  0.00  0.00    +0.000 NA
ATOM      8  C   UNL     1       3.156   6.793  18.500  0.00  0.00    +0.000 A 
ATOM      9  N   UNL     1       2.651   8.047  18.588  0.00  0.00    +0.000 NA
ATOM     10  C   UNL     1       1.791   8.140  19.620  0.00  0.00    +0.000 A 
ATOM     11  H   UNL     1       1.071   5.094  21.867  0.00  0.00    +0.000 HD
ENDROOT
BRANCH   1  14
ATOM     12  C   UNL     1       0.865  12.758  20.194  0.00  0.00    +0.000 C 
ATOM     13  O   UNL     1       1.483  11.497  20.492  0.00  0.00    +0.000 OA
ATOM     14  C   UNL     1       1.049  10.560  19.499  0.00  0.00    +0.000 C 
ATOM     15  C   UNL     1      -0.310  11.021  18.996  0.00  0.00    +0.000 C 
ATOM     16  C   UNL     1      -0.178  12.536  19.095  0.00  0.00    +0.000 C 
BRANCH  12  18
ATOM     17  N   UNL     1       0.586  14.731  21.618  0.00  0.00    +0.000 N 
ATOM     18  C   UNL     1       0.235  13.415  21.421  0.00  0.00    +0.000 C 
ATOM     19  O   UNL     1      -0.484  12.781  22.187  0.00  0.00    +0.000 OA
ATOM     20  H   UNL     1       1.059  15.222  20.860  0.00  0.00    +0.000 HD
BRANCH  17  22
ATOM     21  C   UNL     1      -1.202  16.307  22.188  0.00  0.00    +0.000 C 
ATOM     22  C   UNL     1      -0.006  15.511  22.681  0.00  0.00    +0.000 C 
ENDBRANCH  17  22
ENDBRANCH  12  18
BRANCH  15  23
ATOM     23  O   UNL     1      -0.549  10.602  17.650  0.00  0.00    +0.000 OA
ATOM     24  H   UNL     1       0.086  11.107  17.095  0.00  0.00    +0.000 HD
ENDBRANCH  15  23
BRANCH  16  25
ATOM     25  O   UNL     1       0.247  13.018  17.801  0.00  0.00    +0.000 OA
ATOM     26  H   UNL     1       1.216  12.972  17.729  0.00  0.00    +0.000 HD
ENDBRANCH  16  25
ENDBRANCH   1  14
BRANCH   6  27
ATOM     27  C   UNL     1       2.582   3.741  21.312  0.00  0.00    +0.000 C 
ATOM     28  C   UNL     1       1.885   2.417  21.590  0.00  0.00    +0.000 C 
ENDBRANCH   6  27
BRANCH   8  29
ATOM     29  C   UNL     1       4.051   6.566  17.407  0.00  0.00    +0.000 C 
ATOM     30  C   UNL     1       4.820   6.309  16.514  0.00  0.00    +0.000 C 
BRANCH  30  31
ATOM     31  C   UNL     1       5.749   5.870  15.470  0.00  0.00    +0.000 C 
ATOM     32  C   UNL     1       5.477   4.434  15.042  0.00  0.00    +0.000 C 
BRANCH  31  33
ATOM     33  O   UNL     1       7.095   5.982  15.920  0.00  0.00    +0.000 OA
ATOM     34  H   UNL     1       7.552   5.158  15.681  0.00  0.00    +0.000 HD
ENDBRANCH  31  33
ENDBRANCH  30  31
ENDBRANCH   8  29
TORSDOF 9
ENDMDL
MODEL 9
REMARK VINA RESULT:      -6.4      2.485      8.279
REMARK  Name = 
REMARK  12 active torsions:
REMARK  status: ('A' for Active; 'I' for Inactive)
REMARK    1  A    between atoms: C_1  and  C_2
REMARK    2  A    between atoms: C_2  and  N_3
REMARK    3  A    between atoms: C_4  and  C_6
REMARK    4  A    between atoms: C_8  and  N_9
REMARK    5  A    between atoms: N_14  and  C_15
REMARK    6  A    between atoms: C_15  and  C_16
REMARK    7  A    between atoms: C_18  and  C_19
REMARK    8  A    between atoms: C_20  and  C_21
REMARK    9  A    between atoms: C_21  and  C_22
REMARK   10  A    between atoms: C_21  and  O_23
REMARK   11  A    between atoms: C_26  and  O_27
REMARK   12  A    between atoms: C_28  and  O_29
REMARK                            x       y       z     vdW  Elec       q    Type
REMARK                         _______ _______ _______ _____ _____    ______ ____
ROOT
ATOM      1  N   UNL     1       5.053   4.446  16.783  0.00  0.00    +0.000 N 
ATOM      2  C   UNL     1       5.207   3.179  17.288  0.00  0.00    +0.000 A 
ATOM      3  N   UNL     1       4.467   2.979  18.353  0.00  0.00    +0.000 NA
ATOM      4  C   UNL     1       3.794   4.168  18.538  0.00  0.00    +0.000 A 
ATOM      5  C   UNL     1       2.861   4.559  19.517  0.00  0.00    +0.000 A 
ATOM      6  N   UNL     1       2.544   3.697  20.571  0.00  0.00    +0.000 N 
ATOM      7  N   UNL     1       2.321   5.801  19.419  0.00  0.00    +0.000 NA
ATOM      8  C   UNL     1       2.745   6.602  18.412  0.00  0.00    +0.000 A 
ATOM      9  N   UNL     1       3.658   6.347  17.444  0.00  0.00    +0.000 NA
ATOM     10  C   UNL     1       4.136   5.095  17.561  0.00  0.00    +0.000 A 
ATOM     11  H   UNL     1       2.880   2.758  20.356  0.00  0.00    +0.000 HD
ENDROOT
BRANCH   1  14
ATOM     12  C   UNL     1       5.818   4.748  13.337  0.00  0.00    +0.000 C 
ATOM     13  O   UNL     1       4.953   4.868  14.475  0.00  0.00    +0.000 OA
ATOM     14  C   UNL     1       5.783   4.953  15.640  0.00  0.00    +0.000 C 
ATOM     15  C   UNL     1       7.086   4.236  15.327  0.00  0.00    +0.000 C 
ATOM     16  C   UNL     1       7.247   4.523  13.839  0.00  0.00    +0.000 C 
BRANCH  12  18
ATOM     17  N   UNL     1       4.191   3.847  11.743  0.00  0.00    +0.000 N 
ATOM     18  C   UNL     1       5.391   3.635  12.382  0.00  0.00    +0.000 C 
ATOM     19  O   UNL     1       6.060   2.613  12.251  0.00  0.00    +0.000 OA
ATOM     20  H   UNL     1       3.780   4.779  11.789  0.00  0.00    +0.000 HD
BRANCH  17  22
ATOM     21  C   UNL     1       2.907   3.645   9.666  0.00  0.00    +0.000 C 
ATOM     22  C   UNL     1       3.707   2.928  10.738  0.00  0.00    +0.000 C 
ENDBRANCH  17  22
ENDBRANCH  12  18
BRANCH  15  23
ATOM     23  O   UNL     1       8.178   4.764  16.084  0.00  0.00    +0.000 OA
ATOM     24  H   UNL     1       7.831   4.906  16.993  0.00  0.00    +0.000 HD
ENDBRANCH  15  23
BRANCH  16  25
ATOM     25  O   UNL     1       8.087   5.691  13.712  0.00  0.00    +0.000 OA
ATOM     26  H   UNL     1       8.887   5.474  13.202  0.00  0.00    +0.000 HD
ENDBRANCH  16  25
ENDBRANCH   1  14
BRANCH   6  27
ATOM     27  C   UNL     1       1.192   3.778  21.088  0.00  0.00    +0.000 C 
ATOM     28  C   UNL     1       0.241   3.146  20.082  0.00  0.00    +0.000 C 
ENDBRANCH   6  27
BRANCH   8  29
ATOM     29  C   UNL     1       2.202   7.926  18.412  0.00  0.00    +0.000 C 
ATOM     30  C   UNL     1       1.755   9.043  18.484  0.00  0.00    +0.000 C 
BRANCH  30  31
ATOM     31  C   UNL     1       1.266  10.408  18.694  0.00  0.00    +0.000 C 
ATOM     32  C   UNL     1      -0.236  10.510  18.465  0.00  0.00    +0.000 C 
BRANCH  31  33
ATOM     33  O   UNL     1       1.939  11.318  17.829  0.00  0.00    +0.000 OA
ATOM     34  H   UNL     1       2.725  11.640  18.301  0.00  0.00    +0.000 HD
ENDBRANCH  31  33
ENDBRANCH  30  31
ENDBRANCH   8  29
TORSDOF 9
ENDMDL
