MODEL 1
REMARK VINA RESULT:      -7.7      0.000      0.000
REMARK  Name = 
REMARK  8 active torsions:
REMARK  status: ('A' for Active; 'I' for Inactive)
REMARK    1  A    between atoms: C_1  and  C_2
REMARK    2  A    between atoms: N_4  and  C_5
REMARK    3  A    between atoms: C_5  and  C_6
REMARK    4  A    between atoms: C_6  and  C_7
REMARK    5  A    between atoms: C_7  and  C_8
REMARK    6  A    between atoms: C_13  and  S_14
REMARK    7  A    between atoms: S_14  and  C_15
REMARK    8  A    between atoms: C_19  and  C_20
REMARK                            x       y       z     vdW  Elec       q    Type
REMARK                         _______ _______ _______ _____ _____    ______ ____
ROOT
ATOM      1  C   UNL     1       6.645   4.705  14.203  0.00  0.00    +0.000 C 
ATOM      2  O   UNL     1       7.570   5.423  13.822  0.00  0.00    +0.000 OA
ATOM      3  N   UNL     1       5.894   5.018  15.326  0.00  0.00    +0.000 N 
ATOM      4  C   UNL     1       6.149   6.286  16.008  0.00  0.00    +0.000 C 
ATOM      5  C   UNL     1       6.423   6.048  17.490  0.00  0.00    +0.000 C 
ATOM      6  C   UNL     1       5.289   5.266  18.168  0.00  0.00    +0.000 C 
ATOM      7  C   UNL     1       5.030   3.968  17.380  0.00  0.00    +0.000 C 
ATOM      8  C   UNL     1       4.802   4.217  15.883  0.00  0.00    +0.000 C 
ENDROOT
BRANCH   1   9
ATOM      9  C   UNL     1       6.278   3.440  13.441  0.00  0.00    +0.000 C 
BRANCH   9  10
ATOM     10  C   UNL     1       5.892   3.713  11.984  0.00  0.00    +0.000 C 
BRANCH  10  11
ATOM     11  C   UNL     1       4.485   3.213  11.652  0.00  0.00    +0.000 C 
BRANCH  11  15
ATOM     12  C   UNL     1       2.370   4.954   9.048  0.00  0.00    +0.000 C 
ATOM     13  C   UNL     1       3.009   3.796   9.759  0.00  0.00    +0.000 C 
ATOM     14  O   UNL     1       2.887   2.638   9.379  0.00  0.00    +0.000 OA
ATOM     15  N   UNL     1       3.749   4.171  10.856  0.00  0.00    +0.000 N 
ATOM     16  H   UNL     1       3.756   5.140  11.147  0.00  0.00    +0.000 HD
ENDBRANCH  11  15
ENDBRANCH  10  11
ENDBRANCH   9  10
ENDBRANCH   1   9
BRANCH   6  17
ATOM     17  S   UNL     1       3.704   6.209  18.282  0.00  0.00    +0.000 S 
BRANCH  17  18
ATOM     18  C   UNL     1       2.551   4.961  18.818  0.00  0.00    +0.000 A 
ATOM     19  C   UNL     1       1.669   4.411  17.882  0.00  0.00    +0.000 A 
ATOM     20  C   UNL     1       0.810   3.371  18.245  0.00  0.00    +0.000 A 
ATOM     21  C   UNL     1       0.834   2.866  19.544  0.00  0.00    +0.000 A 
ATOM     22  C   UNL     1       1.722   3.397  20.488  0.00  0.00    +0.000 A 
ATOM     23  C   UNL     1       1.792   2.828  21.876  0.00  0.00    +0.000 C 
ATOM     24  C   UNL     1       2.574   4.448  20.118  0.00  0.00    +0.000 A 
ENDBRANCH  17  18
ENDBRANCH   6  17
TORSDOF 6
ENDMDL
MODEL 2
REMARK VINA RESULT:      -7.2      1.826      2.118
REMARK  Name = 
REMARK  8 active torsions:
REMARK  status: ('A' for Active; 'I' for Inactive)
REMARK    1  A    between atoms: C_1  and  C_2
REMARK    2  A    between atoms: N_4  and  C_5
REMARK    3  A    between atoms: C_5  and  C_6
REMARK    4  A    between atoms: C_6  and  C_7
REMARK    5  A    between atoms: C_7  and  C_8
REMARK    6  A    between atoms: C_13  and  S_14
REMARK    7  A    between atoms: S_14  and  C_15
REMARK    8  A    between atoms: C_19  and  C_20
REMARK                            x       y       z     vdW  Elec       q    Type
REMARK                         _______ _______ _______ _____ _____    ______ ____
ROOT
ATOM      1  C   UNL     1       6.669   4.825  14.664  0.00  0.00    +0.000 C 
ATOM      2  O   UNL     1       7.567   5.578  14.286  0.00  0.00    +0.000 OA
ATOM      3  N   UNL     1       5.892   5.118  15.774  0.00  0.00    +0.000 N 
ATOM      4  C   UNL     1       6.083   6.404  16.444  0.00  0.00    +0.000 C 
ATOM      5  C   UNL     1       6.348   6.195  17.931  0.00  0.00    +0.000 C 
ATOM      6  C   UNL     1       5.241   5.372  18.606  0.00  0.00    +0.000 C 
ATOM      7  C   UNL     1       5.047   4.055  17.829  0.00  0.00    +0.000 C 
ATOM      8  C   UNL     1       4.828   4.278  16.328  0.00  0.00    +0.000 C 
ENDROOT
BRANCH   1   9
ATOM      9  C   UNL     1       6.366   3.537  13.912  0.00  0.00    +0.000 C 
BRANCH   9  10
ATOM     10  C   UNL     1       6.155   3.759  12.412  0.00  0.00    +0.000 C 
BRANCH  10  11
ATOM     11  C   UNL     1       7.286   3.165  11.571  0.00  0.00    +0.000 C 
BRANCH  11  15
ATOM     12  C   UNL     1       6.117  -0.416  11.259  0.00  0.00    +0.000 C 
ATOM     13  C   UNL     1       5.997   1.081  11.258  0.00  0.00    +0.000 C 
ATOM     14  O   UNL     1       4.931   1.659  11.085  0.00  0.00    +0.000 OA
ATOM     15  N   UNL     1       7.191   1.724  11.486  0.00  0.00    +0.000 N 
ATOM     16  H   UNL     1       8.044   1.184  11.560  0.00  0.00    +0.000 HD
ENDBRANCH  11  15
ENDBRANCH  10  11
ENDBRANCH   9  10
ENDBRANCH   1   9
BRANCH   6  17
ATOM     17  S   UNL     1       3.615   6.247  18.689  0.00  0.00    +0.000 S 
BRANCH  17  18
ATOM     18  C   UNL     1       2.487   4.926  19.084  0.00  0.00    +0.000 A 
ATOM     19  C   UNL     1       1.671   4.411  18.071  0.00  0.00    +0.000 A 
ATOM     20  C   UNL     1       0.836   3.320  18.321  0.00  0.00    +0.000 A 
ATOM     21  C   UNL     1       0.818   2.728  19.583  0.00  0.00    +0.000 A 
ATOM     22  C   UNL     1       1.641   3.224  20.603  0.00  0.00    +0.000 A 
ATOM     23  C   UNL     1       1.668   2.563  21.951  0.00  0.00    +0.000 C 
ATOM     24  C   UNL     1       2.468   4.326  20.346  0.00  0.00    +0.000 A 
ENDBRANCH  17  18
ENDBRANCH   6  17
TORSDOF 6
ENDMDL
MODEL 3
REMARK VINA RESULT:      -6.8      5.916      9.494
REMARK  Name = 
REMARK  8 active torsions:
REMARK  status: ('A' for Active; 'I' for Inactive)
REMARK    1  A    between atoms: C_1  and  C_2
REMARK    2  A    between atoms: N_4  and  C_5
REMARK    3  A    between atoms: C_5  and  C_6
REMARK    4  A    between atoms: C_6  and  C_7
REMARK    5  A    between atoms: C_7  and  C_8
REMARK    6  A    between atoms: C_13  and  S_14
REMARK    7  A    between atoms: S_14  and  C_15
REMARK    8  A    between atoms: C_19  and  C_20
REMARK                            x       y       z     vdW  Elec       q    Type
REMARK                         _______ _______ _______ _____ _____    ______ ____
ROOT
ATOM      1  C   UNL     1       1.604   8.062  20.108  0.00  0.00    +0.000 C 
ATOM      2  O   UNL     1       1.739   9.007  19.330  0.00  0.00    +0.000 OA
ATOM      3  N   UNL     1       2.174   6.823  19.857  0.00  0.00    +0.000 N 
ATOM      4  C   UNL     1       3.038   6.674  18.686  0.00  0.00    +0.000 C 
ATOM      5  C   UNL     1       2.562   5.515  17.817  0.00  0.00    +0.000 C 
ATOM      6  C   UNL     1       2.461   4.203  18.607  0.00  0.00    +0.000 C 
ATOM      7  C   UNL     1       1.584   4.432  19.853  0.00  0.00    +0.000 C 
ATOM      8  C   UNL     1       2.046   5.628  20.694  0.00  0.00    +0.000 C 
ENDROOT
BRANCH   1   9
ATOM      9  C   UNL     1       0.811   8.223  21.397  0.00  0.00    +0.000 C 
BRANCH   9  10
ATOM     10  C   UNL     1       0.832   9.657  21.934  0.00  0.00    +0.000 C 
BRANCH  10  11
ATOM     11  C   UNL     1      -0.452  10.420  21.604  0.00  0.00    +0.000 C 
BRANCH  11  15
ATOM     12  C   UNL     1      -1.211  13.693  23.337  0.00  0.00    +0.000 C 
ATOM     13  C   UNL     1      -1.410  12.253  22.954  0.00  0.00    +0.000 C 
ATOM     14  O   UNL     1      -2.369  11.594  23.337  0.00  0.00    +0.000 OA
ATOM     15  N   UNL     1      -0.424  11.769  22.127  0.00  0.00    +0.000 N 
ATOM     16  H   UNL     1       0.372  12.352  21.900  0.00  0.00    +0.000 HD
ENDBRANCH  11  15
ENDBRANCH  10  11
ENDBRANCH   9  10
ENDBRANCH   1   9
BRANCH   6  17
ATOM     17  S   UNL     1       4.097   3.541  19.157  0.00  0.00    +0.000 S 
BRANCH  17  18
ATOM     18  C   UNL     1       5.203   4.158  17.903  0.00  0.00    +0.000 A 
ATOM     19  C   UNL     1       6.346   4.860  18.298  0.00  0.00    +0.000 A 
ATOM     20  C   UNL     1       7.279   5.284  17.349  0.00  0.00    +0.000 A 
ATOM     21  C   UNL     1       7.081   4.999  15.999  0.00  0.00    +0.000 A 
ATOM     22  C   UNL     1       5.948   4.284  15.590  0.00  0.00    +0.000 A 
ATOM     23  C   UNL     1       5.750   3.928  14.145  0.00  0.00    +0.000 C 
ATOM     24  C   UNL     1       5.011   3.872  16.548  0.00  0.00    +0.000 A 
ENDBRANCH  17  18
ENDBRANCH   6  17
TORSDOF 6
ENDMDL
MODEL 4
REMARK VINA RESULT:      -6.8      5.356      8.686
REMARK  Name = 
REMARK  8 active torsions:
REMARK  status: ('A' for Active; 'I' for Inactive)
REMARK    1  A    between atoms: C_1  and  C_2
REMARK    2  A    between atoms: N_4  and  C_5
REMARK    3  A    between atoms: C_5  and  C_6
REMARK    4  A    between atoms: C_6  and  C_7
REMARK    5  A    between atoms: C_7  and  C_8
REMARK    6  A    between atoms: C_13  and  S_14
REMARK    7  A    between atoms: S_14  and  C_15
REMARK    8  A    between atoms: C_19  and  C_20
REMARK                            x       y       z     vdW  Elec       q    Type
REMARK                         _______ _______ _______ _____ _____    ______ ____
ROOT
ATOM      1  C   UNL     1       1.543   8.045  20.144  0.00  0.00    +0.000 C 
ATOM      2  O   UNL     1       1.691   8.998  19.377  0.00  0.00    +0.000 OA
ATOM      3  N   UNL     1       2.125   6.812  19.894  0.00  0.00    +0.000 N 
ATOM      4  C   UNL     1       3.016   6.678  18.742  0.00  0.00    +0.000 C 
ATOM      5  C   UNL     1       2.567   5.525  17.851  0.00  0.00    +0.000 C 
ATOM      6  C   UNL     1       2.454   4.205  18.628  0.00  0.00    +0.000 C 
ATOM      7  C   UNL     1       1.547   4.418  19.855  0.00  0.00    +0.000 C 
ATOM      8  C   UNL     1       1.983   5.609  20.717  0.00  0.00    +0.000 C 
ENDROOT
BRANCH   1   9
ATOM      9  C   UNL     1       0.719   8.190  21.415  0.00  0.00    +0.000 C 
BRANCH   9  10
ATOM     10  C   UNL     1       0.793   9.597  22.016  0.00  0.00    +0.000 C 
BRANCH  10  11
ATOM     11  C   UNL     1      -0.375  10.480  21.574  0.00  0.00    +0.000 C 
BRANCH  11  15
ATOM     12  C   UNL     1      -0.352  12.791  18.583  0.00  0.00    +0.000 C 
ATOM     13  C   UNL     1      -0.949  11.989  19.704  0.00  0.00    +0.000 C 
ATOM     14  O   UNL     1      -2.157  11.912  19.892  0.00  0.00    +0.000 OA
ATOM     15  N   UNL     1      -0.009  11.344  20.472  0.00  0.00    +0.000 N 
ATOM     16  H   UNL     1       0.976  11.500  20.296  0.00  0.00    +0.000 HD
ENDBRANCH  11  15
ENDBRANCH  10  11
ENDBRANCH   9  10
ENDBRANCH   1   9
BRANCH   6  17
ATOM     17  S   UNL     1       4.080   3.546  19.209  0.00  0.00    +0.000 S 
BRANCH  17  18
ATOM     18  C   UNL     1       5.209   4.167  17.979  0.00  0.00    +0.000 A 
ATOM     19  C   UNL     1       6.319   4.909  18.395  0.00  0.00    +0.000 A 
ATOM     20  C   UNL     1       7.271   5.339  17.468  0.00  0.00    +0.000 A 
ATOM     21  C   UNL     1       7.127   5.020  16.119  0.00  0.00    +0.000 A 
ATOM     22  C   UNL     1       6.028   4.265  15.689  0.00  0.00    +0.000 A 
ATOM     23  C   UNL     1       5.887   3.873  14.246  0.00  0.00    +0.000 C 
ATOM     24  C   UNL     1       5.071   3.846  16.625  0.00  0.00    +0.000 A 
ENDBRANCH  17  18
ENDBRANCH   6  17
TORSDOF 6
ENDMDL
MODEL 5
REMARK VINA RESULT:      -6.8      5.931      9.472
REMARK  Name = 
REMARK  8 active torsions:
REMARK  status: ('A' for Active; 'I' for Inactive)
REMARK    1  A    between atoms: C_1  and  C_2
REMARK    2  A    between atoms: N_4  and  C_5
REMARK    3  A    between atoms: C_5  and  C_6
REMARK    4  A    between atoms: C_6  and  C_7
REMARK    5  A    between atoms: C_7  and  C_8
REMARK    6  A    between atoms: C_13  and  S_14
REMARK    7  A    between atoms: S_14  and  C_15
REMARK    8  A    between atoms: C_19  and  C_20
REMARK                            x       y       z     vdW  Elec       q    Type
REMARK                         _______ _______ _______ _____ _____    ______ ____
ROOT
ATOM      1  C   UNL     1       1.370   8.021  20.372  0.00  0.00    +0.000 C 
ATOM      2  O   UNL     1       1.521   9.016  19.663  0.00  0.00    +0.000 OA
ATOM      3  N   UNL     1       1.991   6.816  20.079  0.00  0.00    +0.000 N 
ATOM      4  C   UNL     1       2.926   6.765  18.955  0.00  0.00    +0.000 C 
ATOM      5  C   UNL     1       2.537   5.651  17.989  0.00  0.00    +0.000 C 
ATOM      6  C   UNL     1       2.430   4.290  18.690  0.00  0.00    +0.000 C 
ATOM      7  C   UNL     1       1.475   4.415  19.893  0.00  0.00    +0.000 C 
ATOM      8  C   UNL     1       1.851   5.568  20.832  0.00  0.00    +0.000 C 
ENDROOT
BRANCH   1   9
ATOM      9  C   UNL     1       0.499   8.078  21.619  0.00  0.00    +0.000 C 
BRANCH   9  10
ATOM     10  C   UNL     1       0.871   9.234  22.553  0.00  0.00    +0.000 C 
BRANCH  10  11
ATOM     11  C   UNL     1      -0.360   9.913  23.156  0.00  0.00    +0.000 C 
BRANCH  11  15
ATOM     12  C   UNL     1      -1.863  13.184  22.002  0.00  0.00    +0.000 C 
ATOM     13  C   UNL     1      -1.774  11.904  22.784  0.00  0.00    +0.000 C 
ATOM     14  O   UNL     1      -2.656  11.534  23.548  0.00  0.00    +0.000 OA
ATOM     15  N   UNL     1      -0.621  11.196  22.540  0.00  0.00    +0.000 N 
ATOM     16  H   UNL     1       0.094  11.592  21.942  0.00  0.00    +0.000 HD
ENDBRANCH  11  15
ENDBRANCH  10  11
ENDBRANCH   9  10
ENDBRANCH   1   9
BRANCH   6  17
ATOM     17  S   UNL     1       4.050   3.638  19.294  0.00  0.00    +0.000 S 
BRANCH  17  18
ATOM     18  C   UNL     1       5.200   4.305  18.108  0.00  0.00    +0.000 A 
ATOM     19  C   UNL     1       5.183   3.809  16.800  0.00  0.00    +0.000 A 
ATOM     20  C   UNL     1       6.010   4.365  15.822  0.00  0.00    +0.000 A 
ATOM     21  C   UNL     1       6.853   5.429  16.141  0.00  0.00    +0.000 A 
ATOM     22  C   UNL     1       6.871   5.944  17.443  0.00  0.00    +0.000 A 
ATOM     23  C   UNL     1       7.737   7.122  17.787  0.00  0.00    +0.000 C 
ATOM     24  C   UNL     1       6.045   5.373  18.422  0.00  0.00    +0.000 A 
ENDBRANCH  17  18
ENDBRANCH   6  17
TORSDOF 6
ENDMDL
MODEL 6
REMARK VINA RESULT:      -6.7      1.697      2.535
REMARK  Name = 
REMARK  8 active torsions:
REMARK  status: ('A' for Active; 'I' for Inactive)
REMARK    1  A    between atoms: C_1  and  C_2
REMARK    2  A    between atoms: N_4  and  C_5
REMARK    3  A    between atoms: C_5  and  C_6
REMARK    4  A    between atoms: C_6  and  C_7
REMARK    5  A    between atoms: C_7  and  C_8
REMARK    6  A    between atoms: C_13  and  S_14
REMARK    7  A    between atoms: S_14  and  C_15
REMARK    8  A    between atoms: C_19  and  C_20
REMARK                            x       y       z     vdW  Elec       q    Type
REMARK                         _______ _______ _______ _____ _____    ______ ____
ROOT
ATOM      1  C   UNL     1       6.871   4.890  14.361  0.00  0.00    +0.000 C 
ATOM      2  O   UNL     1       7.771   5.660  14.024  0.00  0.00    +0.000 OA
ATOM      3  N   UNL     1       6.116   5.108  15.504  0.00  0.00    +0.000 N 
ATOM      4  C   UNL     1       6.334   6.339  16.264  0.00  0.00    +0.000 C 
ATOM      5  C   UNL     1       6.622   6.017  17.726  0.00  0.00    +0.000 C 
ATOM      6  C   UNL     1       5.517   5.158  18.357  0.00  0.00    +0.000 C 
ATOM      7  C   UNL     1       5.294   3.905  17.490  0.00  0.00    +0.000 C 
ATOM      8  C   UNL     1       5.052   4.240  16.012  0.00  0.00    +0.000 C 
ENDROOT
BRANCH   1   9
ATOM      9  C   UNL     1       6.540   3.665  13.522  0.00  0.00    +0.000 C 
BRANCH   9  10
ATOM     10  C   UNL     1       5.207   3.794  12.780  0.00  0.00    +0.000 C 
BRANCH  10  11
ATOM     11  C   UNL     1       5.211   3.049  11.444  0.00  0.00    +0.000 C 
BRANCH  11  15
ATOM     12  C   UNL     1       6.241  -0.586  11.331  0.00  0.00    +0.000 C 
ATOM     13  C   UNL     1       6.340   0.887  11.054  0.00  0.00    +0.000 C 
ATOM     14  O   UNL     1       7.233   1.372  10.369  0.00  0.00    +0.000 OA
ATOM     15  N   UNL     1       5.327   1.618  11.628  0.00  0.00    +0.000 N 
ATOM     16  H   UNL     1       4.658   1.158  12.232  0.00  0.00    +0.000 HD
ENDBRANCH  11  15
ENDBRANCH  10  11
ENDBRANCH   9  10
ENDBRANCH   1   9
BRANCH   6  17
ATOM     17  S   UNL     1       3.903   6.041  18.535  0.00  0.00    +0.000 S 
BRANCH  17  18
ATOM     18  C   UNL     1       2.886   4.826  19.349  0.00  0.00    +0.000 A 
ATOM     19  C   UNL     1       2.813   4.833  20.745  0.00  0.00    +0.000 A 
ATOM     20  C   UNL     1       1.962   3.951  21.414  0.00  0.00    +0.000 A 
ATOM     21  C   UNL     1       1.167   3.064  20.691  0.00  0.00    +0.000 A 
ATOM     22  C   UNL     1       1.218   3.055  19.292  0.00  0.00    +0.000 A 
ATOM     23  C   UNL     1       0.330   2.138  18.500  0.00  0.00    +0.000 C 
ATOM     24  C   UNL     1       2.084   3.936  18.628  0.00  0.00    +0.000 A 
ENDBRANCH  17  18
ENDBRANCH   6  17
TORSDOF 6
ENDMDL
MODEL 7
REMARK VINA RESULT:      -6.6      3.826      4.772
REMARK  Name = 
REMARK  8 active torsions:
REMARK  status: ('A' for Active; 'I' for Inactive)
REMARK    1  A    between atoms: C_1  and  C_2
REMARK    2  A    between atoms: N_4  and  C_5
REMARK    3  A    between atoms: C_5  and  C_6
REMARK    4  A    between atoms: C_6  and  C_7
REMARK    5  A    between atoms: C_7  and  C_8
REMARK    6  A    between atoms: C_13  and  S_14
REMARK    7  A    between atoms: S_14  and  C_15
REMARK    8  A    between atoms: C_19  and  C_20
REMARK                            x       y       z     vdW  Elec       q    Type
REMARK                         _______ _______ _______ _____ _____    ______ ____
ROOT
ATOM      1  C   UNL     1       5.042   4.528  16.723  0.00  0.00    +0.000 C 
ATOM      2  O   UNL     1       4.783   3.335  16.553  0.00  0.00    +0.000 OA
ATOM      3  N   UNL     1       4.278   5.326  17.561  0.00  0.00    +0.000 N 
ATOM      4  C   UNL     1       3.204   4.705  18.335  0.00  0.00    +0.000 C 
ATOM      5  C   UNL     1       1.885   5.430  18.092  0.00  0.00    +0.000 C 
ATOM      6  C   UNL     1       1.989   6.933  18.387  0.00  0.00    +0.000 C 
ATOM      7  C   UNL     1       3.165   7.524  17.587  0.00  0.00    +0.000 C 
ATOM      8  C   UNL     1       4.476   6.757  17.805  0.00  0.00    +0.000 C 
ENDROOT
BRANCH   1   9
ATOM      9  C   UNL     1       6.230   5.174  16.025  0.00  0.00    +0.000 C 
BRANCH   9  10
ATOM     10  C   UNL     1       6.843   4.279  14.943  0.00  0.00    +0.000 C 
BRANCH  10  11
ATOM     11  C   UNL     1       5.969   4.200  13.690  0.00  0.00    +0.000 C 
BRANCH  11  15
ATOM     12  C   UNL     1       6.051   1.416  11.135  0.00  0.00    +0.000 C 
ATOM     13  C   UNL     1       5.518   2.635  11.833  0.00  0.00    +0.000 C 
ATOM     14  O   UNL     1       4.462   3.168  11.519  0.00  0.00    +0.000 OA
ATOM     15  N   UNL     1       6.324   3.070  12.860  0.00  0.00    +0.000 N 
ATOM     16  H   UNL     1       7.214   2.616  13.025  0.00  0.00    +0.000 HD
ENDBRANCH  11  15
ENDBRANCH  10  11
ENDBRANCH   9  10
ENDBRANCH   1   9
BRANCH   6  17
ATOM     17  S   UNL     1       2.243   7.321  20.176  0.00  0.00    +0.000 S 
BRANCH  17  18
ATOM     18  C   UNL     1       1.205   8.750  20.412  0.00  0.00    +0.000 A 
ATOM     19  C   UNL     1       0.901   9.553  19.308  0.00  0.00    +0.000 A 
ATOM     20  C   UNL     1       0.023  10.630  19.438  0.00  0.00    +0.000 A 
ATOM     21  C   UNL     1      -0.567  10.907  20.670  0.00  0.00    +0.000 A 
ATOM     22  C   UNL     1      -0.282  10.103  21.781  0.00  0.00    +0.000 A 
ATOM     23  C   UNL     1      -0.950  10.361  23.102  0.00  0.00    +0.000 C 
ATOM     24  C   UNL     1       0.609   9.029  21.645  0.00  0.00    +0.000 A 
ENDBRANCH  17  18
ENDBRANCH   6  17
TORSDOF 6
ENDMDL
MODEL 8
REMARK VINA RESULT:      -6.5      5.007      8.085
REMARK  Name = 
REMARK  8 active torsions:
REMARK  status: ('A' for Active; 'I' for Inactive)
REMARK    1  A    between atoms: C_1  and  C_2
REMARK    2  A    between atoms: N_4  and  C_5
REMARK    3  A    between atoms: C_5  and  C_6
REMARK    4  A    between atoms: C_6  and  C_7
REMARK    5  A    between atoms: C_7  and  C_8
REMARK    6  A    between atoms: C_13  and  S_14
REMARK    7  A    between atoms: S_14  and  C_15
REMARK    8  A    between atoms: C_19  and  C_20
REMARK                            x       y       z     vdW  Elec       q    Type
REMARK                         _______ _______ _______ _____ _____    ______ ____
ROOT
ATOM      1  C   UNL     1       1.694   8.266  19.626  0.00  0.00    +0.000 C 
ATOM      2  O   UNL     1       1.754   9.023  18.656  0.00  0.00    +0.000 OA
ATOM      3  N   UNL     1       2.218   6.983  19.583  0.00  0.00    +0.000 N 
ATOM      4  C   UNL     1       2.945   6.563  18.386  0.00  0.00    +0.000 C 
ATOM      5  C   UNL     1       2.362   5.266  17.836  0.00  0.00    +0.000 C 
ATOM      6  C   UNL     1       2.332   4.152  18.892  0.00  0.00    +0.000 C 
ATOM      7  C   UNL     1       1.601   4.666  20.147  0.00  0.00    +0.000 C 
ATOM      8  C   UNL     1       2.169   5.995  20.663  0.00  0.00    +0.000 C 
ENDROOT
BRANCH   1   9
ATOM      9  C   UNL     1       1.051   8.721  20.928  0.00  0.00    +0.000 C 
BRANCH   9  10
ATOM     10  C   UNL     1       0.846  10.237  20.994  0.00  0.00    +0.000 C 
BRANCH  10  11
ATOM     11  C   UNL     1      -0.597  10.642  20.690  0.00  0.00    +0.000 C 
BRANCH  11  15
ATOM     12  C   UNL     1      -1.911  10.130  17.183  0.00  0.00    +0.000 C 
ATOM     13  C   UNL     1      -1.422  10.901  18.376  0.00  0.00    +0.000 C 
ATOM     14  O   UNL     1      -1.377  12.125  18.399  0.00  0.00    +0.000 OA
ATOM     15  N   UNL     1      -1.052  10.097  19.429  0.00  0.00    +0.000 N 
ATOM     16  H   UNL     1      -1.058   9.091  19.318  0.00  0.00    +0.000 HD
ENDBRANCH  11  15
ENDBRANCH  10  11
ENDBRANCH   9  10
ENDBRANCH   1   9
BRANCH   6  17
ATOM     17  S   UNL     1       4.011   3.562  19.393  0.00  0.00    +0.000 S 
BRANCH  17  18
ATOM     18  C   UNL     1       5.050   4.211  18.099  0.00  0.00    +0.000 A 
ATOM     19  C   UNL     1       4.900   3.714  16.800  0.00  0.00    +0.000 A 
ATOM     20  C   UNL     1       5.636   4.258  15.745  0.00  0.00    +0.000 A 
ATOM     21  C   UNL     1       6.519   5.310  15.979  0.00  0.00    +0.000 A 
ATOM     22  C   UNL     1       6.670   5.827  17.272  0.00  0.00    +0.000 A 
ATOM     23  C   UNL     1       7.581   6.993  17.528  0.00  0.00    +0.000 C 
ATOM     24  C   UNL     1       5.934   5.268  18.328  0.00  0.00    +0.000 A 
ENDBRANCH  17  18
ENDBRANCH   6  17
TORSDOF 6
ENDMDL
MODEL 9
REMARK VINA RESULT:      -6.5      2.343      3.436
REMARK  Name = 
REMARK  8 active torsions:
REMARK  status: ('A' for Active; 'I' for Inactive)
REMARK    1  A    between atoms: C_1  and  C_2
REMARK    2  A    between atoms: N_4  and  C_5
REMARK    3  A    between atoms: C_5  and  C_6
REMARK    4  A    between atoms: C_6  and  C_7
REMARK    5  A    between atoms: C_7  and  C_8
REMARK    6  A    between atoms: C_13  and  S_14
REMARK    7  A    between atoms: S_14  and  C_15
REMARK    8  A    between atoms: C_19  and  C_20
REMARK                            x       y       z     vdW  Elec       q    Type
REMARK                         _______ _______ _______ _____ _____    ______ ____
ROOT
ATOM      1  C   UNL     1       6.804   5.524  16.401  0.00  0.00    +0.000 C 
ATOM      2  O   UNL     1       7.377   6.587  16.643  0.00  0.00    +0.000 OA
ATOM      3  N   UNL     1       5.621   5.174  17.034  0.00  0.00    +0.000 N 
ATOM      4  C   UNL     1       4.994   6.141  17.934  0.00  0.00    +0.000 C 
ATOM      5  C   UNL     1       4.743   5.513  19.301  0.00  0.00    +0.000 C 
ATOM      6  C   UNL     1       3.914   4.225  19.201  0.00  0.00    +0.000 C 
ATOM      7  C   UNL     1       4.592   3.266  18.203  0.00  0.00    +0.000 C 
ATOM      8  C   UNL     1       4.881   3.924  16.848  0.00  0.00    +0.000 C 
ENDROOT
BRANCH   1   9
ATOM      9  C   UNL     1       7.370   4.550  15.377  0.00  0.00    +0.000 C 
BRANCH   9  10
ATOM     10  C   UNL     1       6.888   4.838  13.953  0.00  0.00    +0.000 C 
BRANCH  10  11
ATOM     11  C   UNL     1       6.495   3.563  13.204  0.00  0.00    +0.000 C 
BRANCH  11  15
ATOM     12  C   UNL     1       3.607   3.224  10.788  0.00  0.00    +0.000 C 
ATOM     13  C   UNL     1       4.848   2.807  11.525  0.00  0.00    +0.000 C 
ATOM     14  O   UNL     1       5.409   1.737  11.323  0.00  0.00    +0.000 OA
ATOM     15  N   UNL     1       5.289   3.748  12.425  0.00  0.00    +0.000 N 
ATOM     16  H   UNL     1       4.741   4.584  12.585  0.00  0.00    +0.000 HD
ENDBRANCH  11  15
ENDBRANCH  10  11
ENDBRANCH   9  10
ENDBRANCH   1   9
BRANCH   6  17
ATOM     17  S   UNL     1       2.172   4.506  18.651  0.00  0.00    +0.000 S 
BRANCH  17  18
ATOM     18  C   UNL     1       1.855   6.167  19.209  0.00  0.00    +0.000 A 
ATOM     19  C   UNL     1       1.618   6.388  20.570  0.00  0.00    +0.000 A 
ATOM     20  C   UNL     1       1.450   7.686  21.057  0.00  0.00    +0.000 A 
ATOM     21  C   UNL     1       1.529   8.774  20.190  0.00  0.00    +0.000 A 
ATOM     22  C   UNL     1       1.779   8.569  18.827  0.00  0.00    +0.000 A 
ATOM     23  C   UNL     1       1.916   9.736  17.891  0.00  0.00    +0.000 C 
ATOM     24  C   UNL     1       1.936   7.262  18.344  0.00  0.00    +0.000 A 
ENDBRANCH  17  18
ENDBRANCH   6  17
TORSDOF 6
ENDMDL
