MODEL 1
REMARK VINA RESULT:      -6.6      0.000      0.000
REMARK  Name = 
REMARK  5 active torsions:
REMARK  status: ('A' for Active; 'I' for Inactive)
REMARK    1  A    between atoms: C_1  and  C_2
REMARK    2  A    between atoms: C_2  and  N_3
REMARK    3  A    between atoms: C_4  and  S_5
REMARK    4  A    between atoms: S_5  and  C_6
REMARK    5  A    between atoms: C_6  and  C_7
REMARK                            x       y       z     vdW  Elec       q    Type
REMARK                         _______ _______ _______ _____ _____    ______ ____
ROOT
ATOM      1  N   UNL     1       5.200   4.347  17.044  0.00  0.00    +0.000 N 
ATOM      2  C   UNL     1       4.910   3.554  18.127  0.00  0.00    +0.000 A 
ATOM      3  N   UNL     1       5.605   3.902  19.189  0.00  0.00    +0.000 NA
ATOM      4  C   UNL     1       6.374   4.969  18.780  0.00  0.00    +0.000 A 
ATOM      5  C   UNL     1       7.334   5.713  19.485  0.00  0.00    +0.000 A 
ATOM      6  C   UNL     1       7.980   6.778  18.841  0.00  0.00    +0.000 A 
ATOM      7  C   UNL     1       7.673   7.103  17.519  0.00  0.00    +0.000 A 
ATOM      8  C   UNL     1       6.733   6.368  16.794  0.00  0.00    +0.000 A 
ATOM      9  C   UNL     1       6.110   5.295  17.453  0.00  0.00    +0.000 A 
ENDROOT
BRANCH   1  11
ATOM     10  C   UNL     1       5.845   3.906  14.697  0.00  0.00    +0.000 C 
ATOM     11  C   UNL     1       4.729   4.207  15.679  0.00  0.00    +0.000 C 
ENDBRANCH   1  11
BRANCH   2  12
ATOM     12  S   UNL     1       3.845   2.189  18.041  0.00  0.00    +0.000 S 
BRANCH  12  13
ATOM     13  C   UNL     1       2.208   2.980  18.063  0.00  0.00    +0.000 C 
BRANCH  13  14
ATOM     14  C   UNL     1       1.933   3.750  19.351  0.00  0.00    +0.000 C 
ATOM     15  O   UNL     1       1.691   3.201  20.427  0.00  0.00    +0.000 OA
ATOM     16  N   UNL     1       1.998   5.132  19.274  0.00  0.00    +0.000 N 
ATOM     17  C   UNL     1       2.202   5.965  18.104  0.00  0.00    +0.000 C 
ATOM     18  C   UNL     1       2.821   7.227  18.684  0.00  0.00    +0.000 C 
ATOM     19  C   UNL     1       2.125   7.376  20.037  0.00  0.00    +0.000 C 
ATOM     20  C   UNL     1       1.800   5.947  20.459  0.00  0.00    +0.000 C 
ENDBRANCH  13  14
ENDBRANCH  12  13
ENDBRANCH   2  12
TORSDOF 4
ENDMDL
MODEL 2
REMARK VINA RESULT:      -6.5      2.047      3.968
REMARK  Name = 
REMARK  5 active torsions:
REMARK  status: ('A' for Active; 'I' for Inactive)
REMARK    1  A    between atoms: C_1  and  C_2
REMARK    2  A    between atoms: C_2  and  N_3
REMARK    3  A    between atoms: C_4  and  S_5
REMARK    4  A    between atoms: S_5  and  C_6
REMARK    5  A    between atoms: C_6  and  C_7
REMARK                            x       y       z     vdW  Elec       q    Type
REMARK                         _______ _______ _______ _____ _____    ______ ____
ROOT
ATOM      1  N   UNL     1       6.724   5.131  16.107  0.00  0.00    +0.000 N 
ATOM      2  C   UNL     1       5.728   4.264  16.485  0.00  0.00    +0.000 A 
ATOM      3  N   UNL     1       5.291   3.548  15.471  0.00  0.00    +0.000 NA
ATOM      4  C   UNL     1       6.039   3.962  14.391  0.00  0.00    +0.000 A 
ATOM      5  C   UNL     1       5.974   3.570  13.044  0.00  0.00    +0.000 A 
ATOM      6  C   UNL     1       6.868   4.138  12.124  0.00  0.00    +0.000 A 
ATOM      7  C   UNL     1       7.814   5.076  12.537  0.00  0.00    +0.000 A 
ATOM      8  C   UNL     1       7.887   5.492  13.868  0.00  0.00    +0.000 A 
ATOM      9  C   UNL     1       6.971   4.923  14.769  0.00  0.00    +0.000 A 
ENDROOT
BRANCH   1  11
ATOM     10  C   UNL     1       6.474   7.344  17.182  0.00  0.00    +0.000 C 
ATOM     11  C   UNL     1       7.372   6.153  16.905  0.00  0.00    +0.000 C 
ENDBRANCH   1  11
BRANCH   2  12
ATOM     12  S   UNL     1       5.062   4.229  18.085  0.00  0.00    +0.000 S 
BRANCH  12  13
ATOM     13  C   UNL     1       3.455   5.043  17.849  0.00  0.00    +0.000 C 
BRANCH  13  14
ATOM     14  C   UNL     1       2.271   4.122  18.130  0.00  0.00    +0.000 C 
ATOM     15  O   UNL     1       1.593   3.603  17.242  0.00  0.00    +0.000 OA
ATOM     16  N   UNL     1       1.994   3.855  19.461  0.00  0.00    +0.000 N 
ATOM     17  C   UNL     1       2.622   4.410  20.646  0.00  0.00    +0.000 C 
ATOM     18  C   UNL     1       2.405   3.326  21.689  0.00  0.00    +0.000 C 
ATOM     19  C   UNL     1       1.032   2.758  21.333  0.00  0.00    +0.000 C 
ATOM     20  C   UNL     1       0.918   2.950  19.824  0.00  0.00    +0.000 C 
ENDBRANCH  13  14
ENDBRANCH  12  13
ENDBRANCH   2  12
TORSDOF 4
ENDMDL
MODEL 3
REMARK VINA RESULT:      -6.4      2.628      5.922
REMARK  Name = 
REMARK  5 active torsions:
REMARK  status: ('A' for Active; 'I' for Inactive)
REMARK    1  A    between atoms: C_1  and  C_2
REMARK    2  A    between atoms: C_2  and  N_3
REMARK    3  A    between atoms: C_4  and  S_5
REMARK    4  A    between atoms: S_5  and  C_6
REMARK    5  A    between atoms: C_6  and  C_7
REMARK                            x       y       z     vdW  Elec       q    Type
REMARK                         _______ _______ _______ _____ _____    ______ ____
ROOT
ATOM      1  N   UNL     1       2.740   5.650  19.838  0.00  0.00    +0.000 N 
ATOM      2  C   UNL     1       3.516   5.353  18.745  0.00  0.00    +0.000 A 
ATOM      3  N   UNL     1       3.534   6.338  17.874  0.00  0.00    +0.000 NA
ATOM      4  C   UNL     1       2.743   7.321  18.428  0.00  0.00    +0.000 A 
ATOM      5  C   UNL     1       2.373   8.576  17.919  0.00  0.00    +0.000 A 
ATOM      6  C   UNL     1       1.556   9.413  18.693  0.00  0.00    +0.000 A 
ATOM      7  C   UNL     1       1.119   9.011  19.955  0.00  0.00    +0.000 A 
ATOM      8  C   UNL     1       1.461   7.761  20.476  0.00  0.00    +0.000 A 
ATOM      9  C   UNL     1       2.266   6.932  19.676  0.00  0.00    +0.000 A 
ENDROOT
BRANCH   1  11
ATOM     10  C   UNL     1       1.152   3.946  20.669  0.00  0.00    +0.000 C 
ATOM     11  C   UNL     1       2.384   4.785  20.947  0.00  0.00    +0.000 C 
ENDBRANCH   1  11
BRANCH   2  12
ATOM     12  S   UNL     1       4.267   3.807  18.512  0.00  0.00    +0.000 S 
BRANCH  12  13
ATOM     13  C   UNL     1       4.498   3.763  16.710  0.00  0.00    +0.000 C 
BRANCH  13  14
ATOM     14  C   UNL     1       5.836   4.345  16.263  0.00  0.00    +0.000 C 
ATOM     15  O   UNL     1       6.693   4.749  17.051  0.00  0.00    +0.000 OA
ATOM     16  N   UNL     1       6.076   4.376  14.900  0.00  0.00    +0.000 N 
ATOM     17  C   UNL     1       5.184   4.014  13.814  0.00  0.00    +0.000 C 
ATOM     18  C   UNL     1       6.140   3.623  12.699  0.00  0.00    +0.000 C 
ATOM     19  C   UNL     1       7.317   4.579  12.886  0.00  0.00    +0.000 C 
ATOM     20  C   UNL     1       7.342   4.866  14.384  0.00  0.00    +0.000 C 
ENDBRANCH  13  14
ENDBRANCH  12  13
ENDBRANCH   2  12
TORSDOF 4
ENDMDL
MODEL 4
REMARK VINA RESULT:      -6.4      2.990      6.654
REMARK  Name = 
REMARK  5 active torsions:
REMARK  status: ('A' for Active; 'I' for Inactive)
REMARK    1  A    between atoms: C_1  and  C_2
REMARK    2  A    between atoms: C_2  and  N_3
REMARK    3  A    between atoms: C_4  and  S_5
REMARK    4  A    between atoms: S_5  and  C_6
REMARK    5  A    between atoms: C_6  and  C_7
REMARK                            x       y       z     vdW  Elec       q    Type
REMARK                         _______ _______ _______ _____ _____    ______ ____
ROOT
ATOM      1  N   UNL     1       3.196   5.463  18.605  0.00  0.00    +0.000 N 
ATOM      2  C   UNL     1       3.994   4.865  17.660  0.00  0.00    +0.000 A 
ATOM      3  N   UNL     1       3.787   3.568  17.593  0.00  0.00    +0.000 NA
ATOM      4  C   UNL     1       2.809   3.312  18.529  0.00  0.00    +0.000 A 
ATOM      5  C   UNL     1       2.227   2.095  18.918  0.00  0.00    +0.000 A 
ATOM      6  C   UNL     1       1.225   2.100  19.900  0.00  0.00    +0.000 A 
ATOM      7  C   UNL     1       0.804   3.296  20.481  0.00  0.00    +0.000 A 
ATOM      8  C   UNL     1       1.378   4.517  20.121  0.00  0.00    +0.000 A 
ATOM      9  C   UNL     1       2.392   4.487  19.149  0.00  0.00    +0.000 A 
ENDROOT
BRANCH   1  11
ATOM     10  C   UNL     1       2.251   7.725  18.274  0.00  0.00    +0.000 C 
ATOM     11  C   UNL     1       3.213   6.844  19.048  0.00  0.00    +0.000 C 
ENDBRANCH   1  11
BRANCH   2  12
ATOM     12  S   UNL     1       5.206   5.725  16.767  0.00  0.00    +0.000 S 
BRANCH  12  13
ATOM     13  C   UNL     1       6.053   4.382  15.882  0.00  0.00    +0.000 C 
BRANCH  13  14
ATOM     14  C   UNL     1       6.930   4.880  14.736  0.00  0.00    +0.000 C 
ATOM     15  O   UNL     1       7.830   5.708  14.885  0.00  0.00    +0.000 OA
ATOM     16  N   UNL     1       6.692   4.328  13.488  0.00  0.00    +0.000 N 
ATOM     17  C   UNL     1       5.652   3.397  13.092  0.00  0.00    +0.000 C 
ATOM     18  C   UNL     1       6.266   2.683  11.899  0.00  0.00    +0.000 C 
ATOM     19  C   UNL     1       7.089   3.773  11.214  0.00  0.00    +0.000 C 
ATOM     20  C   UNL     1       7.510   4.702  12.348  0.00  0.00    +0.000 C 
ENDBRANCH  13  14
ENDBRANCH  12  13
ENDBRANCH   2  12
TORSDOF 4
ENDMDL
MODEL 5
REMARK VINA RESULT:      -6.3      2.367      4.104
REMARK  Name = 
REMARK  5 active torsions:
REMARK  status: ('A' for Active; 'I' for Inactive)
REMARK    1  A    between atoms: C_1  and  C_2
REMARK    2  A    between atoms: C_2  and  N_3
REMARK    3  A    between atoms: C_4  and  S_5
REMARK    4  A    between atoms: S_5  and  C_6
REMARK    5  A    between atoms: C_6  and  C_7
REMARK                            x       y       z     vdW  Elec       q    Type
REMARK                         _______ _______ _______ _____ _____    ______ ____
ROOT
ATOM      1  N   UNL     1       6.194   5.307  15.839  0.00  0.00    +0.000 N 
ATOM      2  C   UNL     1       5.154   4.436  16.051  0.00  0.00    +0.000 A 
ATOM      3  N   UNL     1       4.937   3.667  15.007  0.00  0.00    +0.000 NA
ATOM      4  C   UNL     1       5.881   4.048  14.079  0.00  0.00    +0.000 A 
ATOM      5  C   UNL     1       6.092   3.594  12.766  0.00  0.00    +0.000 A 
ATOM      6  C   UNL     1       7.144   4.140  12.017  0.00  0.00    +0.000 A 
ATOM      7  C   UNL     1       7.978   5.115  12.564  0.00  0.00    +0.000 A 
ATOM      8  C   UNL     1       7.778   5.592  13.861  0.00  0.00    +0.000 A 
ATOM      9  C   UNL     1       6.707   5.045  14.588  0.00  0.00    +0.000 A 
ENDROOT
BRANCH   1  11
ATOM     10  C   UNL     1       7.549   5.888  17.825  0.00  0.00    +0.000 C 
ATOM     11  C   UNL     1       6.657   6.378  16.700  0.00  0.00    +0.000 C 
ENDBRANCH   1  11
BRANCH   2  12
ATOM     12  S   UNL     1       4.182   4.459  17.487  0.00  0.00    +0.000 S 
BRANCH  12  13
ATOM     13  C   UNL     1       4.141   2.701  17.948  0.00  0.00    +0.000 C 
BRANCH  13  14
ATOM     14  C   UNL     1       4.086   2.480  19.457  0.00  0.00    +0.000 C 
ATOM     15  O   UNL     1       5.081   2.233  20.140  0.00  0.00    +0.000 OA
ATOM     16  N   UNL     1       2.843   2.600  20.058  0.00  0.00    +0.000 N 
ATOM     17  C   UNL     1       1.552   2.819  19.432  0.00  0.00    +0.000 C 
ATOM     18  C   UNL     1       0.750   3.499  20.530  0.00  0.00    +0.000 C 
ATOM     19  C   UNL     1       1.256   2.833  21.808  0.00  0.00    +0.000 C 
ATOM     20  C   UNL     1       2.701   2.456  21.496  0.00  0.00    +0.000 C 
ENDBRANCH  13  14
ENDBRANCH  12  13
ENDBRANCH   2  12
TORSDOF 4
ENDMDL
MODEL 6
REMARK VINA RESULT:      -6.3      1.679      5.308
REMARK  Name = 
REMARK  5 active torsions:
REMARK  status: ('A' for Active; 'I' for Inactive)
REMARK    1  A    between atoms: C_1  and  C_2
REMARK    2  A    between atoms: C_2  and  N_3
REMARK    3  A    between atoms: C_4  and  S_5
REMARK    4  A    between atoms: S_5  and  C_6
REMARK    5  A    between atoms: C_6  and  C_7
REMARK                            x       y       z     vdW  Elec       q    Type
REMARK                         _______ _______ _______ _____ _____    ______ ____
ROOT
ATOM      1  N   UNL     1       2.320   5.430  19.628  0.00  0.00    +0.000 N 
ATOM      2  C   UNL     1       2.633   5.340  18.294  0.00  0.00    +0.000 A 
ATOM      3  N   UNL     1       2.480   6.491  17.676  0.00  0.00    +0.000 NA
ATOM      4  C   UNL     1       2.055   7.367  18.650  0.00  0.00    +0.000 A 
ATOM      5  C   UNL     1       1.696   8.722  18.552  0.00  0.00    +0.000 A 
ATOM      6  C   UNL     1       1.303   9.409  19.710  0.00  0.00    +0.000 A 
ATOM      7  C   UNL     1       1.274   8.763  20.946  0.00  0.00    +0.000 A 
ATOM      8  C   UNL     1       1.611   7.413  21.065  0.00  0.00    +0.000 A 
ATOM      9  C   UNL     1       1.984   6.740  19.890  0.00  0.00    +0.000 A 
ENDROOT
BRANCH   1  11
ATOM     10  C   UNL     1       0.931   3.621  20.587  0.00  0.00    +0.000 C 
ATOM     11  C   UNL     1       2.254   4.363  20.608  0.00  0.00    +0.000 C 
ENDBRANCH   1  11
BRANCH   2  12
ATOM     12  S   UNL     1       3.058   3.846  17.523  0.00  0.00    +0.000 S 
BRANCH  12  13
ATOM     13  C   UNL     1       4.760   4.171  16.974  0.00  0.00    +0.000 C 
BRANCH  13  14
ATOM     14  C   UNL     1       5.719   4.446  18.129  0.00  0.00    +0.000 C 
ATOM     15  O   UNL     1       5.892   3.662  19.064  0.00  0.00    +0.000 OA
ATOM     16  N   UNL     1       6.435   5.630  18.073  0.00  0.00    +0.000 N 
ATOM     17  C   UNL     1       6.333   6.706  17.104  0.00  0.00    +0.000 C 
ATOM     18  C   UNL     1       7.713   7.341  17.148  0.00  0.00    +0.000 C 
ATOM     19  C   UNL     1       8.118   7.214  18.616  0.00  0.00    +0.000 C 
ATOM     20  C   UNL     1       7.408   5.954  19.101  0.00  0.00    +0.000 C 
ENDBRANCH  13  14
ENDBRANCH  12  13
ENDBRANCH   2  12
TORSDOF 4
ENDMDL
MODEL 7
REMARK VINA RESULT:      -6.2      3.662      6.994
REMARK  Name = 
REMARK  5 active torsions:
REMARK  status: ('A' for Active; 'I' for Inactive)
REMARK    1  A    between atoms: C_1  and  C_2
REMARK    2  A    between atoms: C_2  and  N_3
REMARK    3  A    between atoms: C_4  and  S_5
REMARK    4  A    between atoms: S_5  and  C_6
REMARK    5  A    between atoms: C_6  and  C_7
REMARK                            x       y       z     vdW  Elec       q    Type
REMARK                         _______ _______ _______ _____ _____    ______ ____
ROOT
ATOM      1  N   UNL     1       0.775  10.061  19.470  0.00  0.00    +0.000 N 
ATOM      2  C   UNL     1       1.370   8.826  19.556  0.00  0.00    +0.000 A 
ATOM      3  N   UNL     1       1.193   8.279  20.739  0.00  0.00    +0.000 NA
ATOM      4  C   UNL     1       0.446   9.193  21.449  0.00  0.00    +0.000 A 
ATOM      5  C   UNL     1      -0.001   9.154  22.780  0.00  0.00    +0.000 A 
ATOM      6  C   UNL     1      -0.770  10.219  23.273  0.00  0.00    +0.000 A 
ATOM      7  C   UNL     1      -1.094  11.302  22.455  0.00  0.00    +0.000 A 
ATOM      8  C   UNL     1      -0.647  11.369  21.133  0.00  0.00    +0.000 A 
ATOM      9  C   UNL     1       0.136  10.300  20.666  0.00  0.00    +0.000 A 
ENDROOT
BRANCH   1  11
ATOM     10  C   UNL     1       1.910  12.073  18.586  0.00  0.00    +0.000 C 
ATOM     11  C   UNL     1       0.843  11.015  18.380  0.00  0.00    +0.000 C 
ENDBRANCH   1  11
BRANCH   2  12
ATOM     12  S   UNL     1       2.336   8.153  18.284  0.00  0.00    +0.000 S 
BRANCH  12  13
ATOM     13  C   UNL     1       2.999   6.650  19.063  0.00  0.00    +0.000 C 
BRANCH  13  14
ATOM     14  C   UNL     1       2.220   5.391  18.693  0.00  0.00    +0.000 C 
ATOM     15  O   UNL     1       1.901   5.110  17.537  0.00  0.00    +0.000 OA
ATOM     16  N   UNL     1       1.900   4.532  19.731  0.00  0.00    +0.000 N 
ATOM     17  C   UNL     1       2.124   4.707  21.154  0.00  0.00    +0.000 C 
ATOM     18  C   UNL     1       2.199   3.279  21.669  0.00  0.00    +0.000 C 
ATOM     19  C   UNL     1       1.194   2.531  20.795  0.00  0.00    +0.000 C 
ATOM     20  C   UNL     1       1.205   3.284  19.469  0.00  0.00    +0.000 C 
ENDBRANCH  13  14
ENDBRANCH  12  13
ENDBRANCH   2  12
TORSDOF 4
ENDMDL
MODEL 8
REMARK VINA RESULT:      -6.1      2.860      6.334
REMARK  Name = 
REMARK  5 active torsions:
REMARK  status: ('A' for Active; 'I' for Inactive)
REMARK    1  A    between atoms: C_1  and  C_2
REMARK    2  A    between atoms: C_2  and  N_3
REMARK    3  A    between atoms: C_4  and  S_5
REMARK    4  A    between atoms: S_5  and  C_6
REMARK    5  A    between atoms: C_6  and  C_7
REMARK                            x       y       z     vdW  Elec       q    Type
REMARK                         _______ _______ _______ _____ _____    ______ ____
ROOT
ATOM      1  N   UNL     1       3.890   5.136  18.693  0.00  0.00    +0.000 N 
ATOM      2  C   UNL     1       5.030   4.373  18.619  0.00  0.00    +0.000 A 
ATOM      3  N   UNL     1       4.964   3.318  19.401  0.00  0.00    +0.000 NA
ATOM      4  C   UNL     1       3.728   3.394  20.004  0.00  0.00    +0.000 A 
ATOM      5  C   UNL     1       3.138   2.557  20.965  0.00  0.00    +0.000 A 
ATOM      6  C   UNL     1       1.842   2.845  21.418  0.00  0.00    +0.000 A 
ATOM      7  C   UNL     1       1.141   3.943  20.919  0.00  0.00    +0.000 A 
ATOM      8  C   UNL     1       1.713   4.798  19.975  0.00  0.00    +0.000 A 
ATOM      9  C   UNL     1       3.018   4.501  19.548  0.00  0.00    +0.000 A 
ENDROOT
BRANCH   1  11
ATOM     10  C   UNL     1       2.226   6.930  18.334  0.00  0.00    +0.000 C 
ATOM     11  C   UNL     1       3.631   6.422  18.074  0.00  0.00    +0.000 C 
ENDBRANCH   1  11
BRANCH   2  12
ATOM     12  S   UNL     1       6.419   4.838  17.692  0.00  0.00    +0.000 S 
BRANCH  12  13
ATOM     13  C   UNL     1       5.868   4.517  15.990  0.00  0.00    +0.000 C 
BRANCH  13  14
ATOM     14  C   UNL     1       6.857   5.011  14.938  0.00  0.00    +0.000 C 
ATOM     15  O   UNL     1       7.774   5.794  15.188  0.00  0.00    +0.000 OA
ATOM     16  N   UNL     1       6.702   4.507  13.656  0.00  0.00    +0.000 N 
ATOM     17  C   UNL     1       5.662   3.635  13.145  0.00  0.00    +0.000 C 
ATOM     18  C   UNL     1       6.343   2.931  11.983  0.00  0.00    +0.000 C 
ATOM     19  C   UNL     1       7.265   4.005  11.405  0.00  0.00    +0.000 C 
ATOM     20  C   UNL     1       7.627   4.881  12.601  0.00  0.00    +0.000 C 
ENDBRANCH  13  14
ENDBRANCH  12  13
ENDBRANCH   2  12
TORSDOF 4
ENDMDL
MODEL 9
REMARK VINA RESULT:      -6.1      2.575      5.710
REMARK  Name = 
REMARK  5 active torsions:
REMARK  status: ('A' for Active; 'I' for Inactive)
REMARK    1  A    between atoms: C_1  and  C_2
REMARK    2  A    between atoms: C_2  and  N_3
REMARK    3  A    between atoms: C_4  and  S_5
REMARK    4  A    between atoms: S_5  and  C_6
REMARK    5  A    between atoms: C_6  and  C_7
REMARK                            x       y       z     vdW  Elec       q    Type
REMARK                         _______ _______ _______ _____ _____    ______ ____
ROOT
ATOM      1  N   UNL     1       4.009   5.087  18.396  0.00  0.00    +0.000 N 
ATOM      2  C   UNL     1       5.080   4.610  19.111  0.00  0.00    +0.000 A 
ATOM      3  N   UNL     1       4.802   3.472  19.710  0.00  0.00    +0.000 NA
ATOM      4  C   UNL     1       3.497   3.196  19.366  0.00  0.00    +0.000 A 
ATOM      5  C   UNL     1       2.667   2.131  19.753  0.00  0.00    +0.000 A 
ATOM      6  C   UNL     1       1.360   2.065  19.247  0.00  0.00    +0.000 A 
ATOM      7  C   UNL     1       0.888   3.038  18.366  0.00  0.00    +0.000 A 
ATOM      8  C   UNL     1       1.690   4.114  17.979  0.00  0.00    +0.000 A 
ATOM      9  C   UNL     1       2.989   4.169  18.512  0.00  0.00    +0.000 A 
ENDROOT
BRANCH   1  11
ATOM     10  C   UNL     1       2.961   7.328  18.403  0.00  0.00    +0.000 C 
ATOM     11  C   UNL     1       3.888   6.354  17.701  0.00  0.00    +0.000 C 
ENDBRANCH   1  11
BRANCH   2  12
ATOM     12  S   UNL     1       6.567   5.486  19.283  0.00  0.00    +0.000 S 
BRANCH  12  13
ATOM     13  C   UNL     1       7.545   4.856  17.886  0.00  0.00    +0.000 C 
BRANCH  13  14
ATOM     14  C   UNL     1       7.262   5.591  16.579  0.00  0.00    +0.000 C 
ATOM     15  O   UNL     1       7.674   6.728  16.341  0.00  0.00    +0.000 OA
ATOM     16  N   UNL     1       6.531   4.903  15.625  0.00  0.00    +0.000 N 
ATOM     17  C   UNL     1       5.906   3.597  15.731  0.00  0.00    +0.000 C 
ATOM     18  C   UNL     1       5.860   3.121  14.288  0.00  0.00    +0.000 C 
ATOM     19  C   UNL     1       5.606   4.403  13.496  0.00  0.00    +0.000 C 
ATOM     20  C   UNL     1       6.256   5.502  14.331  0.00  0.00    +0.000 C 
ENDBRANCH  13  14
ENDBRANCH  12  13
ENDBRANCH   2  12
TORSDOF 4
ENDMDL
