MODEL 1
REMARK VINA RESULT:      -7.8      0.000      0.000
REMARK  Name = 
REMARK  3 active torsions:
REMARK  status: ('A' for Active; 'I' for Inactive)
REMARK    1  A    between atoms: C_2  and  C_3
REMARK    2  A    between atoms: C_3  and  C_4
REMARK    3  A    between atoms: C_17  and  C_18
REMARK                            x       y       z     vdW  Elec       q    Type
REMARK                         _______ _______ _______ _____ _____    ______ ____
ROOT
ATOM      1  O   UNL     1       2.433   8.363  17.234  0.00  0.00    +0.000 OA
ATOM      2  C   UNL     1       2.222   8.260  18.446  0.00  0.00    +0.000 C 
ATOM      3  N   UNL     1       1.482   9.208  19.141  0.00  0.00    +0.000 N 
ATOM      4  C   UNL     1       1.215   9.215  20.580  0.00  0.00    +0.000 C 
ATOM      5  C   UNL     1      -0.287   9.302  20.852  0.00  0.00    +0.000 C 
ATOM      6  C   UNL     1      -0.997  10.414  20.059  0.00  0.00    +0.000 C 
ATOM      7  C   UNL     1      -0.576  10.409  18.581  0.00  0.00    +0.000 C 
ATOM      8  C   UNL     1       0.935  10.344  18.403  0.00  0.00    +0.000 C 
ENDROOT
BRANCH   6   9
ATOM      9  C   UNL     1      -0.899  11.793  20.694  0.00  0.00    +0.000 A 
ATOM     10  C   UNL     1      -0.629  12.097  22.071  0.00  0.00    +0.000 A 
ATOM     11  C   UNL     1      -0.571  13.449  22.325  0.00  0.00    +0.000 A 
ATOM     12  S   UNL     1      -0.851  14.376  20.925  0.00  0.00    +0.000 S 
ATOM     13  C   UNL     1      -1.045  12.969  19.972  0.00  0.00    +0.000 A 
ENDBRANCH   6   9
BRANCH   2  14
ATOM     14  C   UNL     1       2.777   7.058  19.197  0.00  0.00    +0.000 C 
BRANCH  14  15
ATOM     15  C   UNL     1       2.923   5.795  18.363  0.00  0.00    +0.000 A 
ATOM     16  C   UNL     1       1.869   4.857  18.367  0.00  0.00    +0.000 A 
ATOM     17  C   UNL     1       1.961   3.665  17.657  0.00  0.00    +0.000 A 
ATOM     18  C   UNL     1       3.113   3.380  16.935  0.00  0.00    +0.000 A 
ATOM     19  C   UNL     1       4.192   4.272  16.923  0.00  0.00    +0.000 A 
ATOM     20  C   UNL     1       5.349   3.949  16.194  0.00  0.00    +0.000 A 
ATOM     21  C   UNL     1       6.448   4.803  16.175  0.00  0.00    +0.000 A 
ATOM     22  C   UNL     1       6.411   5.986  16.898  0.00  0.00    +0.000 A 
ATOM     23  C   UNL     1       5.268   6.320  17.630  0.00  0.00    +0.000 A 
ATOM     24  C   UNL     1       4.120   5.490  17.652  0.00  0.00    +0.000 A 
ENDBRANCH  14  15
ENDBRANCH   2  14
TORSDOF 3
ENDMDL
MODEL 2
REMARK VINA RESULT:      -7.7      0.811      2.464
REMARK  Name = 
REMARK  3 active torsions:
REMARK  status: ('A' for Active; 'I' for Inactive)
REMARK    1  A    between atoms: C_2  and  C_3
REMARK    2  A    between atoms: C_3  and  C_4
REMARK    3  A    between atoms: C_17  and  C_18
REMARK                            x       y       z     vdW  Elec       q    Type
REMARK                         _______ _______ _______ _____ _____    ______ ____
ROOT
ATOM      1  O   UNL     1       2.440   8.298  17.325  0.00  0.00    +0.000 OA
ATOM      2  C   UNL     1       2.205   8.241  18.536  0.00  0.00    +0.000 C 
ATOM      3  N   UNL     1       1.478   9.229  19.186  0.00  0.00    +0.000 N 
ATOM      4  C   UNL     1       1.186   9.289  20.619  0.00  0.00    +0.000 C 
ATOM      5  C   UNL     1      -0.317   9.422  20.862  0.00  0.00    +0.000 C 
ATOM      6  C   UNL     1      -0.985  10.524  20.020  0.00  0.00    +0.000 C 
ATOM      7  C   UNL     1      -0.540  10.460  18.551  0.00  0.00    +0.000 C 
ATOM      8  C   UNL     1       0.972  10.352  18.402  0.00  0.00    +0.000 C 
ENDROOT
BRANCH   6   9
ATOM      9  C   UNL     1      -0.864  11.921  20.611  0.00  0.00    +0.000 A 
ATOM     10  C   UNL     1      -0.507  12.264  21.959  0.00  0.00    +0.000 A 
ATOM     11  C   UNL     1      -0.450  13.623  22.174  0.00  0.00    +0.000 A 
ATOM     12  S   UNL     1      -0.834  14.509  20.772  0.00  0.00    +0.000 S 
ATOM     13  C   UNL     1      -1.073  13.075  19.871  0.00  0.00    +0.000 A 
ENDBRANCH   6   9
BRANCH   2  14
ATOM     14  C   UNL     1       2.717   7.051  19.335  0.00  0.00    +0.000 C 
BRANCH  14  15
ATOM     15  C   UNL     1       3.198   5.876  18.496  0.00  0.00    +0.000 A 
ATOM     16  C   UNL     1       4.231   6.092  17.561  0.00  0.00    +0.000 A 
ATOM     17  C   UNL     1       4.686   5.068  16.738  0.00  0.00    +0.000 A 
ATOM     18  C   UNL     1       4.109   3.806  16.825  0.00  0.00    +0.000 A 
ATOM     19  C   UNL     1       3.063   3.555  17.722  0.00  0.00    +0.000 A 
ATOM     20  C   UNL     1       2.492   2.273  17.777  0.00  0.00    +0.000 A 
ATOM     21  C   UNL     1       1.439   1.992  18.643  0.00  0.00    +0.000 A 
ATOM     22  C   UNL     1       0.933   2.995  19.456  0.00  0.00    +0.000 A 
ATOM     23  C   UNL     1       1.490   4.277  19.412  0.00  0.00    +0.000 A 
ATOM     24  C   UNL     1       2.579   4.593  18.563  0.00  0.00    +0.000 A 
ENDBRANCH  14  15
ENDBRANCH   2  14
TORSDOF 3
ENDMDL
MODEL 3
REMARK VINA RESULT:      -7.5      1.377      2.931
REMARK  Name = 
REMARK  3 active torsions:
REMARK  status: ('A' for Active; 'I' for Inactive)
REMARK    1  A    between atoms: C_2  and  C_3
REMARK    2  A    between atoms: C_3  and  C_4
REMARK    3  A    between atoms: C_17  and  C_18
REMARK                            x       y       z     vdW  Elec       q    Type
REMARK                         _______ _______ _______ _____ _____    ______ ____
ROOT
ATOM      1  O   UNL     1       2.326   7.361  20.218  0.00  0.00    +0.000 OA
ATOM      2  C   UNL     1       1.903   8.057  19.290  0.00  0.00    +0.000 C 
ATOM      3  N   UNL     1       1.038   9.120  19.511  0.00  0.00    +0.000 N 
ATOM      4  C   UNL     1       0.435   9.975  18.487  0.00  0.00    +0.000 C 
ATOM      5  C   UNL     1       0.722  11.449  18.773  0.00  0.00    +0.000 C 
ATOM      6  C   UNL     1       0.421  11.868  20.223  0.00  0.00    +0.000 C 
ATOM      7  C   UNL     1       0.991  10.860  21.232  0.00  0.00    +0.000 C 
ATOM      8  C   UNL     1       0.638   9.420  20.884  0.00  0.00    +0.000 C 
ENDROOT
BRANCH   6   9
ATOM      9  C   UNL     1      -1.040  12.202  20.486  0.00  0.00    +0.000 A 
ATOM     10  C   UNL     1      -2.088  12.335  19.513  0.00  0.00    +0.000 A 
ATOM     11  C   UNL     1      -3.316  12.609  20.074  0.00  0.00    +0.000 A 
ATOM     12  S   UNL     1      -3.232  12.724  21.770  0.00  0.00    +0.000 S 
ATOM     13  C   UNL     1      -1.552  12.401  21.759  0.00  0.00    +0.000 A 
ENDBRANCH   6   9
BRANCH   2  14
ATOM     14  C   UNL     1       2.349   7.748  17.868  0.00  0.00    +0.000 C 
BRANCH  14  15
ATOM     15  C   UNL     1       3.394   6.650  17.749  0.00  0.00    +0.000 A 
ATOM     16  C   UNL     1       4.737   7.018  17.520  0.00  0.00    +0.000 A 
ATOM     17  C   UNL     1       5.731   6.059  17.363  0.00  0.00    +0.000 A 
ATOM     18  C   UNL     1       5.403   4.710  17.420  0.00  0.00    +0.000 A 
ATOM     19  C   UNL     1       4.079   4.301  17.620  0.00  0.00    +0.000 A 
ATOM     20  C   UNL     1       3.777   2.930  17.660  0.00  0.00    +0.000 A 
ATOM     21  C   UNL     1       2.469   2.487  17.840  0.00  0.00    +0.000 A 
ATOM     22  C   UNL     1       1.443   3.411  17.966  0.00  0.00    +0.000 A 
ATOM     23  C   UNL     1       1.727   4.779  17.927  0.00  0.00    +0.000 A 
ATOM     24  C   UNL     1       3.048   5.267  17.773  0.00  0.00    +0.000 A 
ENDBRANCH  14  15
ENDBRANCH   2  14
TORSDOF 3
ENDMDL
MODEL 4
REMARK VINA RESULT:      -7.4      1.297      1.925
REMARK  Name = 
REMARK  3 active torsions:
REMARK  status: ('A' for Active; 'I' for Inactive)
REMARK    1  A    between atoms: C_2  and  C_3
REMARK    2  A    between atoms: C_3  and  C_4
REMARK    3  A    between atoms: C_17  and  C_18
REMARK                            x       y       z     vdW  Elec       q    Type
REMARK                         _______ _______ _______ _____ _____    ______ ____
ROOT
ATOM      1  O   UNL     1       2.177   6.973  20.351  0.00  0.00    +0.000 OA
ATOM      2  C   UNL     1       1.991   7.821  19.473  0.00  0.00    +0.000 C 
ATOM      3  N   UNL     1       1.162   8.916  19.679  0.00  0.00    +0.000 N 
ATOM      4  C   UNL     1       0.829   9.949  18.698  0.00  0.00    +0.000 C 
ATOM      5  C   UNL     1       1.137  11.341  19.249  0.00  0.00    +0.000 C 
ATOM      6  C   UNL     1       0.574  11.586  20.660  0.00  0.00    +0.000 C 
ATOM      7  C   UNL     1       0.869  10.406  21.599  0.00  0.00    +0.000 C 
ATOM      8  C   UNL     1       0.511   9.062  20.979  0.00  0.00    +0.000 C 
ENDROOT
BRANCH   6   9
ATOM      9  C   UNL     1      -0.888  12.006  20.684  0.00  0.00    +0.000 A 
ATOM     10  C   UNL     1      -1.749  12.215  19.554  0.00  0.00    +0.000 A 
ATOM     11  C   UNL     1      -3.035  12.558  19.910  0.00  0.00    +0.000 A 
ATOM     12  S   UNL     1      -3.228  12.648  21.599  0.00  0.00    +0.000 S 
ATOM     13  C   UNL     1      -1.593  12.222  21.859  0.00  0.00    +0.000 A 
ENDBRANCH   6   9
BRANCH   2  14
ATOM     14  C   UNL     1       2.696   7.668  18.133  0.00  0.00    +0.000 C 
BRANCH  14  15
ATOM     15  C   UNL     1       3.032   6.236  17.746  0.00  0.00    +0.000 A 
ATOM     16  C   UNL     1       2.034   5.248  17.882  0.00  0.00    +0.000 A 
ATOM     17  C   UNL     1       2.293   3.915  17.583  0.00  0.00    +0.000 A 
ATOM     18  C   UNL     1       3.559   3.539  17.151  0.00  0.00    +0.000 A 
ATOM     19  C   UNL     1       4.585   4.484  17.025  0.00  0.00    +0.000 A 
ATOM     20  C   UNL     1       5.858   4.070  16.599  0.00  0.00    +0.000 A 
ATOM     21  C   UNL     1       6.907   4.978  16.480  0.00  0.00    +0.000 A 
ATOM     22  C   UNL     1       6.700   6.311  16.803  0.00  0.00    +0.000 A 
ATOM     23  C   UNL     1       5.439   6.738  17.230  0.00  0.00    +0.000 A 
ATOM     24  C   UNL     1       4.342   5.848  17.337  0.00  0.00    +0.000 A 
ENDBRANCH  14  15
ENDBRANCH   2  14
TORSDOF 3
ENDMDL
MODEL 5
REMARK VINA RESULT:      -7.4      3.209      8.365
REMARK  Name = 
REMARK  3 active torsions:
REMARK  status: ('A' for Active; 'I' for Inactive)
REMARK    1  A    between atoms: C_2  and  C_3
REMARK    2  A    between atoms: C_3  and  C_4
REMARK    3  A    between atoms: C_17  and  C_18
REMARK                            x       y       z     vdW  Elec       q    Type
REMARK                         _______ _______ _______ _____ _____    ______ ____
ROOT
ATOM      1  O   UNL     1       0.007   9.365  21.232  0.00  0.00    +0.000 OA
ATOM      2  C   UNL     1       0.557   9.615  20.155  0.00  0.00    +0.000 C 
ATOM      3  N   UNL     1       1.552   8.798  19.637  0.00  0.00    +0.000 N 
ATOM      4  C   UNL     1       2.306   9.025  18.403  0.00  0.00    +0.000 C 
ATOM      5  C   UNL     1       2.216   7.809  17.481  0.00  0.00    +0.000 C 
ATOM      6  C   UNL     1       2.517   6.474  18.184  0.00  0.00    +0.000 C 
ATOM      7  C   UNL     1       1.775   6.363  19.525  0.00  0.00    +0.000 C 
ATOM      8  C   UNL     1       1.938   7.606  20.389  0.00  0.00    +0.000 C 
ENDROOT
BRANCH   6   9
ATOM      9  C   UNL     1       3.999   6.153  18.303  0.00  0.00    +0.000 A 
ATOM     10  C   UNL     1       4.632   5.335  19.300  0.00  0.00    +0.000 A 
ATOM     11  C   UNL     1       5.991   5.208  19.113  0.00  0.00    +0.000 A 
ATOM     12  S   UNL     1       6.532   6.074  17.752  0.00  0.00    +0.000 S 
ATOM     13  C   UNL     1       4.948   6.617  17.405  0.00  0.00    +0.000 A 
ENDBRANCH   6   9
BRANCH   2  14
ATOM     14  C   UNL     1       0.126  10.846  19.371  0.00  0.00    +0.000 C 
BRANCH  14  15
ATOM     15  C   UNL     1      -1.195  10.705  18.631  0.00  0.00    +0.000 A 
ATOM     16  C   UNL     1      -1.235   9.910  17.467  0.00  0.00    +0.000 A 
ATOM     17  C   UNL     1      -2.404   9.774  16.726  0.00  0.00    +0.000 A 
ATOM     18  C   UNL     1      -3.556  10.439  17.127  0.00  0.00    +0.000 A 
ATOM     19  C   UNL     1      -3.553  11.258  18.263  0.00  0.00    +0.000 A 
ATOM     20  C   UNL     1      -4.730  11.928  18.635  0.00  0.00    +0.000 A 
ATOM     21  C   UNL     1      -4.760  12.763  19.748  0.00  0.00    +0.000 A 
ATOM     22  C   UNL     1      -3.607  12.954  20.495  0.00  0.00    +0.000 A 
ATOM     23  C   UNL     1      -2.427  12.296  20.136  0.00  0.00    +0.000 A 
ATOM     24  C   UNL     1      -2.365  11.417  19.026  0.00  0.00    +0.000 A 
ENDBRANCH  14  15
ENDBRANCH   2  14
TORSDOF 3
ENDMDL
MODEL 6
REMARK VINA RESULT:      -7.2      1.371      1.970
REMARK  Name = 
REMARK  3 active torsions:
REMARK  status: ('A' for Active; 'I' for Inactive)
REMARK    1  A    between atoms: C_2  and  C_3
REMARK    2  A    between atoms: C_3  and  C_4
REMARK    3  A    between atoms: C_17  and  C_18
REMARK                            x       y       z     vdW  Elec       q    Type
REMARK                         _______ _______ _______ _____ _____    ______ ____
ROOT
ATOM      1  O   UNL     1       2.167   7.777  18.338  0.00  0.00    +0.000 OA
ATOM      2  C   UNL     1       2.047   7.763  19.567  0.00  0.00    +0.000 C 
ATOM      3  N   UNL     1       1.397   8.783  20.249  0.00  0.00    +0.000 N 
ATOM      4  C   UNL     1       1.243   8.895  21.700  0.00  0.00    +0.000 C 
ATOM      5  C   UNL     1      -0.229   9.060  22.078  0.00  0.00    +0.000 C 
ATOM      6  C   UNL     1      -0.959  10.144  21.266  0.00  0.00    +0.000 C 
ATOM      7  C   UNL     1      -0.655  10.025  19.765  0.00  0.00    +0.000 C 
ATOM      8  C   UNL     1       0.834   9.888  19.478  0.00  0.00    +0.000 C 
ENDROOT
BRANCH   6   9
ATOM      9  C   UNL     1      -0.765  11.557  21.795  0.00  0.00    +0.000 A 
ATOM     10  C   UNL     1       0.124  12.561  21.282  0.00  0.00    +0.000 A 
ATOM     11  C   UNL     1       0.041  13.756  21.962  0.00  0.00    +0.000 A 
ATOM     12  S   UNL     1      -1.090  13.692  23.232  0.00  0.00    +0.000 S 
ATOM     13  C   UNL     1      -1.478  12.065  22.871  0.00  0.00    +0.000 A 
ENDBRANCH   6   9
BRANCH   2  14
ATOM     14  C   UNL     1       2.618   6.592  20.355  0.00  0.00    +0.000 C 
BRANCH  14  15
ATOM     15  C   UNL     1       2.187   5.219  19.862  0.00  0.00    +0.000 A 
ATOM     16  C   UNL     1       1.098   4.585  20.496  0.00  0.00    +0.000 A 
ATOM     17  C   UNL     1       0.683   3.313  20.117  0.00  0.00    +0.000 A 
ATOM     18  C   UNL     1       1.354   2.642  19.102  0.00  0.00    +0.000 A 
ATOM     19  C   UNL     1       2.456   3.225  18.463  0.00  0.00    +0.000 A 
ATOM     20  C   UNL     1       3.122   2.517  17.450  0.00  0.00    +0.000 A 
ATOM     21  C   UNL     1       4.231   3.057  16.805  0.00  0.00    +0.000 A 
ATOM     22  C   UNL     1       4.699   4.309  17.177  0.00  0.00    +0.000 A 
ATOM     23  C   UNL     1       4.048   5.026  18.185  0.00  0.00    +0.000 A 
ATOM     24  C   UNL     1       2.900   4.520  18.844  0.00  0.00    +0.000 A 
ENDBRANCH  14  15
ENDBRANCH   2  14
TORSDOF 3
ENDMDL
MODEL 7
REMARK VINA RESULT:      -7.2      1.128      1.816
REMARK  Name = 
REMARK  3 active torsions:
REMARK  status: ('A' for Active; 'I' for Inactive)
REMARK    1  A    between atoms: C_2  and  C_3
REMARK    2  A    between atoms: C_3  and  C_4
REMARK    3  A    between atoms: C_17  and  C_18
REMARK                            x       y       z     vdW  Elec       q    Type
REMARK                         _______ _______ _______ _____ _____    ______ ____
ROOT
ATOM      1  O   UNL     1       2.420   7.704  17.671  0.00  0.00    +0.000 OA
ATOM      2  C   UNL     1       2.244   7.833  18.886  0.00  0.00    +0.000 C 
ATOM      3  N   UNL     1       1.528   8.900  19.411  0.00  0.00    +0.000 N 
ATOM      4  C   UNL     1       1.303   9.180  20.830  0.00  0.00    +0.000 C 
ATOM      5  C   UNL     1      -0.189   9.329  21.123  0.00  0.00    +0.000 C 
ATOM      6  C   UNL     1      -0.919  10.278  20.156  0.00  0.00    +0.000 C 
ATOM      7  C   UNL     1      -0.542   9.992  18.694  0.00  0.00    +0.000 C 
ATOM      8  C   UNL     1       0.963   9.881  18.488  0.00  0.00    +0.000 C 
ENDROOT
BRANCH   6   9
ATOM      9  C   UNL     1      -0.799  11.751  20.516  0.00  0.00    +0.000 A 
ATOM     10  C   UNL     1      -0.372  12.305  21.771  0.00  0.00    +0.000 A 
ATOM     11  C   UNL     1      -0.337  13.682  21.770  0.00  0.00    +0.000 A 
ATOM     12  S   UNL     1      -0.826  14.333  20.276  0.00  0.00    +0.000 S 
ATOM     13  C   UNL     1      -1.080  12.773  19.622  0.00  0.00    +0.000 A 
ENDBRANCH   6   9
BRANCH   2  14
ATOM     14  C   UNL     1       2.817   6.788  19.833  0.00  0.00    +0.000 C 
BRANCH  14  15
ATOM     15  C   UNL     1       2.261   5.385  19.652  0.00  0.00    +0.000 A 
ATOM     16  C   UNL     1       1.191   4.972  20.472  0.00  0.00    +0.000 A 
ATOM     17  C   UNL     1       0.665   3.687  20.381  0.00  0.00    +0.000 A 
ATOM     18  C   UNL     1       1.206   2.784  19.474  0.00  0.00    +0.000 A 
ATOM     19  C   UNL     1       2.284   3.146  18.657  0.00  0.00    +0.000 A 
ATOM     20  C   UNL     1       2.817   2.206  17.759  0.00  0.00    +0.000 A 
ATOM     21  C   UNL     1       3.901   2.524  16.945  0.00  0.00    +0.000 A 
ATOM     22  C   UNL     1       4.477   3.783  17.030  0.00  0.00    +0.000 A 
ATOM     23  C   UNL     1       3.959   4.729  17.920  0.00  0.00    +0.000 A 
ATOM     24  C   UNL     1       2.841   4.450  18.745  0.00  0.00    +0.000 A 
ENDBRANCH  14  15
ENDBRANCH   2  14
TORSDOF 3
ENDMDL
MODEL 8
REMARK VINA RESULT:      -7.2      2.347      3.932
REMARK  Name = 
REMARK  3 active torsions:
REMARK  status: ('A' for Active; 'I' for Inactive)
REMARK    1  A    between atoms: C_2  and  C_3
REMARK    2  A    between atoms: C_3  and  C_4
REMARK    3  A    between atoms: C_17  and  C_18
REMARK                            x       y       z     vdW  Elec       q    Type
REMARK                         _______ _______ _______ _____ _____    ______ ____
ROOT
ATOM      1  O   UNL     1       2.568   3.902  20.594  0.00  0.00    +0.000 OA
ATOM      2  C   UNL     1       2.728   4.477  19.512  0.00  0.00    +0.000 C 
ATOM      3  N   UNL     1       2.176   5.726  19.261  0.00  0.00    +0.000 N 
ATOM      4  C   UNL     1       2.256   6.473  18.006  0.00  0.00    +0.000 C 
ATOM      5  C   UNL     1       2.817   7.875  18.242  0.00  0.00    +0.000 C 
ATOM      6  C   UNL     1       2.133   8.628  19.398  0.00  0.00    +0.000 C 
ATOM      7  C   UNL     1       1.987   7.738  20.642  0.00  0.00    +0.000 C 
ATOM      8  C   UNL     1       1.400   6.371  20.318  0.00  0.00    +0.000 C 
ENDROOT
BRANCH   6   9
ATOM      9  C   UNL     1       0.834   9.318  19.011  0.00  0.00    +0.000 A 
ATOM     10  C   UNL     1       0.239   9.379  17.705  0.00  0.00    +0.000 A 
ATOM     11  C   UNL     1      -0.963  10.051  17.689  0.00  0.00    +0.000 A 
ATOM     12  S   UNL     1      -1.392  10.630  19.231  0.00  0.00    +0.000 S 
ATOM     13  C   UNL     1       0.027   9.977  19.927  0.00  0.00    +0.000 A 
ENDBRANCH   6   9
BRANCH   2  14
ATOM     14  C   UNL     1       3.560   3.804  18.431  0.00  0.00    +0.000 C 
BRANCH  14  15
ATOM     15  C   UNL     1       4.945   4.399  18.224  0.00  0.00    +0.000 A 
ATOM     16  C   UNL     1       5.620   4.940  19.338  0.00  0.00    +0.000 A 
ATOM     17  C   UNL     1       6.870   5.535  19.206  0.00  0.00    +0.000 A 
ATOM     18  C   UNL     1       7.468   5.610  17.954  0.00  0.00    +0.000 A 
ATOM     19  C   UNL     1       6.821   5.108  16.818  0.00  0.00    +0.000 A 
ATOM     20  C   UNL     1       7.446   5.211  15.564  0.00  0.00    +0.000 A 
ATOM     21  C   UNL     1       6.825   4.739  14.411  0.00  0.00    +0.000 A 
ATOM     22  C   UNL     1       5.563   4.171  14.494  0.00  0.00    +0.000 A 
ATOM     23  C   UNL     1       4.927   4.062  15.735  0.00  0.00    +0.000 A 
ATOM     24  C   UNL     1       5.539   4.507  16.933  0.00  0.00    +0.000 A 
ENDBRANCH  14  15
ENDBRANCH   2  14
TORSDOF 3
ENDMDL
MODEL 9
REMARK VINA RESULT:      -7.0      2.013      2.819
REMARK  Name = 
REMARK  3 active torsions:
REMARK  status: ('A' for Active; 'I' for Inactive)
REMARK    1  A    between atoms: C_2  and  C_3
REMARK    2  A    between atoms: C_3  and  C_4
REMARK    3  A    between atoms: C_17  and  C_18
REMARK                            x       y       z     vdW  Elec       q    Type
REMARK                         _______ _______ _______ _____ _____    ______ ____
ROOT
ATOM      1  O   UNL     1       1.539   8.237  21.876  0.00  0.00    +0.000 OA
ATOM      2  C   UNL     1       1.336   8.529  20.693  0.00  0.00    +0.000 C 
ATOM      3  N   UNL     1       0.334   9.415  20.322  0.00  0.00    +0.000 N 
ATOM      4  C   UNL     1      -0.028   9.791  18.955  0.00  0.00    +0.000 C 
ATOM      5  C   UNL     1      -0.002  11.310  18.784  0.00  0.00    +0.000 C 
ATOM      6  C   UNL     1      -0.763  12.069  19.885  0.00  0.00    +0.000 C 
ATOM      7  C   UNL     1      -0.412  11.539  21.284  0.00  0.00    +0.000 C 
ATOM      8  C   UNL     1      -0.485  10.020  21.369  0.00  0.00    +0.000 C 
ENDROOT
BRANCH   6   9
ATOM      9  C   UNL     1      -2.264  12.166  19.653  0.00  0.00    +0.000 A 
ATOM     10  C   UNL     1      -3.005  11.640  18.541  0.00  0.00    +0.000 A 
ATOM     11  C   UNL     1      -4.361  11.864  18.641  0.00  0.00    +0.000 A 
ATOM     12  S   UNL     1      -4.766  12.716  20.058  0.00  0.00    +0.000 S 
ATOM     13  C   UNL     1      -3.128  12.783  20.545  0.00  0.00    +0.000 A 
ENDBRANCH   6   9
BRANCH   2  14
ATOM     14  C   UNL     1       2.215   7.910  19.616  0.00  0.00    +0.000 C 
BRANCH  14  15
ATOM     15  C   UNL     1       2.172   6.391  19.549  0.00  0.00    +0.000 A 
ATOM     16  C   UNL     1       1.386   5.696  20.493  0.00  0.00    +0.000 A 
ATOM     17  C   UNL     1       1.338   4.307  20.508  0.00  0.00    +0.000 A 
ATOM     18  C   UNL     1       2.084   3.581  19.587  0.00  0.00    +0.000 A 
ATOM     19  C   UNL     1       2.896   4.231  18.649  0.00  0.00    +0.000 A 
ATOM     20  C   UNL     1       3.647   3.469  17.739  0.00  0.00    +0.000 A 
ATOM     21  C   UNL     1       4.479   4.080  16.805  0.00  0.00    +0.000 A 
ATOM     22  C   UNL     1       4.582   5.463  16.779  0.00  0.00    +0.000 A 
ATOM     23  C   UNL     1       3.842   6.235  17.679  0.00  0.00    +0.000 A 
ATOM     24  C   UNL     1       2.965   5.650  18.626  0.00  0.00    +0.000 A 
ENDBRANCH  14  15
ENDBRANCH   2  14
TORSDOF 3
ENDMDL
