MODEL 1
REMARK VINA RESULT:      -6.6      0.000      0.000
REMARK  Name = 
REMARK  9 active torsions:
REMARK  status: ('A' for Active; 'I' for Inactive)
REMARK    1  A    between atoms: C_1  and  C_2
REMARK    2  A    between atoms: C_2  and  N_3
REMARK    3  A    between atoms: C_4  and  C_5
REMARK    4  A    between atoms: C_9  and  O_10
REMARK    5  A    between atoms: C_11  and  C_12
REMARK    6  A    between atoms: C_12  and  N_13
REMARK    7  A    between atoms: N_13  and  C_14
REMARK    8  A    between atoms: C_17  and  O_18
REMARK    9  A    between atoms: O_18  and  C_19
REMARK                            x       y       z     vdW  Elec       q    Type
REMARK                         _______ _______ _______ _____ _____    ______ ____
ROOT
ATOM      1  N   UNL     1       2.472   4.943  19.041  0.00  0.00    +0.000 N 
ATOM      2  C   UNL     1       1.949   5.076  20.354  0.00  0.00    +0.000 A 
ATOM      3  C   UNL     1       1.094   6.261  20.754  0.00  0.00    +0.000 C 
ATOM      4  C   UNL     1       2.163   4.165  21.318  0.00  0.00    +0.000 A 
ATOM      5  C   UNL     1       2.985   2.988  21.022  0.00  0.00    +0.000 A 
ATOM      6  O   UNL     1       3.257   2.149  21.879  0.00  0.00    +0.000 OA
ATOM      7  C   UNL     1       3.446   2.795  19.626  0.00  0.00    +0.000 A 
ATOM      8  C   UNL     1       3.171   3.738  18.695  0.00  0.00    +0.000 A 
ENDROOT
BRANCH   1  10
ATOM      9  C   UNL     1       3.477   7.097  18.294  0.00  0.00    +0.000 C 
ATOM     10  C   UNL     1       2.374   6.071  18.082  0.00  0.00    +0.000 C 
ENDBRANCH   1  10
BRANCH   7  11
ATOM     11  O   UNL     1       4.112   1.612  19.361  0.00  0.00    +0.000 OA
ATOM     12  H   UNL     1       3.513   1.123  18.753  0.00  0.00    +0.000 HD
ENDBRANCH   7  11
BRANCH   8  13
ATOM     13  C   UNL     1       3.517   3.401  17.240  0.00  0.00    +0.000 C 
BRANCH  13  14
ATOM     14  N   UNL     1       4.954   3.164  17.046  0.00  0.00    +0.000 N 
ATOM     15  H   UNL     1       5.105   2.661  16.171  0.00  0.00    +0.000 HD
BRANCH  14  16
ATOM     16  C   UNL     1       5.769   4.316  17.037  0.00  0.00    +0.000 A 
ATOM     17  C   UNL     1       5.546   5.286  16.053  0.00  0.00    +0.000 A 
ATOM     18  C   UNL     1       6.268   6.488  16.045  0.00  0.00    +0.000 A 
ATOM     19  C   UNL     1       7.189   6.772  17.052  0.00  0.00    +0.000 A 
ATOM     20  C   UNL     1       7.398   5.831  18.055  0.00  0.00    +0.000 A 
ATOM     21  C   UNL     1       6.683   4.625  18.052  0.00  0.00    +0.000 A 
BRANCH  19  22
ATOM     22  O   UNL     1       7.849   7.964  16.942  0.00  0.00    +0.000 OA
ATOM     23  C   UNL     1       8.194   8.600  18.169  0.00  0.00    +0.000 C 
ENDBRANCH  19  22
ENDBRANCH  14  16
ENDBRANCH  13  14
ENDBRANCH   8  13
TORSDOF 6
ENDMDL
MODEL 2
REMARK VINA RESULT:      -6.3      1.019      1.137
REMARK  Name = 
REMARK  9 active torsions:
REMARK  status: ('A' for Active; 'I' for Inactive)
REMARK    1  A    between atoms: C_1  and  C_2
REMARK    2  A    between atoms: C_2  and  N_3
REMARK    3  A    between atoms: C_4  and  C_5
REMARK    4  A    between atoms: C_9  and  O_10
REMARK    5  A    between atoms: C_11  and  C_12
REMARK    6  A    between atoms: C_12  and  N_13
REMARK    7  A    between atoms: N_13  and  C_14
REMARK    8  A    between atoms: C_17  and  O_18
REMARK    9  A    between atoms: O_18  and  C_19
REMARK                            x       y       z     vdW  Elec       q    Type
REMARK                         _______ _______ _______ _____ _____    ______ ____
ROOT
ATOM      1  N   UNL     1       2.813   5.643  19.040  0.00  0.00    +0.000 N 
ATOM      2  C   UNL     1       1.996   5.690  20.199  0.00  0.00    +0.000 A 
ATOM      3  C   UNL     1       1.500   7.002  20.771  0.00  0.00    +0.000 C 
ATOM      4  C   UNL     1       1.599   4.586  20.855  0.00  0.00    +0.000 A 
ATOM      5  C   UNL     1       2.037   3.272  20.376  0.00  0.00    +0.000 A 
ATOM      6  O   UNL     1       1.748   2.232  20.965  0.00  0.00    +0.000 OA
ATOM      7  C   UNL     1       2.804   3.213  19.108  0.00  0.00    +0.000 A 
ATOM      8  C   UNL     1       3.147   4.363  18.482  0.00  0.00    +0.000 A 
ENDROOT
BRANCH   1  10
ATOM      9  C   UNL     1       2.358   7.679  17.678  0.00  0.00    +0.000 C 
ATOM     10  C   UNL     1       3.385   6.892  18.479  0.00  0.00    +0.000 C 
ENDBRANCH   1  10
BRANCH   7  11
ATOM     11  O   UNL     1       3.091   1.950  18.625  0.00  0.00    +0.000 OA
ATOM     12  H   UNL     1       3.683   1.554  19.304  0.00  0.00    +0.000 HD
ENDBRANCH   7  11
BRANCH   8  13
ATOM     13  C   UNL     1       3.782   4.235  17.092  0.00  0.00    +0.000 C 
BRANCH  13  14
ATOM     14  N   UNL     1       5.181   3.789  17.154  0.00  0.00    +0.000 N 
ATOM     15  H   UNL     1       5.468   3.430  16.243  0.00  0.00    +0.000 HD
BRANCH  14  16
ATOM     16  C   UNL     1       6.118   4.765  17.557  0.00  0.00    +0.000 A 
ATOM     17  C   UNL     1       6.330   5.871  16.727  0.00  0.00    +0.000 A 
ATOM     18  C   UNL     1       7.185   6.913  17.115  0.00  0.00    +0.000 A 
ATOM     19  C   UNL     1       7.804   6.898  18.364  0.00  0.00    +0.000 A 
ATOM     20  C   UNL     1       7.577   5.820  19.213  0.00  0.00    +0.000 A 
ATOM     21  C   UNL     1       6.730   4.776  18.816  0.00  0.00    +0.000 A 
BRANCH  19  22
ATOM     22  O   UNL     1       8.629   7.954  18.636  0.00  0.00    +0.000 OA
ATOM     23  C   UNL     1       8.255   9.202  18.058  0.00  0.00    +0.000 C 
ENDBRANCH  19  22
ENDBRANCH  14  16
ENDBRANCH  13  14
ENDBRANCH   8  13
TORSDOF 6
ENDMDL
MODEL 3
REMARK VINA RESULT:      -6.3      2.083      2.901
REMARK  Name = 
REMARK  9 active torsions:
REMARK  status: ('A' for Active; 'I' for Inactive)
REMARK    1  A    between atoms: C_1  and  C_2
REMARK    2  A    between atoms: C_2  and  N_3
REMARK    3  A    between atoms: C_4  and  C_5
REMARK    4  A    between atoms: C_9  and  O_10
REMARK    5  A    between atoms: C_11  and  C_12
REMARK    6  A    between atoms: C_12  and  N_13
REMARK    7  A    between atoms: N_13  and  C_14
REMARK    8  A    between atoms: C_17  and  O_18
REMARK    9  A    between atoms: O_18  and  C_19
REMARK                            x       y       z     vdW  Elec       q    Type
REMARK                         _______ _______ _______ _____ _____    ______ ____
ROOT
ATOM      1  N   UNL     1       2.905   3.730  19.230  0.00  0.00    +0.000 N 
ATOM      2  C   UNL     1       2.414   4.183  20.483  0.00  0.00    +0.000 A 
ATOM      3  C   UNL     1       2.138   3.225  21.623  0.00  0.00    +0.000 C 
ATOM      4  C   UNL     1       2.175   5.479  20.744  0.00  0.00    +0.000 A 
ATOM      5  C   UNL     1       2.408   6.477  19.696  0.00  0.00    +0.000 A 
ATOM      6  O   UNL     1       2.158   7.669  19.861  0.00  0.00    +0.000 OA
ATOM      7  C   UNL     1       3.017   6.020  18.424  0.00  0.00    +0.000 A 
ATOM      8  C   UNL     1       3.261   4.701  18.236  0.00  0.00    +0.000 A 
ENDROOT
BRANCH   1  10
ATOM      9  C   UNL     1       1.633   1.756  18.395  0.00  0.00    +0.000 C 
ATOM     10  C   UNL     1       2.958   2.277  18.931  0.00  0.00    +0.000 C 
ENDBRANCH   1  10
BRANCH   7  11
ATOM     11  O   UNL     1       3.336   7.007  17.509  0.00  0.00    +0.000 OA
ATOM     12  H   UNL     1       3.996   6.587  16.913  0.00  0.00    +0.000 HD
ENDBRANCH   7  11
BRANCH   8  13
ATOM     13  C   UNL     1       4.050   4.312  16.980  0.00  0.00    +0.000 C 
BRANCH  13  14
ATOM     14  N   UNL     1       5.415   3.864  17.293  0.00  0.00    +0.000 N 
ATOM     15  H   UNL     1       5.806   3.369  16.492  0.00  0.00    +0.000 HD
BRANCH  14  16
ATOM     16  C   UNL     1       6.322   4.879  17.667  0.00  0.00    +0.000 A 
ATOM     17  C   UNL     1       6.455   5.997  16.836  0.00  0.00    +0.000 A 
ATOM     18  C   UNL     1       7.277   7.075  17.198  0.00  0.00    +0.000 A 
ATOM     19  C   UNL     1       7.940   7.083  18.424  0.00  0.00    +0.000 A 
ATOM     20  C   UNL     1       7.791   5.992  19.275  0.00  0.00    +0.000 A 
ATOM     21  C   UNL     1       6.978   4.913  18.904  0.00  0.00    +0.000 A 
BRANCH  19  22
ATOM     22  O   UNL     1       8.727   8.173  18.672  0.00  0.00    +0.000 OA
ATOM     23  C   UNL     1       8.325   9.387  18.044  0.00  0.00    +0.000 C 
ENDBRANCH  19  22
ENDBRANCH  14  16
ENDBRANCH  13  14
ENDBRANCH   8  13
TORSDOF 6
ENDMDL
MODEL 4
REMARK VINA RESULT:      -6.3      0.178      1.060
REMARK  Name = 
REMARK  9 active torsions:
REMARK  status: ('A' for Active; 'I' for Inactive)
REMARK    1  A    between atoms: C_1  and  C_2
REMARK    2  A    between atoms: C_2  and  N_3
REMARK    3  A    between atoms: C_4  and  C_5
REMARK    4  A    between atoms: C_9  and  O_10
REMARK    5  A    between atoms: C_11  and  C_12
REMARK    6  A    between atoms: C_12  and  N_13
REMARK    7  A    between atoms: N_13  and  C_14
REMARK    8  A    between atoms: C_17  and  O_18
REMARK    9  A    between atoms: O_18  and  C_19
REMARK                            x       y       z     vdW  Elec       q    Type
REMARK                         _______ _______ _______ _____ _____    ______ ____
ROOT
ATOM      1  N   UNL     1       2.431   4.792  19.061  0.00  0.00    +0.000 N 
ATOM      2  C   UNL     1       1.938   4.952  20.382  0.00  0.00    +0.000 A 
ATOM      3  C   UNL     1       1.082   6.139  20.773  0.00  0.00    +0.000 C 
ATOM      4  C   UNL     1       2.184   4.067  21.362  0.00  0.00    +0.000 A 
ATOM      5  C   UNL     1       3.010   2.891  21.076  0.00  0.00    +0.000 A 
ATOM      6  O   UNL     1       3.310   2.076  21.946  0.00  0.00    +0.000 OA
ATOM      7  C   UNL     1       3.440   2.667  19.675  0.00  0.00    +0.000 A 
ATOM      8  C   UNL     1       3.134   3.585  18.728  0.00  0.00    +0.000 A 
ENDROOT
BRANCH   1  10
ATOM      9  C   UNL     1       3.314   7.002  18.322  0.00  0.00    +0.000 C 
ATOM     10  C   UNL     1       2.301   5.895  18.077  0.00  0.00    +0.000 C 
ENDBRANCH   1  10
BRANCH   7  11
ATOM     11  O   UNL     1       4.111   1.485  19.422  0.00  0.00    +0.000 OA
ATOM     12  H   UNL     1       4.514   1.615  18.535  0.00  0.00    +0.000 HD
ENDBRANCH   7  11
BRANCH   8  13
ATOM     13  C   UNL     1       3.449   3.216  17.273  0.00  0.00    +0.000 C 
BRANCH  13  14
ATOM     14  N   UNL     1       4.894   3.174  17.007  0.00  0.00    +0.000 N 
ATOM     15  H   UNL     1       5.064   2.722  16.108  0.00  0.00    +0.000 HD
BRANCH  14  16
ATOM     16  C   UNL     1       5.552   4.423  17.003  0.00  0.00    +0.000 A 
ATOM     17  C   UNL     1       6.488   4.689  18.008  0.00  0.00    +0.000 A 
ATOM     18  C   UNL     1       7.233   5.877  18.008  0.00  0.00    +0.000 A 
ATOM     19  C   UNL     1       7.099   6.800  16.972  0.00  0.00    +0.000 A 
ATOM     20  C   UNL     1       6.196   6.534  15.948  0.00  0.00    +0.000 A 
ATOM     21  C   UNL     1       5.445   5.350  15.960  0.00  0.00    +0.000 A 
BRANCH  19  22
ATOM     22  O   UNL     1       7.860   7.931  17.075  0.00  0.00    +0.000 OA
ATOM     23  C   UNL     1       8.313   8.259  18.386  0.00  0.00    +0.000 C 
ENDBRANCH  19  22
ENDBRANCH  14  16
ENDBRANCH  13  14
ENDBRANCH   8  13
TORSDOF 6
ENDMDL
MODEL 5
REMARK VINA RESULT:      -6.2      1.630      2.261
REMARK  Name = 
REMARK  9 active torsions:
REMARK  status: ('A' for Active; 'I' for Inactive)
REMARK    1  A    between atoms: C_1  and  C_2
REMARK    2  A    between atoms: C_2  and  N_3
REMARK    3  A    between atoms: C_4  and  C_5
REMARK    4  A    between atoms: C_9  and  O_10
REMARK    5  A    between atoms: C_11  and  C_12
REMARK    6  A    between atoms: C_12  and  N_13
REMARK    7  A    between atoms: N_13  and  C_14
REMARK    8  A    between atoms: C_17  and  O_18
REMARK    9  A    between atoms: O_18  and  C_19
REMARK                            x       y       z     vdW  Elec       q    Type
REMARK                         _______ _______ _______ _____ _____    ______ ____
ROOT
ATOM      1  N   UNL     1       2.542   5.367  19.000  0.00  0.00    +0.000 N 
ATOM      2  C   UNL     1       2.061   5.649  20.306  0.00  0.00    +0.000 A 
ATOM      3  C   UNL     1       1.472   6.997  20.662  0.00  0.00    +0.000 C 
ATOM      4  C   UNL     1       2.083   4.745  21.299  0.00  0.00    +0.000 A 
ATOM      5  C   UNL     1       2.642   3.414  21.046  0.00  0.00    +0.000 A 
ATOM      6  O   UNL     1       2.736   2.565  21.930  0.00  0.00    +0.000 OA
ATOM      7  C   UNL     1       3.050   3.083  19.659  0.00  0.00    +0.000 A 
ATOM      8  C   UNL     1       2.974   4.033  18.697  0.00  0.00    +0.000 A 
ENDROOT
BRANCH   1  10
ATOM      9  C   UNL     1       4.112   6.955  17.894  0.00  0.00    +0.000 C 
ATOM     10  C   UNL     1       2.678   6.458  18.004  0.00  0.00    +0.000 C 
ENDBRANCH   1  10
BRANCH   7  11
ATOM     11  O   UNL     1       3.455   1.781  19.435  0.00  0.00    +0.000 OA
ATOM     12  H   UNL     1       2.673   1.234  19.677  0.00  0.00    +0.000 HD
ENDBRANCH   7  11
BRANCH   8  13
ATOM     13  C   UNL     1       3.239   3.583  17.254  0.00  0.00    +0.000 C 
BRANCH  13  14
ATOM     14  N   UNL     1       4.588   3.025  17.081  0.00  0.00    +0.000 N 
ATOM     15  H   UNL     1       4.521   2.068  16.734  0.00  0.00    +0.000 HD
BRANCH  14  16
ATOM     16  C   UNL     1       5.443   3.746  16.220  0.00  0.00    +0.000 A 
ATOM     17  C   UNL     1       6.485   4.491  16.781  0.00  0.00    +0.000 A 
ATOM     18  C   UNL     1       7.416   5.159  15.971  0.00  0.00    +0.000 A 
ATOM     19  C   UNL     1       7.357   5.051  14.583  0.00  0.00    +0.000 A 
ATOM     20  C   UNL     1       6.345   4.287  14.011  0.00  0.00    +0.000 A 
ATOM     21  C   UNL     1       5.410   3.632  14.824  0.00  0.00    +0.000 A 
BRANCH  19  22
ATOM     22  O   UNL     1       8.301   5.753  13.887  0.00  0.00    +0.000 OA
ATOM     23  C   UNL     1       8.150   5.766  12.470  0.00  0.00    +0.000 C 
ENDBRANCH  19  22
ENDBRANCH  14  16
ENDBRANCH  13  14
ENDBRANCH   8  13
TORSDOF 6
ENDMDL
MODEL 6
REMARK VINA RESULT:      -6.1      2.144      3.153
REMARK  Name = 
REMARK  9 active torsions:
REMARK  status: ('A' for Active; 'I' for Inactive)
REMARK    1  A    between atoms: C_1  and  C_2
REMARK    2  A    between atoms: C_2  and  N_3
REMARK    3  A    between atoms: C_4  and  C_5
REMARK    4  A    between atoms: C_9  and  O_10
REMARK    5  A    between atoms: C_11  and  C_12
REMARK    6  A    between atoms: C_12  and  N_13
REMARK    7  A    between atoms: N_13  and  C_14
REMARK    8  A    between atoms: C_17  and  O_18
REMARK    9  A    between atoms: O_18  and  C_19
REMARK                            x       y       z     vdW  Elec       q    Type
REMARK                         _______ _______ _______ _____ _____    ______ ____
ROOT
ATOM      1  N   UNL     1       3.139   3.722  19.210  0.00  0.00    +0.000 N 
ATOM      2  C   UNL     1       2.551   4.077  20.452  0.00  0.00    +0.000 A 
ATOM      3  C   UNL     1       2.327   3.056  21.547  0.00  0.00    +0.000 C 
ATOM      4  C   UNL     1       2.168   5.332  20.743  0.00  0.00    +0.000 A 
ATOM      5  C   UNL     1       2.341   6.385  19.738  0.00  0.00    +0.000 A 
ATOM      6  O   UNL     1       1.962   7.539  19.930  0.00  0.00    +0.000 OA
ATOM      7  C   UNL     1       3.048   6.039  18.482  0.00  0.00    +0.000 A 
ATOM      8  C   UNL     1       3.434   4.760  18.264  0.00  0.00    +0.000 A 
ENDROOT
BRANCH   1  10
ATOM      9  C   UNL     1       2.220   1.732  18.025  0.00  0.00    +0.000 C 
ATOM     10  C   UNL     1       3.355   2.294  18.868  0.00  0.00    +0.000 C 
ENDBRANCH   1  10
BRANCH   7  11
ATOM     11  O   UNL     1       3.301   7.086  17.615  0.00  0.00    +0.000 OA
ATOM     12  H   UNL     1       3.783   6.673  16.863  0.00  0.00    +0.000 HD
ENDBRANCH   7  11
BRANCH   8  13
ATOM     13  C   UNL     1       4.312   4.499  17.034  0.00  0.00    +0.000 C 
BRANCH  13  14
ATOM     14  N   UNL     1       5.721   4.276  17.389  0.00  0.00    +0.000 N 
ATOM     15  H   UNL     1       6.202   3.816  16.615  0.00  0.00    +0.000 HD
BRANCH  14  16
ATOM     16  C   UNL     1       6.454   5.430  17.738  0.00  0.00    +0.000 A 
ATOM     17  C   UNL     1       7.319   5.367  18.836  0.00  0.00    +0.000 A 
ATOM     18  C   UNL     1       8.135   6.456  19.179  0.00  0.00    +0.000 A 
ATOM     19  C   UNL     1       8.144   7.610  18.399  0.00  0.00    +0.000 A 
ATOM     20  C   UNL     1       7.314   7.675  17.285  0.00  0.00    +0.000 A 
ATOM     21  C   UNL     1       6.492   6.589  16.954  0.00  0.00    +0.000 A 
BRANCH  19  22
ATOM     22  O   UNL     1       8.964   8.617  18.829  0.00  0.00    +0.000 OA
ATOM     23  C   UNL     1       8.687   9.912  18.303  0.00  0.00    +0.000 C 
ENDBRANCH  19  22
ENDBRANCH  14  16
ENDBRANCH  13  14
ENDBRANCH   8  13
TORSDOF 6
ENDMDL
MODEL 7
REMARK VINA RESULT:      -5.9      3.849      6.295
REMARK  Name = 
REMARK  9 active torsions:
REMARK  status: ('A' for Active; 'I' for Inactive)
REMARK    1  A    between atoms: C_1  and  C_2
REMARK    2  A    between atoms: C_2  and  N_3
REMARK    3  A    between atoms: C_4  and  C_5
REMARK    4  A    between atoms: C_9  and  O_10
REMARK    5  A    between atoms: C_11  and  C_12
REMARK    6  A    between atoms: C_12  and  N_13
REMARK    7  A    between atoms: N_13  and  C_14
REMARK    8  A    between atoms: C_17  and  O_18
REMARK    9  A    between atoms: O_18  and  C_19
REMARK                            x       y       z     vdW  Elec       q    Type
REMARK                         _______ _______ _______ _____ _____    ______ ____
ROOT
ATOM      1  N   UNL     1       2.028   4.329  19.241  0.00  0.00    +0.000 N 
ATOM      2  C   UNL     1       2.037   3.198  18.383  0.00  0.00    +0.000 A 
ATOM      3  C   UNL     1       1.103   2.026  18.600  0.00  0.00    +0.000 C 
ATOM      4  C   UNL     1       2.857   3.097  17.323  0.00  0.00    +0.000 A 
ATOM      5  C   UNL     1       3.800   4.182  17.040  0.00  0.00    +0.000 A 
ATOM      6  O   UNL     1       4.608   4.121  16.115  0.00  0.00    +0.000 OA
ATOM      7  C   UNL     1       3.721   5.407  17.871  0.00  0.00    +0.000 A 
ATOM      8  C   UNL     1       2.851   5.456  18.908  0.00  0.00    +0.000 A 
ENDROOT
BRANCH   1  10
ATOM      9  C   UNL     1       2.017   3.623  21.631  0.00  0.00    +0.000 C 
ATOM     10  C   UNL     1       1.250   4.299  20.505  0.00  0.00    +0.000 C 
ENDBRANCH   1  10
BRANCH   7  11
ATOM     11  O   UNL     1       4.541   6.455  17.495  0.00  0.00    +0.000 OA
ATOM     12  H   UNL     1       5.358   6.022  17.161  0.00  0.00    +0.000 HD
ENDBRANCH   7  11
BRANCH   8  13
ATOM     13  C   UNL     1       2.690   6.805  19.618  0.00  0.00    +0.000 C 
BRANCH  13  14
ATOM     14  N   UNL     1       2.343   7.889  18.688  0.00  0.00    +0.000 N 
ATOM     15  H   UNL     1       1.943   7.496  17.835  0.00  0.00    +0.000 HD
BRANCH  14  16
ATOM     16  C   UNL     1       1.447   8.860  19.185  0.00  0.00    +0.000 A 
ATOM     17  C   UNL     1       0.842   9.740  18.281  0.00  0.00    +0.000 A 
ATOM     18  C   UNL     1      -0.119  10.668  18.706  0.00  0.00    +0.000 A 
ATOM     19  C   UNL     1      -0.537  10.700  20.035  0.00  0.00    +0.000 A 
ATOM     20  C   UNL     1       0.031   9.809  20.940  0.00  0.00    +0.000 A 
ATOM     21  C   UNL     1       1.000   8.891  20.512  0.00  0.00    +0.000 A 
BRANCH  19  22
ATOM     22  O   UNL     1      -1.467  11.653  20.348  0.00  0.00    +0.000 OA
ATOM     23  C   UNL     1      -1.593  12.727  19.420  0.00  0.00    +0.000 C 
ENDBRANCH  19  22
ENDBRANCH  14  16
ENDBRANCH  13  14
ENDBRANCH   8  13
TORSDOF 6
ENDMDL
MODEL 8
REMARK VINA RESULT:      -5.9      3.542      6.513
REMARK  Name = 
REMARK  9 active torsions:
REMARK  status: ('A' for Active; 'I' for Inactive)
REMARK    1  A    between atoms: C_1  and  C_2
REMARK    2  A    between atoms: C_2  and  N_3
REMARK    3  A    between atoms: C_4  and  C_5
REMARK    4  A    between atoms: C_9  and  O_10
REMARK    5  A    between atoms: C_11  and  C_12
REMARK    6  A    between atoms: C_12  and  N_13
REMARK    7  A    between atoms: N_13  and  C_14
REMARK    8  A    between atoms: C_17  and  O_18
REMARK    9  A    between atoms: O_18  and  C_19
REMARK                            x       y       z     vdW  Elec       q    Type
REMARK                         _______ _______ _______ _____ _____    ______ ____
ROOT
ATOM      1  N   UNL     1       3.196   4.129  19.034  0.00  0.00    +0.000 N 
ATOM      2  C   UNL     1       3.562   3.199  18.026  0.00  0.00    +0.000 A 
ATOM      3  C   UNL     1       3.218   1.729  18.138  0.00  0.00    +0.000 C 
ATOM      4  C   UNL     1       4.221   3.557  16.912  0.00  0.00    +0.000 A 
ATOM      5  C   UNL     1       4.601   4.960  16.723  0.00  0.00    +0.000 A 
ATOM      6  O   UNL     1       5.249   5.336  15.748  0.00  0.00    +0.000 OA
ATOM      7  C   UNL     1       4.130   5.949  17.722  0.00  0.00    +0.000 A 
ATOM      8  C   UNL     1       3.444   5.524  18.810  0.00  0.00    +0.000 A 
ENDROOT
BRANCH   1  10
ATOM      9  C   UNL     1       1.131   3.633  20.339  0.00  0.00    +0.000 C 
ATOM     10  C   UNL     1       2.653   3.649  20.329  0.00  0.00    +0.000 C 
ENDBRANCH   1  10
BRANCH   7  11
ATOM     11  O   UNL     1       4.401   7.276  17.444  0.00  0.00    +0.000 OA
ATOM     12  H   UNL     1       5.273   7.444  17.869  0.00  0.00    +0.000 HD
ENDBRANCH   7  11
BRANCH   8  13
ATOM     13  C   UNL     1       2.833   6.604  19.712  0.00  0.00    +0.000 C 
BRANCH  13  14
ATOM     14  N   UNL     1       2.059   7.596  18.952  0.00  0.00    +0.000 N 
ATOM     15  H   UNL     1       1.342   7.123  18.401  0.00  0.00    +0.000 HD
BRANCH  14  16
ATOM     16  C   UNL     1       1.431   8.601  19.720  0.00  0.00    +0.000 A 
ATOM     17  C   UNL     1       1.187   8.354  21.075  0.00  0.00    +0.000 A 
ATOM     18  C   UNL     1       0.643   9.344  21.905  0.00  0.00    +0.000 A 
ATOM     19  C   UNL     1       0.384  10.622  21.412  0.00  0.00    +0.000 A 
ATOM     20  C   UNL     1       0.652  10.892  20.074  0.00  0.00    +0.000 A 
ATOM     21  C   UNL     1       1.184   9.895  19.245  0.00  0.00    +0.000 A 
BRANCH  19  22
ATOM     22  O   UNL     1      -0.159  11.508  22.300  0.00  0.00    +0.000 OA
ATOM     23  C   UNL     1      -1.221  11.008  23.108  0.00  0.00    +0.000 C 
ENDBRANCH  19  22
ENDBRANCH  14  16
ENDBRANCH  13  14
ENDBRANCH   8  13
TORSDOF 6
ENDMDL
MODEL 9
REMARK VINA RESULT:      -5.9      3.836      6.400
REMARK  Name = 
REMARK  9 active torsions:
REMARK  status: ('A' for Active; 'I' for Inactive)
REMARK    1  A    between atoms: C_1  and  C_2
REMARK    2  A    between atoms: C_2  and  N_3
REMARK    3  A    between atoms: C_4  and  C_5
REMARK    4  A    between atoms: C_9  and  O_10
REMARK    5  A    between atoms: C_11  and  C_12
REMARK    6  A    between atoms: C_12  and  N_13
REMARK    7  A    between atoms: N_13  and  C_14
REMARK    8  A    between atoms: C_17  and  O_18
REMARK    9  A    between atoms: O_18  and  C_19
REMARK                            x       y       z     vdW  Elec       q    Type
REMARK                         _______ _______ _______ _____ _____    ______ ____
ROOT
ATOM      1  N   UNL     1       2.029   4.366  19.237  0.00  0.00    +0.000 N 
ATOM      2  C   UNL     1       2.042   3.228  18.388  0.00  0.00    +0.000 A 
ATOM      3  C   UNL     1       1.105   2.059  18.611  0.00  0.00    +0.000 C 
ATOM      4  C   UNL     1       2.867   3.117  17.334  0.00  0.00    +0.000 A 
ATOM      5  C   UNL     1       3.813   4.199  17.046  0.00  0.00    +0.000 A 
ATOM      6  O   UNL     1       4.626   4.129  16.126  0.00  0.00    +0.000 OA
ATOM      7  C   UNL     1       3.731   5.431  17.867  0.00  0.00    +0.000 A 
ATOM      8  C   UNL     1       2.856   5.489  18.898  0.00  0.00    +0.000 A 
ENDROOT
BRANCH   1  10
ATOM      9  C   UNL     1       1.998   3.663  21.628  0.00  0.00    +0.000 C 
ATOM     10  C   UNL     1       1.245   4.348  20.497  0.00  0.00    +0.000 C 
ENDBRANCH   1  10
BRANCH   7  11
ATOM     11  O   UNL     1       4.554   6.475  17.486  0.00  0.00    +0.000 OA
ATOM     12  H   UNL     1       5.450   6.075  17.428  0.00  0.00    +0.000 HD
ENDBRANCH   7  11
BRANCH   8  13
ATOM     13  C   UNL     1       2.693   6.845  19.596  0.00  0.00    +0.000 C 
BRANCH  13  14
ATOM     14  N   UNL     1       2.399   7.930  18.649  0.00  0.00    +0.000 N 
ATOM     15  H   UNL     1       2.135   7.536  17.746  0.00  0.00    +0.000 HD
BRANCH  14  16
ATOM     16  C   UNL     1       1.390   8.834  19.047  0.00  0.00    +0.000 A 
ATOM     17  C   UNL     1       1.076   8.931  20.407  0.00  0.00    +0.000 A 
ATOM     18  C   UNL     1       0.143   9.870  20.869  0.00  0.00    +0.000 A 
ATOM     19  C   UNL     1      -0.457  10.769  19.989  0.00  0.00    +0.000 A 
ATOM     20  C   UNL     1      -0.130  10.706  18.638  0.00  0.00    +0.000 A 
ATOM     21  C   UNL     1       0.795   9.758  18.180  0.00  0.00    +0.000 A 
BRANCH  19  22
ATOM     22  O   UNL     1      -1.363  11.632  20.540  0.00  0.00    +0.000 OA
ATOM     23  C   UNL     1      -2.326  12.179  19.643  0.00  0.00    +0.000 C 
ENDBRANCH  19  22
ENDBRANCH  14  16
ENDBRANCH  13  14
ENDBRANCH   8  13
TORSDOF 6
ENDMDL
