MODEL 1
REMARK VINA RESULT:      -7.0      0.000      0.000
REMARK  Name = 
REMARK  11 active torsions:
REMARK  status: ('A' for Active; 'I' for Inactive)
REMARK    1  A    between atoms: C_1  and  C_2
REMARK    2  A    between atoms: C_2  and  C_3
REMARK    3  A    between atoms: C_2  and  N_4
REMARK    4  A    between atoms: N_4  and  C_5
REMARK    5  A    between atoms: N_4  and  C_9
REMARK    6  A    between atoms: C_5  and  C_6
REMARK    7  A    between atoms: C_9  and  C_10
REMARK    8  A    between atoms: C_13  and  S_14
REMARK    9  A    between atoms: S_14  and  N_17
REMARK   10  A    between atoms: N_17  and  C_18
REMARK   11  A    between atoms: N_17  and  C_19
REMARK                            x       y       z     vdW  Elec       q    Type
REMARK                         _______ _______ _______ _____ _____    ______ ____
ROOT
ATOM      1  C   UNL     1       4.897   6.633  16.167  0.00  0.00    +0.000 C 
ENDROOT
BRANCH   1   2
ATOM      2  C   UNL     1       3.980   6.219  17.289  0.00  0.00    +0.000 A 
ATOM      3  C   UNL     1       3.266   6.899  18.255  0.00  0.00    +0.000 A 
ATOM      4  C   UNL     1       2.536   5.938  18.980  0.00  0.00    +0.000 A 
ATOM      5  C   UNL     1       2.744   4.709  18.373  0.00  0.00    +0.000 A 
ATOM      6  O   UNL     1       3.661   4.889  17.355  0.00  0.00    +0.000 OA
BRANCH   5   7
ATOM      7  S   UNL     1       2.040   3.101  18.756  0.00  0.00    +0.000 S 
ATOM      8  O   UNL     1       0.728   3.403  19.297  0.00  0.00    +0.000 OA
ATOM      9  O   UNL     1       2.197   2.317  17.547  0.00  0.00    +0.000 OA
BRANCH   7  10
ATOM     10  N   UNL     1       2.985   2.416  19.996  0.00  0.00    +0.000 NA
ATOM     11  C   UNL     1       4.443   2.558  19.830  0.00  0.00    +0.000 C 
ATOM     12  C   UNL     1       2.527   2.722  21.363  0.00  0.00    +0.000 C 
ENDBRANCH   7  10
ENDBRANCH   5   7
ENDBRANCH   1   2
BRANCH   1  13
ATOM     13  N   UNL     1       6.342   6.291  16.322  0.00  0.00    +0.000 NA
BRANCH  13  15
ATOM     14  C   UNL     1       7.623   5.526  18.370  0.00  0.00    +0.000 C 
ATOM     15  C   UNL     1       6.851   6.665  17.675  0.00  0.00    +0.000 C 
ATOM     16  C   UNL     1       7.810   7.871  17.635  0.00  0.00    +0.000 C 
ENDBRANCH  13  15
BRANCH  13  17
ATOM     17  C   UNL     1       6.630   4.873  15.990  0.00  0.00    +0.000 C 
BRANCH  17  18
ATOM     18  C   UNL     1       6.951   4.626  14.508  0.00  0.00    +0.000 C 
ATOM     19  N   UNL     1       7.822   5.503  13.934  0.00  0.00    +0.000 N 
ATOM     20  O   UNL     1       6.477   3.720  13.831  0.00  0.00    +0.000 OA
ATOM     21  H   UNL     1       8.266   6.260  14.433  0.00  0.00    +0.000 HD
ATOM     22  H   UNL     1       8.049   5.359  12.957  0.00  0.00    +0.000 HD
ENDBRANCH  17  18
ENDBRANCH  13  17
ENDBRANCH   1  13
TORSDOF 7
ENDMDL
MODEL 2
REMARK VINA RESULT:      -6.9      1.613      1.946
REMARK  Name = 
REMARK  11 active torsions:
REMARK  status: ('A' for Active; 'I' for Inactive)
REMARK    1  A    between atoms: C_1  and  C_2
REMARK    2  A    between atoms: C_2  and  C_3
REMARK    3  A    between atoms: C_2  and  N_4
REMARK    4  A    between atoms: N_4  and  C_5
REMARK    5  A    between atoms: N_4  and  C_9
REMARK    6  A    between atoms: C_5  and  C_6
REMARK    7  A    between atoms: C_9  and  C_10
REMARK    8  A    between atoms: C_13  and  S_14
REMARK    9  A    between atoms: S_14  and  N_17
REMARK   10  A    between atoms: N_17  and  C_18
REMARK   11  A    between atoms: N_17  and  C_19
REMARK                            x       y       z     vdW  Elec       q    Type
REMARK                         _______ _______ _______ _____ _____    ______ ____
ROOT
ATOM      1  C   UNL     1       4.976   6.409  16.213  0.00  0.00    +0.000 C 
ENDROOT
BRANCH   1   2
ATOM      2  C   UNL     1       4.197   6.138  17.474  0.00  0.00    +0.000 A 
ATOM      3  C   UNL     1       3.276   6.853  18.213  0.00  0.00    +0.000 A 
ATOM      4  C   UNL     1       2.857   6.017  19.267  0.00  0.00    +0.000 A 
ATOM      5  C   UNL     1       3.458   4.781  19.084  0.00  0.00    +0.000 A 
ATOM      6  O   UNL     1       4.307   4.878  17.998  0.00  0.00    +0.000 OA
BRANCH   5   7
ATOM      7  S   UNL     1       3.278   3.262  20.027  0.00  0.00    +0.000 S 
ATOM      8  O   UNL     1       4.622   2.720  20.094  0.00  0.00    +0.000 OA
ATOM      9  O   UNL     1       2.554   3.640  21.225  0.00  0.00    +0.000 OA
BRANCH   7  10
ATOM     10  N   UNL     1       2.318   2.202  19.103  0.00  0.00    +0.000 NA
ATOM     11  C   UNL     1       0.891   2.559  19.012  0.00  0.00    +0.000 C 
ATOM     12  C   UNL     1       2.900   1.814  17.806  0.00  0.00    +0.000 C 
ENDBRANCH   7  10
ENDBRANCH   5   7
ENDBRANCH   1   2
BRANCH   1  13
ATOM     13  N   UNL     1       6.464   6.439  16.337  0.00  0.00    +0.000 NA
BRANCH  13  15
ATOM     14  C   UNL     1       7.676   5.885  18.493  0.00  0.00    +0.000 C 
ATOM     15  C   UNL     1       6.892   6.935  17.679  0.00  0.00    +0.000 C 
ATOM     16  C   UNL     1       7.800   8.176  17.591  0.00  0.00    +0.000 C 
ENDBRANCH  13  15
BRANCH  13  17
ATOM     17  C   UNL     1       7.089   5.135  15.999  0.00  0.00    +0.000 C 
BRANCH  17  18
ATOM     18  C   UNL     1       7.009   4.767  14.509  0.00  0.00    +0.000 C 
ATOM     19  N   UNL     1       6.320   3.629  14.214  0.00  0.00    +0.000 N 
ATOM     20  O   UNL     1       7.520   5.412  13.601  0.00  0.00    +0.000 OA
ATOM     21  H   UNL     1       5.856   3.058  14.906  0.00  0.00    +0.000 HD
ATOM     22  H   UNL     1       6.253   3.368  13.237  0.00  0.00    +0.000 HD
ENDBRANCH  17  18
ENDBRANCH  13  17
ENDBRANCH   1  13
TORSDOF 7
ENDMDL
MODEL 3
REMARK VINA RESULT:      -6.8      0.687      1.034
REMARK  Name = 
REMARK  11 active torsions:
REMARK  status: ('A' for Active; 'I' for Inactive)
REMARK    1  A    between atoms: C_1  and  C_2
REMARK    2  A    between atoms: C_2  and  C_3
REMARK    3  A    between atoms: C_2  and  N_4
REMARK    4  A    between atoms: N_4  and  C_5
REMARK    5  A    between atoms: N_4  and  C_9
REMARK    6  A    between atoms: C_5  and  C_6
REMARK    7  A    between atoms: C_9  and  C_10
REMARK    8  A    between atoms: C_13  and  S_14
REMARK    9  A    between atoms: S_14  and  N_17
REMARK   10  A    between atoms: N_17  and  C_18
REMARK   11  A    between atoms: N_17  and  C_19
REMARK                            x       y       z     vdW  Elec       q    Type
REMARK                         _______ _______ _______ _____ _____    ______ ____
ROOT
ATOM      1  C   UNL     1       5.067   6.507  15.932  0.00  0.00    +0.000 C 
ENDROOT
BRANCH   1   2
ATOM      2  C   UNL     1       4.128   6.496  17.111  0.00  0.00    +0.000 A 
ATOM      3  C   UNL     1       3.483   7.473  17.842  0.00  0.00    +0.000 A 
ATOM      4  C   UNL     1       2.680   6.813  18.792  0.00  0.00    +0.000 A 
ATOM      5  C   UNL     1       2.778   5.452  18.549  0.00  0.00    +0.000 A 
ATOM      6  O   UNL     1       3.699   5.267  17.535  0.00  0.00    +0.000 OA
BRANCH   5   7
ATOM      7  S   UNL     1       1.944   4.076  19.349  0.00  0.00    +0.000 S 
ATOM      8  O   UNL     1       0.986   4.705  20.239  0.00  0.00    +0.000 OA
ATOM      9  O   UNL     1       1.517   3.208  18.269  0.00  0.00    +0.000 OA
BRANCH   7  10
ATOM     10  N   UNL     1       3.102   3.263  20.298  0.00  0.00    +0.000 NA
ATOM     11  C   UNL     1       2.591   2.673  21.548  0.00  0.00    +0.000 C 
ATOM     12  C   UNL     1       3.986   2.353  19.548  0.00  0.00    +0.000 C 
ENDBRANCH   7  10
ENDBRANCH   5   7
ENDBRANCH   1   2
BRANCH   1  13
ATOM     13  N   UNL     1       6.523   6.377  16.234  0.00  0.00    +0.000 NA
BRANCH  13  15
ATOM     14  C   UNL     1       7.559   5.683  18.441  0.00  0.00    +0.000 C 
ATOM     15  C   UNL     1       6.829   6.780  17.640  0.00  0.00    +0.000 C 
ATOM     16  C   UNL     1       7.723   8.033  17.716  0.00  0.00    +0.000 C 
ENDBRANCH  13  15
BRANCH  13  17
ATOM     17  C   UNL     1       7.053   5.027  15.913  0.00  0.00    +0.000 C 
BRANCH  17  18
ATOM     18  C   UNL     1       7.038   4.686  14.415  0.00  0.00    +0.000 C 
ATOM     19  N   UNL     1       7.828   5.461  13.620  0.00  0.00    +0.000 N 
ATOM     20  O   UNL     1       6.370   3.790  13.909  0.00  0.00    +0.000 OA
ATOM     21  H   UNL     1       8.418   6.202  13.968  0.00  0.00    +0.000 HD
ATOM     22  H   UNL     1       7.833   5.252  12.629  0.00  0.00    +0.000 HD
ENDBRANCH  17  18
ENDBRANCH  13  17
ENDBRANCH   1  13
TORSDOF 7
ENDMDL
MODEL 4
REMARK VINA RESULT:      -6.7      1.422      1.726
REMARK  Name = 
REMARK  11 active torsions:
REMARK  status: ('A' for Active; 'I' for Inactive)
REMARK    1  A    between atoms: C_1  and  C_2
REMARK    2  A    between atoms: C_2  and  C_3
REMARK    3  A    between atoms: C_2  and  N_4
REMARK    4  A    between atoms: N_4  and  C_5
REMARK    5  A    between atoms: N_4  and  C_9
REMARK    6  A    between atoms: C_5  and  C_6
REMARK    7  A    between atoms: C_9  and  C_10
REMARK    8  A    between atoms: C_13  and  S_14
REMARK    9  A    between atoms: S_14  and  N_17
REMARK   10  A    between atoms: N_17  and  C_18
REMARK   11  A    between atoms: N_17  and  C_19
REMARK                            x       y       z     vdW  Elec       q    Type
REMARK                         _______ _______ _______ _____ _____    ______ ____
ROOT
ATOM      1  C   UNL     1       4.754   6.703  16.435  0.00  0.00    +0.000 C 
ENDROOT
BRANCH   1   2
ATOM      2  C   UNL     1       3.947   6.034  17.518  0.00  0.00    +0.000 A 
ATOM      3  C   UNL     1       2.901   6.429  18.328  0.00  0.00    +0.000 A 
ATOM      4  C   UNL     1       2.535   5.311  19.102  0.00  0.00    +0.000 A 
ATOM      5  C   UNL     1       3.299   4.237  18.672  0.00  0.00    +0.000 A 
ATOM      6  O   UNL     1       4.188   4.701  17.721  0.00  0.00    +0.000 OA
BRANCH   5   7
ATOM      7  S   UNL     1       3.263   2.516  19.191  0.00  0.00    +0.000 S 
ATOM      8  O   UNL     1       3.380   1.766  17.955  0.00  0.00    +0.000 OA
ATOM      9  O   UNL     1       4.261   2.412  20.237  0.00  0.00    +0.000 OA
BRANCH   7  10
ATOM     10  N   UNL     1       1.723   2.219  19.854  0.00  0.00    +0.000 NA
ATOM     11  C   UNL     1       1.488   2.797  21.189  0.00  0.00    +0.000 C 
ATOM     12  C   UNL     1       0.599   2.433  18.925  0.00  0.00    +0.000 C 
ENDBRANCH   7  10
ENDBRANCH   5   7
ENDBRANCH   1   2
BRANCH   1  13
ATOM     13  N   UNL     1       6.228   6.465  16.455  0.00  0.00    +0.000 NA
BRANCH  13  15
ATOM     14  C   UNL     1       7.653   5.831  18.452  0.00  0.00    +0.000 C 
ATOM     15  C   UNL     1       6.840   6.929  17.736  0.00  0.00    +0.000 C 
ATOM     16  C   UNL     1       7.803   8.116  17.538  0.00  0.00    +0.000 C 
ENDBRANCH  13  15
BRANCH  13  17
ATOM     17  C   UNL     1       6.582   5.057  16.144  0.00  0.00    +0.000 C 
BRANCH  17  18
ATOM     18  C   UNL     1       7.031   4.827  14.693  0.00  0.00    +0.000 C 
ATOM     19  N   UNL     1       6.528   3.717  14.084  0.00  0.00    +0.000 N 
ATOM     20  O   UNL     1       7.799   5.556  14.075  0.00  0.00    +0.000 OA
ATOM     21  H   UNL     1       5.877   3.082  14.523  0.00  0.00    +0.000 HD
ATOM     22  H   UNL     1       6.810   3.546  13.125  0.00  0.00    +0.000 HD
ENDBRANCH  17  18
ENDBRANCH  13  17
ENDBRANCH   1  13
TORSDOF 7
ENDMDL
MODEL 5
REMARK VINA RESULT:      -6.7      1.124      1.340
REMARK  Name = 
REMARK  11 active torsions:
REMARK  status: ('A' for Active; 'I' for Inactive)
REMARK    1  A    between atoms: C_1  and  C_2
REMARK    2  A    between atoms: C_2  and  C_3
REMARK    3  A    between atoms: C_2  and  N_4
REMARK    4  A    between atoms: N_4  and  C_5
REMARK    5  A    between atoms: N_4  and  C_9
REMARK    6  A    between atoms: C_5  and  C_6
REMARK    7  A    between atoms: C_9  and  C_10
REMARK    8  A    between atoms: C_13  and  S_14
REMARK    9  A    between atoms: S_14  and  N_17
REMARK   10  A    between atoms: N_17  and  C_18
REMARK   11  A    between atoms: N_17  and  C_19
REMARK                            x       y       z     vdW  Elec       q    Type
REMARK                         _______ _______ _______ _____ _____    ______ ____
ROOT
ATOM      1  C   UNL     1       5.223   6.479  15.820  0.00  0.00    +0.000 C 
ENDROOT
BRANCH   1   2
ATOM      2  C   UNL     1       4.247   6.413  16.966  0.00  0.00    +0.000 A 
ATOM      3  C   UNL     1       3.627   7.355  17.762  0.00  0.00    +0.000 A 
ATOM      4  C   UNL     1       2.763   6.657  18.628  0.00  0.00    +0.000 A 
ATOM      5  C   UNL     1       2.804   5.318  18.269  0.00  0.00    +0.000 A 
ATOM      6  O   UNL     1       3.746   5.175  17.268  0.00  0.00    +0.000 OA
BRANCH   5   7
ATOM      7  S   UNL     1       1.879   3.922  18.921  0.00  0.00    +0.000 S 
ATOM      8  O   UNL     1       1.330   4.408  20.173  0.00  0.00    +0.000 OA
ATOM      9  O   UNL     1       1.020   3.492  17.835  0.00  0.00    +0.000 OA
BRANCH   7  10
ATOM     10  N   UNL     1       3.001   2.689  19.270  0.00  0.00    +0.000 NA
ATOM     11  C   UNL     1       3.207   1.700  18.198  0.00  0.00    +0.000 C 
ATOM     12  C   UNL     1       4.261   3.155  19.876  0.00  0.00    +0.000 C 
ENDBRANCH   7  10
ENDBRANCH   5   7
ENDBRANCH   1   2
BRANCH   1  13
ATOM     13  N   UNL     1       6.673   6.407  16.169  0.00  0.00    +0.000 NA
BRANCH  13  15
ATOM     14  C   UNL     1       7.587   5.655  18.410  0.00  0.00    +0.000 C 
ATOM     15  C   UNL     1       6.912   6.777  17.596  0.00  0.00    +0.000 C 
ATOM     16  C   UNL     1       7.815   8.017  17.743  0.00  0.00    +0.000 C 
ENDBRANCH  13  15
BRANCH  13  17
ATOM     17  C   UNL     1       7.276   5.094  15.825  0.00  0.00    +0.000 C 
BRANCH  17  18
ATOM     18  C   UNL     1       6.279   4.072  15.258  0.00  0.00    +0.000 C 
ATOM     19  N   UNL     1       5.727   3.215  16.162  0.00  0.00    +0.000 N 
ATOM     20  O   UNL     1       5.967   3.981  14.076  0.00  0.00    +0.000 OA
ATOM     21  H   UNL     1       5.922   3.243  17.153  0.00  0.00    +0.000 HD
ATOM     22  H   UNL     1       5.066   2.533  15.811  0.00  0.00    +0.000 HD
ENDBRANCH  17  18
ENDBRANCH  13  17
ENDBRANCH   1  13
TORSDOF 7
ENDMDL
MODEL 6
REMARK VINA RESULT:      -6.6      1.221      1.486
REMARK  Name = 
REMARK  11 active torsions:
REMARK  status: ('A' for Active; 'I' for Inactive)
REMARK    1  A    between atoms: C_1  and  C_2
REMARK    2  A    between atoms: C_2  and  C_3
REMARK    3  A    between atoms: C_2  and  N_4
REMARK    4  A    between atoms: N_4  and  C_5
REMARK    5  A    between atoms: N_4  and  C_9
REMARK    6  A    between atoms: C_5  and  C_6
REMARK    7  A    between atoms: C_9  and  C_10
REMARK    8  A    between atoms: C_13  and  S_14
REMARK    9  A    between atoms: S_14  and  N_17
REMARK   10  A    between atoms: N_17  and  C_18
REMARK   11  A    between atoms: N_17  and  C_19
REMARK                            x       y       z     vdW  Elec       q    Type
REMARK                         _______ _______ _______ _____ _____    ______ ____
ROOT
ATOM      1  C   UNL     1       5.189   6.770  16.230  0.00  0.00    +0.000 C 
ENDROOT
BRANCH   1   2
ATOM      2  C   UNL     1       4.242   6.271  17.290  0.00  0.00    +0.000 A 
ATOM      3  C   UNL     1       3.177   6.825  17.973  0.00  0.00    +0.000 A 
ATOM      4  C   UNL     1       2.650   5.816  18.802  0.00  0.00    +0.000 A 
ATOM      5  C   UNL     1       3.343   4.646  18.528  0.00  0.00    +0.000 A 
ATOM      6  O   UNL     1       4.342   4.947  17.622  0.00  0.00    +0.000 OA
BRANCH   5   7
ATOM      7  S   UNL     1       3.108   2.988  19.182  0.00  0.00    +0.000 S 
ATOM      8  O   UNL     1       3.147   2.132  18.011  0.00  0.00    +0.000 OA
ATOM      9  O   UNL     1       4.082   2.856  20.247  0.00  0.00    +0.000 OA
BRANCH   7  10
ATOM     10  N   UNL     1       1.540   2.921  19.843  0.00  0.00    +0.000 NA
ATOM     11  C   UNL     1       0.553   2.168  19.050  0.00  0.00    +0.000 C 
ATOM     12  C   UNL     1       1.490   2.603  21.281  0.00  0.00    +0.000 C 
ENDBRANCH   7  10
ENDBRANCH   5   7
ENDBRANCH   1   2
BRANCH   1  13
ATOM     13  N   UNL     1       6.646   6.568  16.485  0.00  0.00    +0.000 NA
BRANCH  13  15
ATOM     14  C   UNL     1       7.804   6.042  18.677  0.00  0.00    +0.000 C 
ATOM     15  C   UNL     1       7.044   7.082  17.830  0.00  0.00    +0.000 C 
ATOM     16  C   UNL     1       7.959   8.319  17.745  0.00  0.00    +0.000 C 
ENDBRANCH  13  15
BRANCH  13  17
ATOM     17  C   UNL     1       7.071   5.160  16.278  0.00  0.00    +0.000 C 
BRANCH  17  18
ATOM     18  C   UNL     1       6.984   4.685  14.819  0.00  0.00    +0.000 C 
ATOM     19  N   UNL     1       7.636   5.455  13.903  0.00  0.00    +0.000 N 
ATOM     20  O   UNL     1       6.373   3.690  14.443  0.00  0.00    +0.000 OA
ATOM     21  H   UNL     1       8.174   6.275  14.141  0.00  0.00    +0.000 HD
ATOM     22  H   UNL     1       7.592   5.159  12.934  0.00  0.00    +0.000 HD
ENDBRANCH  17  18
ENDBRANCH  13  17
ENDBRANCH   1  13
TORSDOF 7
ENDMDL
MODEL 7
REMARK VINA RESULT:      -6.6      1.089      1.174
REMARK  Name = 
REMARK  11 active torsions:
REMARK  status: ('A' for Active; 'I' for Inactive)
REMARK    1  A    between atoms: C_1  and  C_2
REMARK    2  A    between atoms: C_2  and  C_3
REMARK    3  A    between atoms: C_2  and  N_4
REMARK    4  A    between atoms: N_4  and  C_5
REMARK    5  A    between atoms: N_4  and  C_9
REMARK    6  A    between atoms: C_5  and  C_6
REMARK    7  A    between atoms: C_9  and  C_10
REMARK    8  A    between atoms: C_13  and  S_14
REMARK    9  A    between atoms: S_14  and  N_17
REMARK   10  A    between atoms: N_17  and  C_18
REMARK   11  A    between atoms: N_17  and  C_19
REMARK                            x       y       z     vdW  Elec       q    Type
REMARK                         _______ _______ _______ _____ _____    ______ ____
ROOT
ATOM      1  C   UNL     1       4.460   6.863  16.584  0.00  0.00    +0.000 C 
ENDROOT
BRANCH   1   2
ATOM      2  C   UNL     1       3.686   6.387  17.786  0.00  0.00    +0.000 A 
ATOM      3  C   UNL     1       3.183   7.000  18.916  0.00  0.00    +0.000 A 
ATOM      4  C   UNL     1       2.488   6.015  19.644  0.00  0.00    +0.000 A 
ATOM      5  C   UNL     1       2.499   4.852  18.889  0.00  0.00    +0.000 A 
ATOM      6  O   UNL     1       3.269   5.084  17.764  0.00  0.00    +0.000 OA
BRANCH   5   7
ATOM      7  S   UNL     1       1.725   3.262  19.210  0.00  0.00    +0.000 S 
ATOM      8  O   UNL     1       1.096   3.425  20.507  0.00  0.00    +0.000 OA
ATOM      9  O   UNL     1       0.946   2.970  18.023  0.00  0.00    +0.000 OA
BRANCH   7  10
ATOM     10  N   UNL     1       2.972   2.112  19.360  0.00  0.00    +0.000 NA
ATOM     11  C   UNL     1       3.421   1.500  18.097  0.00  0.00    +0.000 C 
ATOM     12  C   UNL     1       4.087   2.521  20.233  0.00  0.00    +0.000 C 
ENDBRANCH   7  10
ENDBRANCH   5   7
ENDBRANCH   1   2
BRANCH   1  13
ATOM     13  N   UNL     1       5.837   6.313  16.413  0.00  0.00    +0.000 NA
BRANCH  13  15
ATOM     14  C   UNL     1       7.412   5.199  18.057  0.00  0.00    +0.000 C 
ATOM     15  C   UNL     1       6.651   6.479  17.654  0.00  0.00    +0.000 C 
ATOM     16  C   UNL     1       7.715   7.587  17.523  0.00  0.00    +0.000 C 
ENDBRANCH  13  15
BRANCH  13  17
ATOM     17  C   UNL     1       5.834   4.909  15.931  0.00  0.00    +0.000 C 
BRANCH  17  18
ATOM     18  C   UNL     1       6.730   4.661  14.707  0.00  0.00    +0.000 C 
ATOM     19  N   UNL     1       6.439   3.551  13.973  0.00  0.00    +0.000 N 
ATOM     20  O   UNL     1       7.666   5.377  14.370  0.00  0.00    +0.000 OA
ATOM     21  H   UNL     1       5.673   2.927  14.178  0.00  0.00    +0.000 HD
ATOM     22  H   UNL     1       7.017   3.369  13.160  0.00  0.00    +0.000 HD
ENDBRANCH  17  18
ENDBRANCH  13  17
ENDBRANCH   1  13
TORSDOF 7
ENDMDL
MODEL 8
REMARK VINA RESULT:      -6.4      2.191      3.183
REMARK  Name = 
REMARK  11 active torsions:
REMARK  status: ('A' for Active; 'I' for Inactive)
REMARK    1  A    between atoms: C_1  and  C_2
REMARK    2  A    between atoms: C_2  and  C_3
REMARK    3  A    between atoms: C_2  and  N_4
REMARK    4  A    between atoms: N_4  and  C_5
REMARK    5  A    between atoms: N_4  and  C_9
REMARK    6  A    between atoms: C_5  and  C_6
REMARK    7  A    between atoms: C_9  and  C_10
REMARK    8  A    between atoms: C_13  and  S_14
REMARK    9  A    between atoms: S_14  and  N_17
REMARK   10  A    between atoms: N_17  and  C_18
REMARK   11  A    between atoms: N_17  and  C_19
REMARK                            x       y       z     vdW  Elec       q    Type
REMARK                         _______ _______ _______ _____ _____    ______ ____
ROOT
ATOM      1  C   UNL     1       4.521   6.616  17.843  0.00  0.00    +0.000 C 
ENDROOT
BRANCH   1   2
ATOM      2  C   UNL     1       3.563   6.131  18.900  0.00  0.00    +0.000 A 
ATOM      3  C   UNL     1       2.517   6.707  19.593  0.00  0.00    +0.000 A 
ATOM      4  C   UNL     1       1.964   5.703  20.411  0.00  0.00    +0.000 A 
ATOM      5  C   UNL     1       2.622   4.517  20.121  0.00  0.00    +0.000 A 
ATOM      6  O   UNL     1       3.627   4.800  19.215  0.00  0.00    +0.000 OA
BRANCH   5   7
ATOM      7  S   UNL     1       2.341   2.859  20.754  0.00  0.00    +0.000 S 
ATOM      8  O   UNL     1       3.627   2.459  21.294  0.00  0.00    +0.000 OA
ATOM      9  O   UNL     1       1.167   2.966  21.598  0.00  0.00    +0.000 OA
BRANCH   7  10
ATOM     10  N   UNL     1       1.986   1.860  19.421  0.00  0.00    +0.000 NA
ATOM     11  C   UNL     1       0.782   2.232  18.658  0.00  0.00    +0.000 C 
ATOM     12  C   UNL     1       3.141   1.544  18.562  0.00  0.00    +0.000 C 
ENDBRANCH   7  10
ENDBRANCH   5   7
ENDBRANCH   1   2
BRANCH   1  13
ATOM     13  N   UNL     1       5.543   5.638  17.366  0.00  0.00    +0.000 NA
BRANCH  13  15
ATOM     14  C   UNL     1       6.543   5.248  15.069  0.00  0.00    +0.000 C 
ATOM     15  C   UNL     1       5.282   5.215  15.957  0.00  0.00    +0.000 C 
ATOM     16  C   UNL     1       4.728   3.780  15.862  0.00  0.00    +0.000 C 
ENDBRANCH  13  15
BRANCH  13  17
ATOM     17  C   UNL     1       6.932   6.130  17.552  0.00  0.00    +0.000 C 
BRANCH  17  18
ATOM     18  C   UNL     1       7.837   5.174  18.345  0.00  0.00    +0.000 C 
ATOM     19  N   UNL     1       8.057   5.506  19.648  0.00  0.00    +0.000 N 
ATOM     20  O   UNL     1       8.363   4.166  17.884  0.00  0.00    +0.000 OA
ATOM     21  H   UNL     1       7.642   6.308  20.100  0.00  0.00    +0.000 HD
ATOM     22  H   UNL     1       8.650   4.888  20.190  0.00  0.00    +0.000 HD
ENDBRANCH  17  18
ENDBRANCH  13  17
ENDBRANCH   1  13
TORSDOF 7
ENDMDL
MODEL 9
REMARK VINA RESULT:      -6.3      1.654      2.106
REMARK  Name = 
REMARK  11 active torsions:
REMARK  status: ('A' for Active; 'I' for Inactive)
REMARK    1  A    between atoms: C_1  and  C_2
REMARK    2  A    between atoms: C_2  and  C_3
REMARK    3  A    between atoms: C_2  and  N_4
REMARK    4  A    between atoms: N_4  and  C_5
REMARK    5  A    between atoms: N_4  and  C_9
REMARK    6  A    between atoms: C_5  and  C_6
REMARK    7  A    between atoms: C_9  and  C_10
REMARK    8  A    between atoms: C_13  and  S_14
REMARK    9  A    between atoms: S_14  and  N_17
REMARK   10  A    between atoms: N_17  and  C_18
REMARK   11  A    between atoms: N_17  and  C_19
REMARK                            x       y       z     vdW  Elec       q    Type
REMARK                         _______ _______ _______ _____ _____    ______ ____
ROOT
ATOM      1  C   UNL     1       5.373   6.572  17.346  0.00  0.00    +0.000 C 
ENDROOT
BRANCH   1   2
ATOM      2  C   UNL     1       4.471   5.366  17.407  0.00  0.00    +0.000 A 
ATOM      3  C   UNL     1       3.797   4.615  16.465  0.00  0.00    +0.000 A 
ATOM      4  C   UNL     1       3.167   3.561  17.155  0.00  0.00    +0.000 A 
ATOM      5  C   UNL     1       3.556   3.639  18.484  0.00  0.00    +0.000 A 
ATOM      6  O   UNL     1       4.330   4.774  18.633  0.00  0.00    +0.000 OA
BRANCH   5   7
ATOM      7  S   UNL     1       3.172   2.552  19.862  0.00  0.00    +0.000 S 
ATOM      8  O   UNL     1       2.298   1.544  19.292  0.00  0.00    +0.000 OA
ATOM      9  O   UNL     1       4.454   2.201  20.441  0.00  0.00    +0.000 OA
BRANCH   7  10
ATOM     10  N   UNL     1       2.277   3.460  20.991  0.00  0.00    +0.000 NA
ATOM     11  C   UNL     1       1.414   4.507  20.416  0.00  0.00    +0.000 C 
ATOM     12  C   UNL     1       1.603   2.661  22.031  0.00  0.00    +0.000 C 
ENDBRANCH   7  10
ENDBRANCH   5   7
ENDBRANCH   1   2
BRANCH   1  13
ATOM     13  N   UNL     1       6.679   6.397  16.644  0.00  0.00    +0.000 NA
BRANCH  13  15
ATOM     14  C   UNL     1       7.726   8.482  17.633  0.00  0.00    +0.000 C 
ATOM     15  C   UNL     1       7.811   6.954  17.444  0.00  0.00    +0.000 C 
ATOM     16  C   UNL     1       7.890   6.350  18.859  0.00  0.00    +0.000 C 
ENDBRANCH  13  15
BRANCH  13  17
ATOM     17  C   UNL     1       6.923   4.989  16.238  0.00  0.00    +0.000 C 
BRANCH  17  18
ATOM     18  C   UNL     1       7.064   4.787  14.721  0.00  0.00    +0.000 C 
ATOM     19  N   UNL     1       6.405   3.714  14.200  0.00  0.00    +0.000 N 
ATOM     20  O   UNL     1       7.721   5.507  13.978  0.00  0.00    +0.000 OA
ATOM     21  H   UNL     1       5.831   3.089  14.747  0.00  0.00    +0.000 HD
ATOM     22  H   UNL     1       6.484   3.562  13.202  0.00  0.00    +0.000 HD
ENDBRANCH  17  18
ENDBRANCH  13  17
ENDBRANCH   1  13
TORSDOF 7
ENDMDL
