MODEL 1
REMARK VINA RESULT:      -7.0      0.000      0.000
REMARK  Name = 
REMARK  3 active torsions:
REMARK  status: ('A' for Active; 'I' for Inactive)
REMARK    1  A    between atoms: C_1  and  C_2
REMARK    2  A    between atoms: C_4  and  N_5
REMARK    3  A    between atoms: N_11  and  C_12
REMARK                            x       y       z     vdW  Elec       q    Type
REMARK                         _______ _______ _______ _____ _____    ______ ____
ROOT
ATOM      1  C   UNL     1      -3.026  10.341  14.668  0.00  0.00    +0.000 C 
ATOM      2  C   UNL     1      -3.300  10.867  16.044  0.00  0.00    +0.000 A 
ATOM      3  C   UNL     1      -2.300  10.922  17.002  0.00  0.00    +0.000 A 
ATOM      4  C   UNL     1      -2.588  11.371  18.301  0.00  0.00    +0.000 A 
ATOM      5  C   UNL     1      -3.906  11.862  18.557  0.00  0.00    +0.000 A 
ATOM      6  C   UNL     1      -4.347  12.463  19.773  0.00  0.00    +0.000 A 
ATOM      7  C   UNL     1      -5.673  12.836  19.907  0.00  0.00    +0.000 A 
ATOM      8  C   UNL     1      -6.578  12.610  18.903  0.00  0.00    +0.000 A 
ATOM      9  C   UNL     1      -6.195  12.057  17.706  0.00  0.00    +0.000 A 
ATOM     10  C   UNL     1      -4.868  11.712  17.510  0.00  0.00    +0.000 A 
ATOM     11  N   UNL     1      -4.568  11.230  16.300  0.00  0.00    +0.000 NA
ATOM     12  O   UNL     1      -7.840  13.000  19.229  0.00  0.00    +0.000 OA
ATOM     13  C   UNL     1      -7.612  13.560  20.539  0.00  0.00    +0.000 C 
ATOM     14  O   UNL     1      -6.245  13.432  20.983  0.00  0.00    +0.000 OA
ENDROOT
BRANCH   4  15
ATOM     15  N   UNL     1      -1.601  11.274  19.334  0.00  0.00    +0.000 N 
ATOM     16  C   UNL     1      -0.686  10.119  19.214  0.00  0.00    +0.000 C 
ATOM     17  C   UNL     1       0.229  10.008  20.430  0.00  0.00    +0.000 C 
ATOM     18  C   UNL     1       1.016  11.301  20.656  0.00  0.00    +0.000 C 
ATOM     19  C   UNL     1       0.055  12.493  20.776  0.00  0.00    +0.000 C 
ATOM     20  C   UNL     1       0.752  13.836  20.920  0.00  0.00    +0.000 C 
ATOM     21  N   UNL     1      -0.095  14.490  21.871  0.00  0.00    +0.000 N 
ATOM     22  C   UNL     1       0.020  15.885  22.218  0.00  0.00    +0.000 C 
ATOM     23  C   UNL     1      -0.769  13.563  22.625  0.00  0.00    +0.000 C 
ATOM     24  O   UNL     1      -1.365  13.772  23.672  0.00  0.00    +0.000 OA
ATOM     25  O   UNL     1      -0.664  12.345  22.027  0.00  0.00    +0.000 OA
ATOM     26  C   UNL     1      -0.913  12.560  19.567  0.00  0.00    +0.000 C 
ENDBRANCH   4  15
TORSDOF 1
ENDMDL
MODEL 2
REMARK VINA RESULT:      -7.0      1.800      1.933
REMARK  Name = 
REMARK  3 active torsions:
REMARK  status: ('A' for Active; 'I' for Inactive)
REMARK    1  A    between atoms: C_1  and  C_2
REMARK    2  A    between atoms: C_4  and  N_5
REMARK    3  A    between atoms: N_11  and  C_12
REMARK                            x       y       z     vdW  Elec       q    Type
REMARK                         _______ _______ _______ _____ _____    ______ ____
ROOT
ATOM      1  C   UNL     1      -3.003  10.353  14.868  0.00  0.00    +0.000 C 
ATOM      2  C   UNL     1      -3.242  10.888  16.247  0.00  0.00    +0.000 A 
ATOM      3  C   UNL     1      -2.200  11.378  17.018  0.00  0.00    +0.000 A 
ATOM      4  C   UNL     1      -2.438  11.828  18.326  0.00  0.00    +0.000 A 
ATOM      5  C   UNL     1      -3.792  11.862  18.781  0.00  0.00    +0.000 A 
ATOM      6  C   UNL     1      -4.237  12.395  20.028  0.00  0.00    +0.000 A 
ATOM      7  C   UNL     1      -5.575  12.302  20.369  0.00  0.00    +0.000 A 
ATOM      8  C   UNL     1      -6.477  11.682  19.544  0.00  0.00    +0.000 A 
ATOM      9  C   UNL     1      -6.100  11.176  18.325  0.00  0.00    +0.000 A 
ATOM     10  C   UNL     1      -4.780  11.289  17.920  0.00  0.00    +0.000 A 
ATOM     11  N   UNL     1      -4.507  10.819  16.699  0.00  0.00    +0.000 NA
ATOM     12  O   UNL     1      -7.733  11.648  20.063  0.00  0.00    +0.000 OA
ATOM     13  C   UNL     1      -7.532  12.379  21.290  0.00  0.00    +0.000 C 
ATOM     14  O   UNL     1      -6.159  12.771  21.500  0.00  0.00    +0.000 OA
ENDROOT
BRANCH   4  15
ATOM     15  N   UNL     1      -1.341  12.178  19.179  0.00  0.00    +0.000 N 
ATOM     16  C   UNL     1      -0.709  11.040  19.879  0.00  0.00    +0.000 C 
ATOM     17  C   UNL     1       0.343  11.517  20.876  0.00  0.00    +0.000 C 
ATOM     18  C   UNL     1       1.399  12.391  20.196  0.00  0.00    +0.000 C 
ATOM     19  C   UNL     1       0.729  13.567  19.472  0.00  0.00    +0.000 C 
ATOM     20  C   UNL     1       1.697  14.446  18.696  0.00  0.00    +0.000 C 
ATOM     21  N   UNL     1       1.159  15.748  18.951  0.00  0.00    +0.000 N 
ATOM     22  C   UNL     1       1.604  16.944  18.280  0.00  0.00    +0.000 C 
ATOM     23  C   UNL     1       0.436  15.745  20.117  0.00  0.00    +0.000 C 
ATOM     24  O   UNL     1       0.066  16.725  20.746  0.00  0.00    +0.000 OA
ATOM     25  O   UNL     1       0.200  14.456  20.487  0.00  0.00    +0.000 OA
ATOM     26  C   UNL     1      -0.381  13.076  18.508  0.00  0.00    +0.000 C 
ENDBRANCH   4  15
TORSDOF 1
ENDMDL
MODEL 3
REMARK VINA RESULT:      -6.9      8.517     11.481
REMARK  Name = 
REMARK  3 active torsions:
REMARK  status: ('A' for Active; 'I' for Inactive)
REMARK    1  A    between atoms: C_1  and  C_2
REMARK    2  A    between atoms: C_4  and  N_5
REMARK    3  A    between atoms: N_11  and  C_12
REMARK                            x       y       z     vdW  Elec       q    Type
REMARK                         _______ _______ _______ _____ _____    ______ ____
ROOT
ATOM      1  C   UNL     1       1.838   9.317  17.716  0.00  0.00    +0.000 C 
ATOM      2  C   UNL     1       2.432   8.030  18.201  0.00  0.00    +0.000 A 
ATOM      3  C   UNL     1       3.732   7.673  17.878  0.00  0.00    +0.000 A 
ATOM      4  C   UNL     1       4.253   6.440  18.300  0.00  0.00    +0.000 A 
ATOM      5  C   UNL     1       3.441   5.632  19.155  0.00  0.00    +0.000 A 
ATOM      6  C   UNL     1       3.844   4.412  19.775  0.00  0.00    +0.000 A 
ATOM      7  C   UNL     1       2.929   3.697  20.528  0.00  0.00    +0.000 A 
ATOM      8  C   UNL     1       1.634   4.124  20.665  0.00  0.00    +0.000 A 
ATOM      9  C   UNL     1       1.207   5.304  20.107  0.00  0.00    +0.000 A 
ATOM     10  C   UNL     1       2.101   6.077  19.384  0.00  0.00    +0.000 A 
ATOM     11  N   UNL     1       1.621   7.234  18.920  0.00  0.00    +0.000 NA
ATOM     12  O   UNL     1       0.870   3.274  21.402  0.00  0.00    +0.000 OA
ATOM     13  C   UNL     1       1.856   2.286  21.769  0.00  0.00    +0.000 C 
ATOM     14  O   UNL     1       3.155   2.537  21.194  0.00  0.00    +0.000 OA
ENDROOT
BRANCH   4  15
ATOM     15  N   UNL     1       5.532   5.998  17.829  0.00  0.00    +0.000 N 
ATOM     16  C   UNL     1       6.534   5.752  18.888  0.00  0.00    +0.000 C 
ATOM     17  C   UNL     1       7.903   5.434  18.293  0.00  0.00    +0.000 C 
ATOM     18  C   UNL     1       7.830   4.248  17.329  0.00  0.00    +0.000 C 
ATOM     19  C   UNL     1       6.784   4.515  16.237  0.00  0.00    +0.000 C 
ATOM     20  C   UNL     1       6.583   3.352  15.278  0.00  0.00    +0.000 C 
ATOM     21  N   UNL     1       6.427   4.041  14.033  0.00  0.00    +0.000 N 
ATOM     22  C   UNL     1       6.017   3.398  12.809  0.00  0.00    +0.000 C 
ATOM     23  C   UNL     1       7.031   5.271  14.090  0.00  0.00    +0.000 C 
ATOM     24  O   UNL     1       7.301   5.993  13.142  0.00  0.00    +0.000 OA
ATOM     25  O   UNL     1       7.304   5.570  15.389  0.00  0.00    +0.000 OA
ATOM     26  C   UNL     1       5.414   4.899  16.851  0.00  0.00    +0.000 C 
ENDBRANCH   4  15
TORSDOF 1
ENDMDL
MODEL 4
REMARK VINA RESULT:      -6.9      4.563      6.921
REMARK  Name = 
REMARK  3 active torsions:
REMARK  status: ('A' for Active; 'I' for Inactive)
REMARK    1  A    between atoms: C_1  and  C_2
REMARK    2  A    between atoms: C_4  and  N_5
REMARK    3  A    between atoms: N_11  and  C_12
REMARK                            x       y       z     vdW  Elec       q    Type
REMARK                         _______ _______ _______ _____ _____    ______ ____
ROOT
ATOM      1  C   UNL     1      -0.144  11.486  22.331  0.00  0.00    +0.000 C 
ATOM      2  C   UNL     1      -0.330  10.916  20.957  0.00  0.00    +0.000 A 
ATOM      3  C   UNL     1       0.517   9.935  20.467  0.00  0.00    +0.000 A 
ATOM      4  C   UNL     1       0.356   9.450  19.159  0.00  0.00    +0.000 A 
ATOM      5  C   UNL     1      -0.764   9.923  18.408  0.00  0.00    +0.000 A 
ATOM      6  C   UNL     1      -1.154   9.460  17.116  0.00  0.00    +0.000 A 
ATOM      7  C   UNL     1      -2.227  10.055  16.474  0.00  0.00    +0.000 A 
ATOM      8  C   UNL     1      -2.902  11.102  17.045  0.00  0.00    +0.000 A 
ATOM      9  C   UNL     1      -2.578  11.566  18.295  0.00  0.00    +0.000 A 
ATOM     10  C   UNL     1      -1.543  10.969  18.995  0.00  0.00    +0.000 A 
ATOM     11  N   UNL     1      -1.326  11.444  20.226  0.00  0.00    +0.000 NA
ATOM     12  O   UNL     1      -3.895  11.587  16.251  0.00  0.00    +0.000 OA
ATOM     13  C   UNL     1      -3.808  10.677  15.134  0.00  0.00    +0.000 C 
ATOM     14  O   UNL     1      -2.733   9.723  15.260  0.00  0.00    +0.000 OA
ENDROOT
BRANCH   4  15
ATOM     15  N   UNL     1       1.326   8.560  18.595  0.00  0.00    +0.000 N 
ATOM     16  C   UNL     1       2.444   9.224  17.890  0.00  0.00    +0.000 C 
ATOM     17  C   UNL     1       3.343   8.205  17.194  0.00  0.00    +0.000 C 
ATOM     18  C   UNL     1       3.868   7.160  18.180  0.00  0.00    +0.000 C 
ATOM     19  C   UNL     1       2.698   6.480  18.906  0.00  0.00    +0.000 C 
ATOM     20  C   UNL     1       3.128   5.481  19.969  0.00  0.00    +0.000 C 
ATOM     21  N   UNL     1       2.157   4.445  19.787  0.00  0.00    +0.000 N 
ATOM     22  C   UNL     1       2.001   3.328  20.685  0.00  0.00    +0.000 C 
ATOM     23  C   UNL     1       1.656   4.480  18.510  0.00  0.00    +0.000 C 
ATOM     24  O   UNL     1       1.014   3.600  17.956  0.00  0.00    +0.000 OA
ATOM     25  O   UNL     1       1.999   5.664  17.933  0.00  0.00    +0.000 OA
ATOM     26  C   UNL     1       1.756   7.526  19.557  0.00  0.00    +0.000 C 
ENDBRANCH   4  15
TORSDOF 1
ENDMDL
MODEL 5
REMARK VINA RESULT:      -6.8      1.368      1.454
REMARK  Name = 
REMARK  3 active torsions:
REMARK  status: ('A' for Active; 'I' for Inactive)
REMARK    1  A    between atoms: C_1  and  C_2
REMARK    2  A    between atoms: C_4  and  N_5
REMARK    3  A    between atoms: N_11  and  C_12
REMARK                            x       y       z     vdW  Elec       q    Type
REMARK                         _______ _______ _______ _____ _____    ______ ____
ROOT
ATOM      1  C   UNL     1      -3.789  10.365  14.570  0.00  0.00    +0.000 C 
ATOM      2  C   UNL     1      -3.636  10.864  15.974  0.00  0.00    +0.000 A 
ATOM      3  C   UNL     1      -2.385  10.995  16.556  0.00  0.00    +0.000 A 
ATOM      4  C   UNL     1      -2.266  11.416  17.890  0.00  0.00    +0.000 A 
ATOM      5  C   UNL     1      -3.459  11.803  18.575  0.00  0.00    +0.000 A 
ATOM      6  C   UNL     1      -3.521  12.364  19.885  0.00  0.00    +0.000 A 
ATOM      7  C   UNL     1      -4.755  12.632  20.453  0.00  0.00    +0.000 A 
ATOM      8  C   UNL     1      -5.919  12.339  19.791  0.00  0.00    +0.000 A 
ATOM      9  C   UNL     1      -5.909  11.821  18.520  0.00  0.00    +0.000 A 
ATOM     10  C   UNL     1      -4.697  11.581  17.894  0.00  0.00    +0.000 A 
ATOM     11  N   UNL     1      -4.774  11.127  16.639  0.00  0.00    +0.000 NA
ATOM     12  O   UNL     1      -7.030  12.629  20.521  0.00  0.00    +0.000 OA
ATOM     13  C   UNL     1      -6.428  13.201  21.701  0.00  0.00    +0.000 C 
ATOM     14  O   UNL     1      -4.986  13.178  21.673  0.00  0.00    +0.000 OA
ENDROOT
BRANCH   4  15
ATOM     15  N   UNL     1      -0.990  11.393  18.543  0.00  0.00    +0.000 N 
ATOM     16  C   UNL     1      -0.137  10.235  18.202  0.00  0.00    +0.000 C 
ATOM     17  C   UNL     1       1.130  10.211  19.051  0.00  0.00    +0.000 C 
ATOM     18  C   UNL     1       1.914  11.518  18.921  0.00  0.00    +0.000 C 
ATOM     19  C   UNL     1       1.016  12.713  19.276  0.00  0.00    +0.000 C 
ATOM     20  C   UNL     1       1.687  14.065  19.095  0.00  0.00    +0.000 C 
ATOM     21  N   UNL     1       1.185  14.781  20.228  0.00  0.00    +0.000 N 
ATOM     22  C   UNL     1       1.371  16.196  20.428  0.00  0.00    +0.000 C 
ATOM     23  C   UNL     1       0.820  13.906  21.220  0.00  0.00    +0.000 C 
ATOM     24  O   UNL     1       0.598  14.184  22.390  0.00  0.00    +0.000 OA
ATOM     25  O   UNL     1       0.754  12.650  20.700  0.00  0.00    +0.000 OA
ATOM     26  C   UNL     1      -0.298  12.694  18.452  0.00  0.00    +0.000 C 
ENDBRANCH   4  15
TORSDOF 1
ENDMDL
MODEL 6
REMARK VINA RESULT:      -6.8      7.625     10.585
REMARK  Name = 
REMARK  3 active torsions:
REMARK  status: ('A' for Active; 'I' for Inactive)
REMARK    1  A    between atoms: C_1  and  C_2
REMARK    2  A    between atoms: C_4  and  N_5
REMARK    3  A    between atoms: N_11  and  C_12
REMARK                            x       y       z     vdW  Elec       q    Type
REMARK                         _______ _______ _______ _____ _____    ______ ____
ROOT
ATOM      1  C   UNL     1       1.975   3.003  21.683  0.00  0.00    +0.000 C 
ATOM      2  C   UNL     1       2.337   4.189  20.841  0.00  0.00    +0.000 A 
ATOM      3  C   UNL     1       3.457   4.174  20.025  0.00  0.00    +0.000 A 
ATOM      4  C   UNL     1       3.807   5.313  19.282  0.00  0.00    +0.000 A 
ATOM      5  C   UNL     1       2.915   6.429  19.318  0.00  0.00    +0.000 A 
ATOM      6  C   UNL     1       3.043   7.619  18.542  0.00  0.00    +0.000 A 
ATOM      7  C   UNL     1       2.139   8.652  18.726  0.00  0.00    +0.000 A 
ATOM      8  C   UNL     1       1.142   8.564  19.662  0.00  0.00    +0.000 A 
ATOM      9  C   UNL     1       0.966   7.430  20.414  0.00  0.00    +0.000 A 
ATOM     10  C   UNL     1       1.817   6.352  20.230  0.00  0.00    +0.000 A 
ATOM     11  N   UNL     1       1.545   5.268  20.963  0.00  0.00    +0.000 NA
ATOM     12  O   UNL     1       0.380   9.689  19.732  0.00  0.00    +0.000 OA
ATOM     13  C   UNL     1       0.977  10.477  18.681  0.00  0.00    +0.000 C 
ATOM     14  O   UNL     1       2.110   9.834  18.061  0.00  0.00    +0.000 OA
ENDROOT
BRANCH   4  15
ATOM     15  N   UNL     1       5.049   5.356  18.570  0.00  0.00    +0.000 N 
ATOM     16  C   UNL     1       6.256   5.350  19.423  0.00  0.00    +0.000 C 
ATOM     17  C   UNL     1       7.522   5.550  18.594  0.00  0.00    +0.000 C 
ATOM     18  C   UNL     1       7.635   4.501  17.486  0.00  0.00    +0.000 C 
ATOM     19  C   UNL     1       6.374   4.517  16.610  0.00  0.00    +0.000 C 
ATOM     20  C   UNL     1       6.361   3.447  15.529  0.00  0.00    +0.000 C 
ATOM     21  N   UNL     1       5.775   4.162  14.435  0.00  0.00    +0.000 N 
ATOM     22  C   UNL     1       5.360   3.540  13.203  0.00  0.00    +0.000 C 
ATOM     23  C   UNL     1       5.977   5.511  14.585  0.00  0.00    +0.000 C 
ATOM     24  O   UNL     1       5.835   6.368  13.726  0.00  0.00    +0.000 OA
ATOM     25  O   UNL     1       6.382   5.758  15.861  0.00  0.00    +0.000 OA
ATOM     26  C   UNL     1       5.090   4.375  17.467  0.00  0.00    +0.000 C 
ENDBRANCH   4  15
TORSDOF 1
ENDMDL
MODEL 7
REMARK VINA RESULT:      -6.7      2.234      3.652
REMARK  Name = 
REMARK  3 active torsions:
REMARK  status: ('A' for Active; 'I' for Inactive)
REMARK    1  A    between atoms: C_1  and  C_2
REMARK    2  A    between atoms: C_4  and  N_5
REMARK    3  A    between atoms: N_11  and  C_12
REMARK                            x       y       z     vdW  Elec       q    Type
REMARK                         _______ _______ _______ _____ _____    ______ ____
ROOT
ATOM      1  C   UNL     1      -3.861  10.180  14.324  0.00  0.00    +0.000 C 
ATOM      2  C   UNL     1      -3.669  10.716  15.710  0.00  0.00    +0.000 A 
ATOM      3  C   UNL     1      -2.403  10.991  16.203  0.00  0.00    +0.000 A 
ATOM      4  C   UNL     1      -2.240  11.445  17.522  0.00  0.00    +0.000 A 
ATOM      5  C   UNL     1      -3.420  11.713  18.282  0.00  0.00    +0.000 A 
ATOM      6  C   UNL     1      -3.455  12.287  19.588  0.00  0.00    +0.000 A 
ATOM      7  C   UNL     1      -4.669  12.430  20.237  0.00  0.00    +0.000 A 
ATOM      8  C   UNL     1      -5.836  12.002  19.660  0.00  0.00    +0.000 A 
ATOM      9  C   UNL     1      -5.855  11.466  18.397  0.00  0.00    +0.000 A 
ATOM     10  C   UNL     1      -4.670  11.348  17.690  0.00  0.00    +0.000 A 
ATOM     11  N   UNL     1      -4.782  10.866  16.448  0.00  0.00    +0.000 NA
ATOM     12  O   UNL     1      -6.920  12.183  20.461  0.00  0.00    +0.000 OA
ATOM     13  C   UNL     1      -6.307  12.837  21.592  0.00  0.00    +0.000 C 
ATOM     14  O   UNL     1      -4.875  12.969  21.465  0.00  0.00    +0.000 OA
ENDROOT
BRANCH   4  15
ATOM     15  N   UNL     1      -0.929  11.571  18.085  0.00  0.00    +0.000 N 
ATOM     16  C   UNL     1      -0.580  12.929  18.553  0.00  0.00    +0.000 C 
ATOM     17  C   UNL     1       0.878  13.005  18.995  0.00  0.00    +0.000 C 
ATOM     18  C   UNL     1       1.190  11.964  20.072  0.00  0.00    +0.000 C 
ATOM     19  C   UNL     1       0.821  10.559  19.574  0.00  0.00    +0.000 C 
ATOM     20  C   UNL     1       1.019   9.465  20.612  0.00  0.00    +0.000 C 
ATOM     21  N   UNL     1       1.532   8.402  19.802  0.00  0.00    +0.000 N 
ATOM     22  C   UNL     1       1.714   7.052  20.275  0.00  0.00    +0.000 C 
ATOM     23  C   UNL     1       2.123   8.907  18.672  0.00  0.00    +0.000 C 
ATOM     24  O   UNL     1       2.868   8.307  17.911  0.00  0.00    +0.000 OA
ATOM     25  O   UNL     1       1.760  10.210  18.527  0.00  0.00    +0.000 OA
ATOM     26  C   UNL     1      -0.644  10.508  19.069  0.00  0.00    +0.000 C 
ENDBRANCH   4  15
TORSDOF 1
ENDMDL
MODEL 8
REMARK VINA RESULT:      -6.7      1.806      2.603
REMARK  Name = 
REMARK  3 active torsions:
REMARK  status: ('A' for Active; 'I' for Inactive)
REMARK    1  A    between atoms: C_1  and  C_2
REMARK    2  A    between atoms: C_4  and  N_5
REMARK    3  A    between atoms: N_11  and  C_12
REMARK                            x       y       z     vdW  Elec       q    Type
REMARK                         _______ _______ _______ _____ _____    ______ ____
ROOT
ATOM      1  C   UNL     1      -3.354  10.114  14.351  0.00  0.00    +0.000 C 
ATOM      2  C   UNL     1      -3.441  10.691  15.731  0.00  0.00    +0.000 A 
ATOM      3  C   UNL     1      -2.308  11.123  16.401  0.00  0.00    +0.000 A 
ATOM      4  C   UNL     1      -2.405  11.614  17.713  0.00  0.00    +0.000 A 
ATOM      5  C   UNL     1      -3.712  11.750  18.277  0.00  0.00    +0.000 A 
ATOM      6  C   UNL     1      -4.014  12.336  19.542  0.00  0.00    +0.000 A 
ATOM      7  C   UNL     1      -5.323  12.343  19.994  0.00  0.00    +0.000 A 
ATOM      8  C   UNL     1      -6.329  11.769  19.261  0.00  0.00    +0.000 A 
ATOM      9  C   UNL     1      -6.090  11.215  18.028  0.00  0.00    +0.000 A 
ATOM     10  C   UNL     1      -4.804  11.229  17.514  0.00  0.00    +0.000 A 
ATOM     11  N   UNL     1      -4.665  10.718  16.287  0.00  0.00    +0.000 NA
ATOM     12  O   UNL     1      -7.538  11.832  19.881  0.00  0.00    +0.000 OA
ATOM     13  C   UNL     1      -7.186  12.572  21.069  0.00  0.00    +0.000 C 
ATOM     14  O   UNL     1      -5.778  12.872  21.157  0.00  0.00    +0.000 OA
ENDROOT
BRANCH   4  15
ATOM     15  N   UNL     1      -1.221  11.905  18.465  0.00  0.00    +0.000 N 
ATOM     16  C   UNL     1      -0.610  13.221  18.180  0.00  0.00    +0.000 C 
ATOM     17  C   UNL     1       0.722  13.383  18.906  0.00  0.00    +0.000 C 
ATOM     18  C   UNL     1       0.564  13.174  20.414  0.00  0.00    +0.000 C 
ATOM     19  C   UNL     1      -0.074  11.806  20.696  0.00  0.00    +0.000 C 
ATOM     20  C   UNL     1      -0.347  11.544  22.168  0.00  0.00    +0.000 C 
ATOM     21  N   UNL     1      -0.005  10.158  22.275  0.00  0.00    +0.000 N 
ATOM     22  C   UNL     1      -0.266   9.356  23.444  0.00  0.00    +0.000 C 
ATOM     23  C   UNL     1       0.880   9.809  21.285  0.00  0.00    +0.000 C 
ATOM     24  O   UNL     1       1.557   8.792  21.240  0.00  0.00    +0.000 OA
ATOM     25  O   UNL     1       0.902  10.792  20.344  0.00  0.00    +0.000 OA
ATOM     26  C   UNL     1      -1.395  11.626  19.904  0.00  0.00    +0.000 C 
ENDBRANCH   4  15
TORSDOF 1
ENDMDL
MODEL 9
REMARK VINA RESULT:      -6.6      2.408      3.449
REMARK  Name = 
REMARK  3 active torsions:
REMARK  status: ('A' for Active; 'I' for Inactive)
REMARK    1  A    between atoms: C_1  and  C_2
REMARK    2  A    between atoms: C_4  and  N_5
REMARK    3  A    between atoms: N_11  and  C_12
REMARK                            x       y       z     vdW  Elec       q    Type
REMARK                         _______ _______ _______ _____ _____    ______ ____
ROOT
ATOM      1  C   UNL     1      -5.294  11.568  17.075  0.00  0.00    +0.000 C 
ATOM      2  C   UNL     1      -4.398  11.875  18.236  0.00  0.00    +0.000 A 
ATOM      3  C   UNL     1      -3.030  11.670  18.160  0.00  0.00    +0.000 A 
ATOM      4  C   UNL     1      -2.214  11.916  19.276  0.00  0.00    +0.000 A 
ATOM      5  C   UNL     1      -2.828  12.480  20.436  0.00  0.00    +0.000 A 
ATOM      6  C   UNL     1      -2.144  12.905  21.615  0.00  0.00    +0.000 A 
ATOM      7  C   UNL     1      -2.874  13.374  22.693  0.00  0.00    +0.000 A 
ATOM      8  C   UNL     1      -4.244  13.412  22.660  0.00  0.00    +0.000 A 
ATOM      9  C   UNL     1      -4.943  13.036  21.540  0.00  0.00    +0.000 A 
ATOM     10  C   UNL     1      -4.252  12.605  20.420  0.00  0.00    +0.000 A 
ATOM     11  N   UNL     1      -5.004  12.309  19.355  0.00  0.00    +0.000 NA
ATOM     12  O   UNL     1      -4.790  13.860  23.823  0.00  0.00    +0.000 OA
ATOM     13  C   UNL     1      -3.596  14.163  24.575  0.00  0.00    +0.000 C 
ATOM     14  O   UNL     1      -2.381  13.830  23.872  0.00  0.00    +0.000 OA
ENDROOT
BRANCH   4  15
ATOM     15  N   UNL     1      -0.829  11.549  19.252  0.00  0.00    +0.000 N 
ATOM     16  C   UNL     1      -0.548  10.216  18.678  0.00  0.00    +0.000 C 
ATOM     17  C   UNL     1       0.925   9.847  18.831  0.00  0.00    +0.000 C 
ATOM     18  C   UNL     1       1.834  10.908  18.208  0.00  0.00    +0.000 C 
ATOM     19  C   UNL     1       1.530  12.287  18.810  0.00  0.00    +0.000 C 
ATOM     20  C   UNL     1       2.330  13.421  18.189  0.00  0.00    +0.000 C 
ATOM     21  N   UNL     1       2.621  14.221  19.340  0.00  0.00    +0.000 N 
ATOM     22  C   UNL     1       3.210  15.535  19.274  0.00  0.00    +0.000 C 
ATOM     23  C   UNL     1       2.583  13.452  20.476  0.00  0.00    +0.000 C 
ATOM     24  O   UNL     1       3.024  13.756  21.575  0.00  0.00    +0.000 OA
ATOM     25  O   UNL     1       1.979  12.267  20.188  0.00  0.00    +0.000 OA
ATOM     26  C   UNL     1       0.020  12.627  18.706  0.00  0.00    +0.000 C 
ENDBRANCH   4  15
TORSDOF 1
ENDMDL
