MODEL 1
REMARK VINA RESULT:      -8.5      0.000      0.000
REMARK  Name = 
REMARK  7 active torsions:
REMARK  status: ('A' for Active; 'I' for Inactive)
REMARK    1  A    between atoms: C_1  and  C_2
REMARK    2  A    between atoms: C_5  and  C_6
REMARK    3  A    between atoms: C_8  and  C_9
REMARK    4  A    between atoms: N_11  and  C_12
REMARK    5  A    between atoms: C_13  and  C_14
REMARK    6  A    between atoms: N_15  and  C_16
REMARK    7  A    between atoms: N_17  and  C_18
REMARK                            x       y       z     vdW  Elec       q    Type
REMARK                         _______ _______ _______ _____ _____    ______ ____
ROOT
ATOM      1  C   UNL     1       0.975  10.121  19.494  0.00  0.00    +0.000 C 
ATOM      2  O   UNL     1       1.358  11.200  19.044  0.00  0.00    +0.000 OA
ATOM      3  N   UNL     1      -0.101   9.972  20.342  0.00  0.00    +0.000 N 
ATOM      4  H   UNL     1      -0.074   9.147  20.933  0.00  0.00    +0.000 HD
ENDROOT
BRANCH   3   5
ATOM      5  C   UNL     1      -0.933  10.983  20.753  0.00  0.00    +0.000 A 
ATOM      6  C   UNL     1      -1.772  11.800  20.095  0.00  0.00    +0.000 A 
ATOM      7  C   UNL     1      -2.106  11.792  18.640  0.00  0.00    +0.000 C 
ATOM      8  N   UNL     1      -2.465  12.621  20.982  0.00  0.00    +0.000 N 
ATOM      9  C   UNL     1      -3.235  13.813  20.687  0.00  0.00    +0.000 C 
ATOM     10  N   UNL     1      -2.054  12.309  22.299  0.00  0.00    +0.000 N 
ATOM     11  C   UNL     1      -1.010  11.388  22.198  0.00  0.00    +0.000 A 
ATOM     12  O   UNL     1      -0.246  10.960  23.057  0.00  0.00    +0.000 OA
BRANCH  10  13
ATOM     13  C   UNL     1      -2.172  13.266  23.319  0.00  0.00    +0.000 A 
ATOM     14  C   UNL     1      -1.168  14.198  23.594  0.00  0.00    +0.000 A 
ATOM     15  C   UNL     1      -1.367  15.157  24.591  0.00  0.00    +0.000 A 
ATOM     16  C   UNL     1      -2.548  15.167  25.336  0.00  0.00    +0.000 A 
ATOM     17  C   UNL     1      -3.539  14.222  25.078  0.00  0.00    +0.000 A 
ATOM     18  C   UNL     1      -3.355  13.280  24.063  0.00  0.00    +0.000 A 
ENDBRANCH  10  13
ENDBRANCH   3   5
BRANCH   1  21
ATOM     19  C   UNL     1       2.910   7.293  18.244  0.00  0.00    +0.000 A 
ATOM     20  C   UNL     1       2.410   8.557  18.034  0.00  0.00    +0.000 A 
ATOM     21  C   UNL     1       1.705   8.882  19.218  0.00  0.00    +0.000 A 
ATOM     22  N   UNL     1       1.786   7.880  20.109  0.00  0.00    +0.000 NA
ATOM     23  O   UNL     1       2.523   6.885  19.490  0.00  0.00    +0.000 OA
BRANCH  19  28
ATOM     24  C   UNL     1       6.011   3.652  14.979  0.00  0.00    +0.000 C 
ATOM     25  C   UNL     1       5.253   4.581  15.882  0.00  0.00    +0.000 A 
ATOM     26  C   UNL     1       4.283   4.102  16.765  0.00  0.00    +0.000 A 
ATOM     27  C   UNL     1       3.540   4.987  17.555  0.00  0.00    +0.000 A 
ATOM     28  C   UNL     1       3.744   6.374  17.475  0.00  0.00    +0.000 A 
ATOM     29  C   UNL     1       4.746   6.843  16.614  0.00  0.00    +0.000 A 
ATOM     30  C   UNL     1       5.489   5.959  15.822  0.00  0.00    +0.000 A 
ENDBRANCH  19  28
ENDBRANCH   1  21
TORSDOF 4
ENDMDL
MODEL 2
REMARK VINA RESULT:      -8.1      1.139      1.140
REMARK  Name = 
REMARK  7 active torsions:
REMARK  status: ('A' for Active; 'I' for Inactive)
REMARK    1  A    between atoms: C_1  and  C_2
REMARK    2  A    between atoms: C_5  and  C_6
REMARK    3  A    between atoms: C_8  and  C_9
REMARK    4  A    between atoms: N_11  and  C_12
REMARK    5  A    between atoms: C_13  and  C_14
REMARK    6  A    between atoms: N_15  and  C_16
REMARK    7  A    between atoms: N_17  and  C_18
REMARK                            x       y       z     vdW  Elec       q    Type
REMARK                         _______ _______ _______ _____ _____    ______ ____
ROOT
ATOM      1  C   UNL     1       0.434   9.970  19.398  0.00  0.00    +0.000 C 
ATOM      2  O   UNL     1      -0.526  10.130  18.646  0.00  0.00    +0.000 OA
ATOM      3  N   UNL     1       0.780  10.838  20.410  0.00  0.00    +0.000 N 
ATOM      4  H   UNL     1       1.758  10.818  20.680  0.00  0.00    +0.000 HD
ENDROOT
BRANCH   3   5
ATOM      5  C   UNL     1       0.078  11.962  20.766  0.00  0.00    +0.000 A 
ATOM      6  C   UNL     1      -0.140  13.136  20.149  0.00  0.00    +0.000 A 
ATOM      7  C   UNL     1       0.294  13.548  18.781  0.00  0.00    +0.000 C 
ATOM      8  N   UNL     1      -0.999  13.939  20.897  0.00  0.00    +0.000 N 
ATOM      9  C   UNL     1      -1.262  15.356  20.744  0.00  0.00    +0.000 C 
ATOM     10  N   UNL     1      -1.364  13.237  22.069  0.00  0.00    +0.000 N 
ATOM     11  C   UNL     1      -0.618  12.057  22.094  0.00  0.00    +0.000 A 
ATOM     12  O   UNL     1      -0.484  11.225  22.984  0.00  0.00    +0.000 OA
BRANCH  10  13
ATOM     13  C   UNL     1      -1.775  13.941  23.213  0.00  0.00    +0.000 A 
ATOM     14  C   UNL     1      -0.889  14.695  23.987  0.00  0.00    +0.000 A 
ATOM     15  C   UNL     1      -1.369  15.413  25.086  0.00  0.00    +0.000 A 
ATOM     16  C   UNL     1      -2.720  15.353  25.434  0.00  0.00    +0.000 A 
ATOM     17  C   UNL     1      -3.598  14.582  24.675  0.00  0.00    +0.000 A 
ATOM     18  C   UNL     1      -3.127  13.885  23.559  0.00  0.00    +0.000 A 
ENDBRANCH  10  13
ENDBRANCH   3   5
BRANCH   1  21
ATOM     19  C   UNL     1       2.720   7.330  18.345  0.00  0.00    +0.000 A 
ATOM     20  C   UNL     1       1.949   8.418  18.007  0.00  0.00    +0.000 A 
ATOM     21  C   UNL     1       1.358   8.848  19.219  0.00  0.00    +0.000 A 
ATOM     22  N   UNL     1       1.762   8.079  20.244  0.00  0.00    +0.000 NA
ATOM     23  O   UNL     1       2.597   7.123  19.690  0.00  0.00    +0.000 OA
BRANCH  19  28
ATOM     24  C   UNL     1       6.069   3.780  15.227  0.00  0.00    +0.000 C 
ATOM     25  C   UNL     1       5.244   4.686  16.095  0.00  0.00    +0.000 A 
ATOM     26  C   UNL     1       4.240   4.180  16.922  0.00  0.00    +0.000 A 
ATOM     27  C   UNL     1       3.437   5.044  17.677  0.00  0.00    +0.000 A 
ATOM     28  C   UNL     1       3.614   6.435  17.616  0.00  0.00    +0.000 A 
ATOM     29  C   UNL     1       4.650   6.931  16.811  0.00  0.00    +0.000 A 
ATOM     30  C   UNL     1       5.453   6.069  16.055  0.00  0.00    +0.000 A 
ENDBRANCH  19  28
ENDBRANCH   1  21
TORSDOF 4
ENDMDL
MODEL 3
REMARK VINA RESULT:      -8.0      2.042     10.676
REMARK  Name = 
REMARK  7 active torsions:
REMARK  status: ('A' for Active; 'I' for Inactive)
REMARK    1  A    between atoms: C_1  and  C_2
REMARK    2  A    between atoms: C_5  and  C_6
REMARK    3  A    between atoms: C_8  and  C_9
REMARK    4  A    between atoms: N_11  and  C_12
REMARK    5  A    between atoms: C_13  and  C_14
REMARK    6  A    between atoms: N_15  and  C_16
REMARK    7  A    between atoms: N_17  and  C_18
REMARK                            x       y       z     vdW  Elec       q    Type
REMARK                         _______ _______ _______ _____ _____    ______ ____
ROOT
ATOM      1  C   UNL     1       1.352   8.394  19.917  0.00  0.00    +0.000 C 
ATOM      2  O   UNL     1       1.170   8.619  18.721  0.00  0.00    +0.000 OA
ATOM      3  N   UNL     1       1.948   7.254  20.410  0.00  0.00    +0.000 N 
ATOM      4  H   UNL     1       1.691   7.011  21.361  0.00  0.00    +0.000 HD
ENDROOT
BRANCH   3   5
ATOM      5  C   UNL     1       2.476   6.241  19.649  0.00  0.00    +0.000 A 
ATOM      6  C   UNL     1       2.299   4.910  19.652  0.00  0.00    +0.000 A 
ATOM      7  C   UNL     1       1.364   4.110  20.497  0.00  0.00    +0.000 C 
ATOM      8  N   UNL     1       3.011   4.312  18.614  0.00  0.00    +0.000 N 
ATOM      9  C   UNL     1       3.322   2.907  18.432  0.00  0.00    +0.000 C 
ATOM     10  N   UNL     1       3.687   5.322  17.890  0.00  0.00    +0.000 N 
ATOM     11  C   UNL     1       3.488   6.523  18.574  0.00  0.00    +0.000 A 
ATOM     12  O   UNL     1       4.008   7.621  18.412  0.00  0.00    +0.000 OA
BRANCH  10  13
ATOM     13  C   UNL     1       4.840   5.009  17.154  0.00  0.00    +0.000 A 
ATOM     14  C   UNL     1       6.105   4.923  17.742  0.00  0.00    +0.000 A 
ATOM     15  C   UNL     1       7.207   4.559  16.963  0.00  0.00    +0.000 A 
ATOM     16  C   UNL     1       7.057   4.317  15.596  0.00  0.00    +0.000 A 
ATOM     17  C   UNL     1       5.800   4.427  15.006  0.00  0.00    +0.000 A 
ATOM     18  C   UNL     1       4.691   4.762  15.787  0.00  0.00    +0.000 A 
ENDBRANCH  10  13
ENDBRANCH   3   5
BRANCH   1  21
ATOM     19  C   UNL     1      -0.226  10.922  22.020  0.00  0.00    +0.000 A 
ATOM     20  C   UNL     1      -0.128  10.313  20.790  0.00  0.00    +0.000 A 
ATOM     21  C   UNL     1       0.865   9.317  20.944  0.00  0.00    +0.000 A 
ATOM     22  N   UNL     1       1.334   9.304  22.204  0.00  0.00    +0.000 NA
ATOM     23  O   UNL     1       0.663  10.318  22.865  0.00  0.00    +0.000 OA
BRANCH  19  28
ATOM     24  C   UNL     1      -3.400  15.075  24.512  0.00  0.00    +0.000 C 
ATOM     25  C   UNL     1      -2.619  14.006  23.805  0.00  0.00    +0.000 A 
ATOM     26  C   UNL     1      -3.078  12.688  23.752  0.00  0.00    +0.000 A 
ATOM     27  C   UNL     1      -2.308  11.690  23.144  0.00  0.00    +0.000 A 
ATOM     28  C   UNL     1      -1.056  11.984  22.581  0.00  0.00    +0.000 A 
ATOM     29  C   UNL     1      -0.622  13.317  22.604  0.00  0.00    +0.000 A 
ATOM     30  C   UNL     1      -1.390  14.316  23.213  0.00  0.00    +0.000 A 
ENDBRANCH  19  28
ENDBRANCH   1  21
TORSDOF 4
ENDMDL
MODEL 4
REMARK VINA RESULT:      -7.9      1.495      2.091
REMARK  Name = 
REMARK  7 active torsions:
REMARK  status: ('A' for Active; 'I' for Inactive)
REMARK    1  A    between atoms: C_1  and  C_2
REMARK    2  A    between atoms: C_5  and  C_6
REMARK    3  A    between atoms: C_8  and  C_9
REMARK    4  A    between atoms: N_11  and  C_12
REMARK    5  A    between atoms: C_13  and  C_14
REMARK    6  A    between atoms: N_15  and  C_16
REMARK    7  A    between atoms: N_17  and  C_18
REMARK                            x       y       z     vdW  Elec       q    Type
REMARK                         _______ _______ _______ _____ _____    ______ ____
ROOT
ATOM      1  C   UNL     1       1.287   8.150  20.286  0.00  0.00    +0.000 C 
ATOM      2  O   UNL     1       0.826   7.921  21.403  0.00  0.00    +0.000 OA
ATOM      3  N   UNL     1       0.954   9.244  19.518  0.00  0.00    +0.000 N 
ATOM      4  H   UNL     1       1.074   9.122  18.518  0.00  0.00    +0.000 HD
ENDROOT
BRANCH   3   5
ATOM      5  C   UNL     1       0.117  10.260  19.906  0.00  0.00    +0.000 A 
ATOM      6  C   UNL     1      -1.028  10.746  19.397  0.00  0.00    +0.000 A 
ATOM      7  C   UNL     1      -1.798  10.236  18.224  0.00  0.00    +0.000 C 
ATOM      8  N   UNL     1      -1.549  11.749  20.212  0.00  0.00    +0.000 N 
ATOM      9  C   UNL     1      -2.587  12.711  19.898  0.00  0.00    +0.000 C 
ATOM     10  N   UNL     1      -0.689  11.919  21.322  0.00  0.00    +0.000 N 
ATOM     11  C   UNL     1       0.426  11.106  21.109  0.00  0.00    +0.000 A 
ATOM     12  O   UNL     1       1.489  11.048  21.716  0.00  0.00    +0.000 OA
BRANCH  10  13
ATOM     13  C   UNL     1      -0.660  13.143  22.009  0.00  0.00    +0.000 A 
ATOM     14  C   UNL     1      -1.346  13.345  23.209  0.00  0.00    +0.000 A 
ATOM     15  C   UNL     1      -1.238  14.571  23.871  0.00  0.00    +0.000 A 
ATOM     16  C   UNL     1      -0.476  15.605  23.321  0.00  0.00    +0.000 A 
ATOM     17  C   UNL     1       0.188  15.411  22.113  0.00  0.00    +0.000 A 
ATOM     18  C   UNL     1       0.105  14.177  21.463  0.00  0.00    +0.000 A 
ENDBRANCH  10  13
ENDBRANCH   3   5
BRANCH   1  21
ATOM     19  C   UNL     1       3.497   6.175  18.159  0.00  0.00    +0.000 A 
ATOM     20  C   UNL     1       2.704   7.289  18.314  0.00  0.00    +0.000 A 
ATOM     21  C   UNL     1       2.197   7.206  19.633  0.00  0.00    +0.000 A 
ATOM     22  N   UNL     1       2.669   6.114  20.256  0.00  0.00    +0.000 NA
ATOM     23  O   UNL     1       3.464   5.465  19.326  0.00  0.00    +0.000 OA
BRANCH  19  28
ATOM     24  C   UNL     1       6.590   4.060  13.744  0.00  0.00    +0.000 C 
ATOM     25  C   UNL     1       5.849   4.602  14.932  0.00  0.00    +0.000 A 
ATOM     26  C   UNL     1       5.296   3.751  15.891  0.00  0.00    +0.000 A 
ATOM     27  C   UNL     1       4.553   4.270  16.958  0.00  0.00    +0.000 A 
ATOM     28  C   UNL     1       4.339   5.651  17.087  0.00  0.00    +0.000 A 
ATOM     29  C   UNL     1       4.930   6.500  16.141  0.00  0.00    +0.000 A 
ATOM     30  C   UNL     1       5.672   5.982  15.072  0.00  0.00    +0.000 A 
ENDBRANCH  19  28
ENDBRANCH   1  21
TORSDOF 4
ENDMDL
MODEL 5
REMARK VINA RESULT:      -7.7      1.902     10.623
REMARK  Name = 
REMARK  7 active torsions:
REMARK  status: ('A' for Active; 'I' for Inactive)
REMARK    1  A    between atoms: C_1  and  C_2
REMARK    2  A    between atoms: C_5  and  C_6
REMARK    3  A    between atoms: C_8  and  C_9
REMARK    4  A    between atoms: N_11  and  C_12
REMARK    5  A    between atoms: C_13  and  C_14
REMARK    6  A    between atoms: N_15  and  C_16
REMARK    7  A    between atoms: N_17  and  C_18
REMARK                            x       y       z     vdW  Elec       q    Type
REMARK                         _______ _______ _______ _____ _____    ______ ____
ROOT
ATOM      1  C   UNL     1       1.238   9.064  18.915  0.00  0.00    +0.000 C 
ATOM      2  O   UNL     1       0.906   8.870  17.746  0.00  0.00    +0.000 OA
ATOM      3  N   UNL     1       1.988   8.184  19.664  0.00  0.00    +0.000 N 
ATOM      4  H   UNL     1       1.861   8.255  20.668  0.00  0.00    +0.000 HD
ENDROOT
BRANCH   3   5
ATOM      5  C   UNL     1       2.523   7.006  19.205  0.00  0.00    +0.000 A 
ATOM      6  C   UNL     1       2.360   5.724  19.573  0.00  0.00    +0.000 A 
ATOM      7  C   UNL     1       1.437   5.179  20.612  0.00  0.00    +0.000 C 
ATOM      8  N   UNL     1       3.074   4.872  18.734  0.00  0.00    +0.000 N 
ATOM      9  C   UNL     1       3.399   3.474  18.941  0.00  0.00    +0.000 C 
ATOM     10  N   UNL     1       3.736   5.651  17.757  0.00  0.00    +0.000 N 
ATOM     11  C   UNL     1       3.527   6.991  18.087  0.00  0.00    +0.000 A 
ATOM     12  O   UNL     1       4.035   8.008  17.627  0.00  0.00    +0.000 OA
BRANCH  10  13
ATOM     13  C   UNL     1       4.889   5.159  17.125  0.00  0.00    +0.000 A 
ATOM     14  C   UNL     1       6.146   5.182  17.736  0.00  0.00    +0.000 A 
ATOM     15  C   UNL     1       7.247   4.632  17.074  0.00  0.00    +0.000 A 
ATOM     16  C   UNL     1       7.105   4.092  15.794  0.00  0.00    +0.000 A 
ATOM     17  C   UNL     1       5.857   4.092  15.176  0.00  0.00    +0.000 A 
ATOM     18  C   UNL     1       4.748   4.615  15.846  0.00  0.00    +0.000 A 
ENDBRANCH  10  13
ENDBRANCH   3   5
BRANCH   1  21
ATOM     19  C   UNL     1      -0.251  11.604  21.068  0.00  0.00    +0.000 A 
ATOM     20  C   UNL     1      -0.128  10.275  20.732  0.00  0.00    +0.000 A 
ATOM     21  C   UNL     1       0.780  10.246  19.647  0.00  0.00    +0.000 A 
ATOM     22  N   UNL     1       1.205  11.486  19.349  0.00  0.00    +0.000 NA
ATOM     23  O   UNL     1       0.545  12.330  20.226  0.00  0.00    +0.000 OA
BRANCH  19  28
ATOM     24  C   UNL     1      -3.269  14.699  24.921  0.00  0.00    +0.000 C 
ATOM     25  C   UNL     1      -2.445  13.870  23.978  0.00  0.00    +0.000 A 
ATOM     26  C   UNL     1      -1.205  14.315  23.516  0.00  0.00    +0.000 A 
ATOM     27  C   UNL     1      -0.478  13.559  22.588  0.00  0.00    +0.000 A 
ATOM     28  C   UNL     1      -0.979  12.344  22.094  0.00  0.00    +0.000 A 
ATOM     29  C   UNL     1      -2.207  11.888  22.592  0.00  0.00    +0.000 A 
ATOM     30  C   UNL     1      -2.936  12.643  23.519  0.00  0.00    +0.000 A 
ENDBRANCH  19  28
ENDBRANCH   1  21
TORSDOF 4
ENDMDL
MODEL 6
REMARK VINA RESULT:      -7.7      1.969     10.692
REMARK  Name = 
REMARK  7 active torsions:
REMARK  status: ('A' for Active; 'I' for Inactive)
REMARK    1  A    between atoms: C_1  and  C_2
REMARK    2  A    between atoms: C_5  and  C_6
REMARK    3  A    between atoms: C_8  and  C_9
REMARK    4  A    between atoms: N_11  and  C_12
REMARK    5  A    between atoms: C_13  and  C_14
REMARK    6  A    between atoms: N_15  and  C_16
REMARK    7  A    between atoms: N_17  and  C_18
REMARK                            x       y       z     vdW  Elec       q    Type
REMARK                         _______ _______ _______ _____ _____    ______ ____
ROOT
ATOM      1  C   UNL     1       1.413   8.297  20.890  0.00  0.00    +0.000 C 
ATOM      2  O   UNL     1       2.108   7.898  21.823  0.00  0.00    +0.000 OA
ATOM      3  N   UNL     1       1.426   7.752  19.624  0.00  0.00    +0.000 N 
ATOM      4  H   UNL     1       1.136   8.380  18.882  0.00  0.00    +0.000 HD
ENDROOT
BRANCH   3   5
ATOM      5  C   UNL     1       2.160   6.659  19.239  0.00  0.00    +0.000 A 
ATOM      6  C   UNL     1       2.170   5.377  19.643  0.00  0.00    +0.000 A 
ATOM      7  C   UNL     1       1.277   4.725  20.646  0.00  0.00    +0.000 C 
ATOM      8  N   UNL     1       3.055   4.622  18.876  0.00  0.00    +0.000 N 
ATOM      9  C   UNL     1       3.573   3.296  19.151  0.00  0.00    +0.000 C 
ATOM     10  N   UNL     1       3.650   5.467  17.911  0.00  0.00    +0.000 N 
ATOM     11  C   UNL     1       3.222   6.768  18.181  0.00  0.00    +0.000 A 
ATOM     12  O   UNL     1       3.598   7.837  17.715  0.00  0.00    +0.000 OA
BRANCH  10  13
ATOM     13  C   UNL     1       4.902   5.141  17.365  0.00  0.00    +0.000 A 
ATOM     14  C   UNL     1       5.040   4.562  16.101  0.00  0.00    +0.000 A 
ATOM     15  C   UNL     1       6.317   4.306  15.593  0.00  0.00    +0.000 A 
ATOM     16  C   UNL     1       7.451   4.592  16.356  0.00  0.00    +0.000 A 
ATOM     17  C   UNL     1       7.312   5.146  17.626  0.00  0.00    +0.000 A 
ATOM     18  C   UNL     1       6.038   5.430  18.125  0.00  0.00    +0.000 A 
ENDBRANCH  10  13
ENDBRANCH   3   5
BRANCH   1  21
ATOM     19  C   UNL     1      -0.646  11.143  21.871  0.00  0.00    +0.000 A 
ATOM     20  C   UNL     1       0.183  10.111  22.245  0.00  0.00    +0.000 A 
ATOM     21  C   UNL     1       0.547   9.469  21.037  0.00  0.00    +0.000 A 
ATOM     22  N   UNL     1      -0.012  10.086  19.983  0.00  0.00    +0.000 NA
ATOM     23  O   UNL     1      -0.770  11.118  20.510  0.00  0.00    +0.000 OA
BRANCH  19  28
ATOM     24  C   UNL     1      -3.314  15.265  24.943  0.00  0.00    +0.000 C 
ATOM     25  C   UNL     1      -2.661  14.218  24.087  0.00  0.00    +0.000 A 
ATOM     26  C   UNL     1      -3.289  12.998  23.830  0.00  0.00    +0.000 A 
ATOM     27  C   UNL     1      -2.640  12.007  23.083  0.00  0.00    +0.000 A 
ATOM     28  C   UNL     1      -1.345  12.212  22.581  0.00  0.00    +0.000 A 
ATOM     29  C   UNL     1      -0.738  13.454  22.812  0.00  0.00    +0.000 A 
ATOM     30  C   UNL     1      -1.385  14.445  23.560  0.00  0.00    +0.000 A 
ENDBRANCH  19  28
ENDBRANCH   1  21
TORSDOF 4
ENDMDL
MODEL 7
REMARK VINA RESULT:      -7.7      1.692      1.860
REMARK  Name = 
REMARK  7 active torsions:
REMARK  status: ('A' for Active; 'I' for Inactive)
REMARK    1  A    between atoms: C_1  and  C_2
REMARK    2  A    between atoms: C_5  and  C_6
REMARK    3  A    between atoms: C_8  and  C_9
REMARK    4  A    between atoms: N_11  and  C_12
REMARK    5  A    between atoms: C_13  and  C_14
REMARK    6  A    between atoms: N_15  and  C_16
REMARK    7  A    between atoms: N_17  and  C_18
REMARK                            x       y       z     vdW  Elec       q    Type
REMARK                         _______ _______ _______ _____ _____    ______ ____
ROOT
ATOM      1  C   UNL     1       0.860  10.544  19.091  0.00  0.00    +0.000 C 
ATOM      2  O   UNL     1       1.240  11.672  18.780  0.00  0.00    +0.000 OA
ATOM      3  N   UNL     1      -0.212  10.287  19.917  0.00  0.00    +0.000 N 
ATOM      4  H   UNL     1      -0.182   9.394  20.397  0.00  0.00    +0.000 HD
ENDROOT
BRANCH   3   5
ATOM      5  C   UNL     1      -1.043  11.236  20.458  0.00  0.00    +0.000 A 
ATOM      6  C   UNL     1      -2.001  12.017  19.932  0.00  0.00    +0.000 A 
ATOM      7  C   UNL     1      -2.512  12.024  18.529  0.00  0.00    +0.000 C 
ATOM      8  N   UNL     1      -2.625  12.773  20.923  0.00  0.00    +0.000 N 
ATOM      9  C   UNL     1      -3.491  13.924  20.760  0.00  0.00    +0.000 C 
ATOM     10  N   UNL     1      -2.036  12.456  22.169  0.00  0.00    +0.000 N 
ATOM     11  C   UNL     1      -0.963  11.601  21.913  0.00  0.00    +0.000 A 
ATOM     12  O   UNL     1      -0.076  11.200  22.658  0.00  0.00    +0.000 OA
BRANCH  10  13
ATOM     13  C   UNL     1      -2.082  13.380  23.225  0.00  0.00    +0.000 A 
ATOM     14  C   UNL     1      -1.060  14.303  23.458  0.00  0.00    +0.000 A 
ATOM     15  C   UNL     1      -1.187  15.230  24.496  0.00  0.00    +0.000 A 
ATOM     16  C   UNL     1      -2.312  15.214  25.323  0.00  0.00    +0.000 A 
ATOM     17  C   UNL     1      -3.320  14.277  25.106  0.00  0.00    +0.000 A 
ATOM     18  C   UNL     1      -3.209  13.368  24.050  0.00  0.00    +0.000 A 
ENDBRANCH  10  13
ENDBRANCH   3   5
BRANCH   1  21
ATOM     19  C   UNL     1       2.379   7.285  18.476  0.00  0.00    +0.000 A 
ATOM     20  C   UNL     1       1.504   8.053  19.211  0.00  0.00    +0.000 A 
ATOM     21  C   UNL     1       1.589   9.352  18.654  0.00  0.00    +0.000 A 
ATOM     22  N   UNL     1       2.452   9.372  17.625  0.00  0.00    +0.000 NA
ATOM     23  O   UNL     1       2.954   8.086  17.530  0.00  0.00    +0.000 OA
BRANCH  19  28
ATOM     24  C   UNL     1       3.762   1.668  18.741  0.00  0.00    +0.000 C 
ATOM     25  C   UNL     1       3.452   3.132  18.616  0.00  0.00    +0.000 A 
ATOM     26  C   UNL     1       4.267   4.098  19.208  0.00  0.00    +0.000 A 
ATOM     27  C   UNL     1       3.929   5.455  19.136  0.00  0.00    +0.000 A 
ATOM     28  C   UNL     1       2.763   5.877  18.477  0.00  0.00    +0.000 A 
ATOM     29  C   UNL     1       1.972   4.902  17.854  0.00  0.00    +0.000 A 
ATOM     30  C   UNL     1       2.308   3.545  17.926  0.00  0.00    +0.000 A 
ENDBRANCH  19  28
ENDBRANCH   1  21
TORSDOF 4
ENDMDL
MODEL 8
REMARK VINA RESULT:      -7.7      1.478      1.924
REMARK  Name = 
REMARK  7 active torsions:
REMARK  status: ('A' for Active; 'I' for Inactive)
REMARK    1  A    between atoms: C_1  and  C_2
REMARK    2  A    between atoms: C_5  and  C_6
REMARK    3  A    between atoms: C_8  and  C_9
REMARK    4  A    between atoms: N_11  and  C_12
REMARK    5  A    between atoms: C_13  and  C_14
REMARK    6  A    between atoms: N_15  and  C_16
REMARK    7  A    between atoms: N_17  and  C_18
REMARK                            x       y       z     vdW  Elec       q    Type
REMARK                         _______ _______ _______ _____ _____    ______ ____
ROOT
ATOM      1  C   UNL     1       0.319  10.127  19.677  0.00  0.00    +0.000 C 
ATOM      2  O   UNL     1      -0.793  10.183  19.154  0.00  0.00    +0.000 OA
ATOM      3  N   UNL     1       0.868  11.133  20.442  0.00  0.00    +0.000 N 
ATOM      4  H   UNL     1       1.882  11.144  20.476  0.00  0.00    +0.000 HD
ENDROOT
BRANCH   3   5
ATOM      5  C   UNL     1       0.239  12.304  20.783  0.00  0.00    +0.000 A 
ATOM      6  C   UNL     1       0.299  13.551  20.286  0.00  0.00    +0.000 A 
ATOM      7  C   UNL     1       1.068  14.029  19.099  0.00  0.00    +0.000 C 
ATOM      8  N   UNL     1      -0.605  14.389  20.936  0.00  0.00    +0.000 N 
ATOM      9  C   UNL     1      -0.664  15.837  20.910  0.00  0.00    +0.000 C 
ATOM     10  N   UNL     1      -1.298  13.634  21.910  0.00  0.00    +0.000 N 
ATOM     11  C   UNL     1      -0.717  12.365  21.940  0.00  0.00    +0.000 A 
ATOM     12  O   UNL     1      -0.878  11.440  22.728  0.00  0.00    +0.000 OA
BRANCH  10  13
ATOM     13  C   UNL     1      -1.867  14.273  23.023  0.00  0.00    +0.000 A 
ATOM     14  C   UNL     1      -3.243  14.482  23.147  0.00  0.00    +0.000 A 
ATOM     15  C   UNL     1      -3.752  15.081  24.302  0.00  0.00    +0.000 A 
ATOM     16  C   UNL     1      -2.890  15.503  25.317  0.00  0.00    +0.000 A 
ATOM     17  C   UNL     1      -1.516  15.318  25.183  0.00  0.00    +0.000 A 
ATOM     18  C   UNL     1      -1.006  14.693  24.041  0.00  0.00    +0.000 A 
ENDBRANCH  10  13
ENDBRANCH   3   5
BRANCH   1  21
ATOM     19  C   UNL     1       2.513   7.453  18.519  0.00  0.00    +0.000 A 
ATOM     20  C   UNL     1       1.776   8.576  18.224  0.00  0.00    +0.000 A 
ATOM     21  C   UNL     1       1.205   8.983  19.454  0.00  0.00    +0.000 A 
ATOM     22  N   UNL     1       1.589   8.166  20.449  0.00  0.00    +0.000 NA
ATOM     23  O   UNL     1       2.390   7.204  19.858  0.00  0.00    +0.000 OA
BRANCH  19  28
ATOM     24  C   UNL     1       6.113   3.884  15.720  0.00  0.00    +0.000 C 
ATOM     25  C   UNL     1       5.144   4.821  16.381  0.00  0.00    +0.000 A 
ATOM     26  C   UNL     1       5.325   6.204  16.331  0.00  0.00    +0.000 A 
ATOM     27  C   UNL     1       4.448   7.062  17.006  0.00  0.00    +0.000 A 
ATOM     28  C   UNL     1       3.374   6.555  17.754  0.00  0.00    +0.000 A 
ATOM     29  C   UNL     1       3.178   5.167  17.767  0.00  0.00    +0.000 A 
ATOM     30  C   UNL     1       4.055   4.308  17.094  0.00  0.00    +0.000 A 
ENDBRANCH  19  28
ENDBRANCH   1  21
TORSDOF 4
ENDMDL
MODEL 9
REMARK VINA RESULT:      -7.7      1.957     10.736
REMARK  Name = 
REMARK  7 active torsions:
REMARK  status: ('A' for Active; 'I' for Inactive)
REMARK    1  A    between atoms: C_1  and  C_2
REMARK    2  A    between atoms: C_5  and  C_6
REMARK    3  A    between atoms: C_8  and  C_9
REMARK    4  A    between atoms: N_11  and  C_12
REMARK    5  A    between atoms: C_13  and  C_14
REMARK    6  A    between atoms: N_15  and  C_16
REMARK    7  A    between atoms: N_17  and  C_18
REMARK                            x       y       z     vdW  Elec       q    Type
REMARK                         _______ _______ _______ _____ _____    ______ ____
ROOT
ATOM      1  C   UNL     1       1.402   8.260  20.915  0.00  0.00    +0.000 C 
ATOM      2  O   UNL     1       2.051   7.811  21.858  0.00  0.00    +0.000 OA
ATOM      3  N   UNL     1       1.466   7.772  19.628  0.00  0.00    +0.000 N 
ATOM      4  H   UNL     1       1.216   8.435  18.902  0.00  0.00    +0.000 HD
ENDROOT
BRANCH   3   5
ATOM      5  C   UNL     1       2.205   6.687  19.226  0.00  0.00    +0.000 A 
ATOM      6  C   UNL     1       2.225   5.401  19.615  0.00  0.00    +0.000 A 
ATOM      7  C   UNL     1       1.340   4.731  20.614  0.00  0.00    +0.000 C 
ATOM      8  N   UNL     1       3.111   4.660  18.836  0.00  0.00    +0.000 N 
ATOM      9  C   UNL     1       3.639   3.335  19.093  0.00  0.00    +0.000 C 
ATOM     10  N   UNL     1       3.697   5.520  17.879  0.00  0.00    +0.000 N 
ATOM     11  C   UNL     1       3.262   6.815  18.166  0.00  0.00    +0.000 A 
ATOM     12  O   UNL     1       3.630   7.893  17.711  0.00  0.00    +0.000 OA
BRANCH  10  13
ATOM     13  C   UNL     1       4.949   5.208  17.323  0.00  0.00    +0.000 A 
ATOM     14  C   UNL     1       6.147   5.411  18.013  0.00  0.00    +0.000 A 
ATOM     15  C   UNL     1       7.357   5.034  17.424  0.00  0.00    +0.000 A 
ATOM     16  C   UNL     1       7.377   4.489  16.138  0.00  0.00    +0.000 A 
ATOM     17  C   UNL     1       6.185   4.310  15.442  0.00  0.00    +0.000 A 
ATOM     18  C   UNL     1       4.971   4.659  16.039  0.00  0.00    +0.000 A 
ENDBRANCH  10  13
ENDBRANCH   3   5
BRANCH   1  21
ATOM     19  C   UNL     1      -0.661  11.091  21.931  0.00  0.00    +0.000 A 
ATOM     20  C   UNL     1       0.147  10.038  22.293  0.00  0.00    +0.000 A 
ATOM     21  C   UNL     1       0.543   9.434  21.075  0.00  0.00    +0.000 A 
ATOM     22  N   UNL     1       0.023  10.094  20.027  0.00  0.00    +0.000 NA
ATOM     23  O   UNL     1      -0.741  11.115  20.566  0.00  0.00    +0.000 OA
BRANCH  19  28
ATOM     24  C   UNL     1      -3.597  15.344  24.543  0.00  0.00    +0.000 C 
ATOM     25  C   UNL     1      -2.798  14.232  23.929  0.00  0.00    +0.000 A 
ATOM     26  C   UNL     1      -1.526  14.460  23.400  0.00  0.00    +0.000 A 
ATOM     27  C   UNL     1      -0.819  13.426  22.773  0.00  0.00    +0.000 A 
ATOM     28  C   UNL     1      -1.372  12.141  22.655  0.00  0.00    +0.000 A 
ATOM     29  C   UNL     1      -2.633  11.912  23.223  0.00  0.00    +0.000 A 
ATOM     30  C   UNL     1      -3.342  12.946  23.848  0.00  0.00    +0.000 A 
ENDBRANCH  19  28
ENDBRANCH   1  21
TORSDOF 4
ENDMDL
