MODEL 1
REMARK VINA RESULT:      -7.5      0.000      0.000
REMARK  Name = 
REMARK  4 active torsions:
REMARK  status: ('A' for Active; 'I' for Inactive)
REMARK    1  A    between atoms: C_1  and  C_2
REMARK    2  A    between atoms: N_7  and  C_8
REMARK    3  A    between atoms: C_8  and  C_9
REMARK    4  A    between atoms: C_9  and  N_10
REMARK                            x       y       z     vdW  Elec       q    Type
REMARK                         _______ _______ _______ _____ _____    ______ ____
ROOT
ATOM      1  C   UNL     1       1.732   8.823  17.646  0.00  0.00    +0.000 C 
ENDROOT
BRANCH   1   8
ATOM      2  C   UNL     1      -3.538  13.092  20.618  0.00  0.00    +0.000 C 
ATOM      3  C   UNL     1      -2.172  12.502  20.521  0.00  0.00    +0.000 A 
ATOM      4  C   UNL     1      -1.134  12.741  21.400  0.00  0.00    +0.000 A 
ATOM      5  S   UNL     1       0.286  11.879  20.996  0.00  0.00    +0.000 S 
ATOM      6  C   UNL     1      -0.443  11.180  19.600  0.00  0.00    +0.000 A 
ATOM      7  C   UNL     1       0.090  10.302  18.643  0.00  0.00    +0.000 A 
ATOM      8  N   UNL     1       1.397   9.816  18.665  0.00  0.00    +0.000 N 
ATOM      9  N   UNL     1      -0.728   9.923  17.633  0.00  0.00    +0.000 NA
ATOM     10  C   UNL     1      -1.981  10.386  17.592  0.00  0.00    +0.000 A 
ATOM     11  N   UNL     1      -2.569  11.205  18.462  0.00  0.00    +0.000 NA
ATOM     12  C   UNL     1      -1.766  11.605  19.476  0.00  0.00    +0.000 A 
ATOM     13  H   UNL     1       1.858   9.806  19.566  0.00  0.00    +0.000 HD
ENDBRANCH   1   8
BRANCH   1  14
ATOM     14  C   UNL     1       3.038   8.071  17.943  0.00  0.00    +0.000 C 
BRANCH  14  15
ATOM     15  N   UNL     1       2.836   6.658  18.293  0.00  0.00    +0.000 N 
ATOM     16  C   UNL     1       3.526   5.625  17.527  0.00  0.00    +0.000 C 
ATOM     17  C   UNL     1       2.699   4.340  17.492  0.00  0.00    +0.000 C 
ATOM     18  C   UNL     1       2.367   3.914  18.895  0.00  0.00    +0.000 A 
ATOM     19  C   UNL     1       2.161   2.564  19.209  0.00  0.00    +0.000 A 
ATOM     20  C   UNL     1       1.840   2.188  20.515  0.00  0.00    +0.000 A 
ATOM     21  C   UNL     1       1.715   3.155  21.512  0.00  0.00    +0.000 A 
ATOM     22  C   UNL     1       1.893   4.505  21.203  0.00  0.00    +0.000 A 
ATOM     23  C   UNL     1       2.210   4.889  19.894  0.00  0.00    +0.000 A 
ATOM     24  C   UNL     1       2.339   6.342  19.561  0.00  0.00    +0.000 C 
ATOM     25  O   UNL     1       1.997   7.190  20.379  0.00  0.00    +0.000 OA
ENDBRANCH  14  15
ENDBRANCH   1  14
TORSDOF 3
ENDMDL
MODEL 2
REMARK VINA RESULT:      -7.5      6.276      8.022
REMARK  Name = 
REMARK  4 active torsions:
REMARK  status: ('A' for Active; 'I' for Inactive)
REMARK    1  A    between atoms: C_1  and  C_2
REMARK    2  A    between atoms: N_7  and  C_8
REMARK    3  A    between atoms: C_8  and  C_9
REMARK    4  A    between atoms: C_9  and  N_10
REMARK                            x       y       z     vdW  Elec       q    Type
REMARK                         _______ _______ _______ _____ _____    ______ ____
ROOT
ATOM      1  C   UNL     1       7.873   8.841  17.870  0.00  0.00    +0.000 C 
ENDROOT
BRANCH   1   8
ATOM      2  C   UNL     1      10.694  15.571  19.127  0.00  0.00    +0.000 C 
ATOM      3  C   UNL     1      10.645  14.084  19.237  0.00  0.00    +0.000 A 
ATOM      4  C   UNL     1      11.533  13.305  19.952  0.00  0.00    +0.000 A 
ATOM      5  S   UNL     1      11.160  11.639  19.875  0.00  0.00    +0.000 S 
ATOM      6  C   UNL     1       9.806  11.910  18.845  0.00  0.00    +0.000 A 
ATOM      7  C   UNL     1       8.906  10.997  18.272  0.00  0.00    +0.000 A 
ATOM      8  N   UNL     1       8.966   9.615  18.455  0.00  0.00    +0.000 N 
ATOM      9  N   UNL     1       7.931  11.507  17.484  0.00  0.00    +0.000 NA
ATOM     10  C   UNL     1       7.864  12.828  17.292  0.00  0.00    +0.000 A 
ATOM     11  N   UNL     1       8.663  13.761  17.806  0.00  0.00    +0.000 NA
ATOM     12  C   UNL     1       9.652  13.273  18.590  0.00  0.00    +0.000 A 
ATOM     13  H   UNL     1       9.437   9.292  19.290  0.00  0.00    +0.000 HD
ENDBRANCH   1   8
BRANCH   1  14
ATOM     14  C   UNL     1       7.957   7.341  18.192  0.00  0.00    +0.000 C 
BRANCH  14  15
ATOM     15  N   UNL     1       6.677   6.635  18.037  0.00  0.00    +0.000 N 
ATOM     16  C   UNL     1       5.955   6.730  16.773  0.00  0.00    +0.000 C 
ATOM     17  C   UNL     1       4.448   6.620  17.004  0.00  0.00    +0.000 C 
ATOM     18  C   UNL     1       4.145   5.358  17.765  0.00  0.00    +0.000 A 
ATOM     19  C   UNL     1       2.914   4.706  17.619  0.00  0.00    +0.000 A 
ATOM     20  C   UNL     1       2.646   3.543  18.344  0.00  0.00    +0.000 A 
ATOM     21  C   UNL     1       3.598   3.029  19.223  0.00  0.00    +0.000 A 
ATOM     22  C   UNL     1       4.818   3.687  19.394  0.00  0.00    +0.000 A 
ATOM     23  C   UNL     1       5.091   4.856  18.675  0.00  0.00    +0.000 A 
ATOM     24  C   UNL     1       6.376   5.586  18.911  0.00  0.00    +0.000 C 
ATOM     25  O   UNL     1       7.099   5.263  19.848  0.00  0.00    +0.000 OA
ENDBRANCH  14  15
ENDBRANCH   1  14
TORSDOF 3
ENDMDL
MODEL 3
REMARK VINA RESULT:      -7.5      2.837      8.531
REMARK  Name = 
REMARK  4 active torsions:
REMARK  status: ('A' for Active; 'I' for Inactive)
REMARK    1  A    between atoms: C_1  and  C_2
REMARK    2  A    between atoms: N_7  and  C_8
REMARK    3  A    between atoms: C_8  and  C_9
REMARK    4  A    between atoms: C_9  and  N_10
REMARK                            x       y       z     vdW  Elec       q    Type
REMARK                         _______ _______ _______ _____ _____    ______ ____
ROOT
ATOM      1  C   UNL     1       1.090   7.586  21.049  0.00  0.00    +0.000 C 
ENDROOT
BRANCH   1   8
ATOM      2  C   UNL     1       3.873   1.414  18.054  0.00  0.00    +0.000 C 
ATOM      3  C   UNL     1       3.855   2.869  18.377  0.00  0.00    +0.000 A 
ATOM      4  C   UNL     1       4.799   3.791  17.969  0.00  0.00    +0.000 A 
ATOM      5  S   UNL     1       4.449   5.376  18.504  0.00  0.00    +0.000 S 
ATOM      6  C   UNL     1       3.029   4.865  19.335  0.00  0.00    +0.000 A 
ATOM      7  C   UNL     1       2.110   5.604  20.097  0.00  0.00    +0.000 A 
ATOM      8  N   UNL     1       2.204   6.977  20.326  0.00  0.00    +0.000 N 
ATOM      9  N   UNL     1       1.079   4.922  20.648  0.00  0.00    +0.000 NA
ATOM     10  C   UNL     1       0.979   3.605  20.445  0.00  0.00    +0.000 A 
ATOM     11  N   UNL     1       1.793   2.833  19.728  0.00  0.00    +0.000 NA
ATOM     12  C   UNL     1       2.837   3.493  19.175  0.00  0.00    +0.000 A 
ATOM     13  H   UNL     1       2.732   7.512  19.648  0.00  0.00    +0.000 HD
ENDBRANCH   1   8
BRANCH   1  14
ATOM     14  C   UNL     1       1.437   8.959  21.645  0.00  0.00    +0.000 C 
BRANCH  14  15
ATOM     15  N   UNL     1       0.397   9.976  21.422  0.00  0.00    +0.000 N 
ATOM     16  C   UNL     1      -0.162  10.146  20.085  0.00  0.00    +0.000 C 
ATOM     17  C   UNL     1      -0.595  11.594  19.863  0.00  0.00    +0.000 C 
ATOM     18  C   UNL     1      -1.538  12.013  20.957  0.00  0.00    +0.000 A 
ATOM     19  C   UNL     1      -2.513  12.995  20.733  0.00  0.00    +0.000 A 
ATOM     20  C   UNL     1      -3.371  13.379  21.765  0.00  0.00    +0.000 A 
ATOM     21  C   UNL     1      -3.259  12.794  23.026  0.00  0.00    +0.000 A 
ATOM     22  C   UNL     1      -2.274  11.834  23.265  0.00  0.00    +0.000 A 
ATOM     23  C   UNL     1      -1.406  11.448  22.237  0.00  0.00    +0.000 A 
ATOM     24  C   UNL     1      -0.316  10.463  22.521  0.00  0.00    +0.000 C 
ATOM     25  O   UNL     1      -0.075  10.134  23.678  0.00  0.00    +0.000 OA
ENDBRANCH  14  15
ENDBRANCH   1  14
TORSDOF 3
ENDMDL
MODEL 4
REMARK VINA RESULT:      -7.3      2.058      2.365
REMARK  Name = 
REMARK  4 active torsions:
REMARK  status: ('A' for Active; 'I' for Inactive)
REMARK    1  A    between atoms: C_1  and  C_2
REMARK    2  A    between atoms: N_7  and  C_8
REMARK    3  A    between atoms: C_8  and  C_9
REMARK    4  A    between atoms: C_9  and  N_10
REMARK                            x       y       z     vdW  Elec       q    Type
REMARK                         _______ _______ _______ _____ _____    ______ ____
ROOT
ATOM      1  C   UNL     1       1.583   8.840  17.690  0.00  0.00    +0.000 C 
ENDROOT
BRANCH   1   8
ATOM      2  C   UNL     1       0.972  14.854  21.966  0.00  0.00    +0.000 C 
ATOM      3  C   UNL     1       1.299  14.114  20.713  0.00  0.00    +0.000 A 
ATOM      4  C   UNL     1       1.816  14.679  19.563  0.00  0.00    +0.000 A 
ATOM      5  S   UNL     1       2.090  13.529  18.329  0.00  0.00    +0.000 S 
ATOM      6  C   UNL     1       1.489  12.235  19.294  0.00  0.00    +0.000 A 
ATOM      7  C   UNL     1       1.348  10.871  18.994  0.00  0.00    +0.000 A 
ATOM      8  N   UNL     1       1.697  10.295  17.771  0.00  0.00    +0.000 N 
ATOM      9  N   UNL     1       0.827  10.079  19.960  0.00  0.00    +0.000 NA
ATOM     10  C   UNL     1       0.480  10.615  21.134  0.00  0.00    +0.000 A 
ATOM     11  N   UNL     1       0.593  11.889  21.506  0.00  0.00    +0.000 NA
ATOM     12  C   UNL     1       1.103  12.701  20.551  0.00  0.00    +0.000 A 
ATOM     13  H   UNL     1       2.388  10.789  17.222  0.00  0.00    +0.000 HD
ENDBRANCH   1   8
BRANCH   1  14
ATOM     14  C   UNL     1       2.872   8.111  18.098  0.00  0.00    +0.000 C 
BRANCH  14  15
ATOM     15  N   UNL     1       2.668   6.689  18.413  0.00  0.00    +0.000 N 
ATOM     16  C   UNL     1       3.252   5.673  17.543  0.00  0.00    +0.000 C 
ATOM     17  C   UNL     1       2.392   4.410  17.540  0.00  0.00    +0.000 C 
ATOM     18  C   UNL     1       2.189   3.934  18.952  0.00  0.00    +0.000 A 
ATOM     19  C   UNL     1       1.979   2.577  19.234  0.00  0.00    +0.000 A 
ATOM     20  C   UNL     1       1.780   2.156  20.550  0.00  0.00    +0.000 A 
ATOM     21  C   UNL     1       1.780   3.084  21.591  0.00  0.00    +0.000 A 
ATOM     22  C   UNL     1       1.962   4.441  21.317  0.00  0.00    +0.000 A 
ATOM     23  C   UNL     1       2.157   4.871  19.999  0.00  0.00    +0.000 A 
ATOM     24  C   UNL     1       2.291   6.333  19.711  0.00  0.00    +0.000 C 
ATOM     25  O   UNL     1       2.055   7.154  20.591  0.00  0.00    +0.000 OA
ENDBRANCH  14  15
ENDBRANCH   1  14
TORSDOF 3
ENDMDL
MODEL 5
REMARK VINA RESULT:      -7.3      6.402      8.236
REMARK  Name = 
REMARK  4 active torsions:
REMARK  status: ('A' for Active; 'I' for Inactive)
REMARK    1  A    between atoms: C_1  and  C_2
REMARK    2  A    between atoms: N_7  and  C_8
REMARK    3  A    between atoms: C_8  and  C_9
REMARK    4  A    between atoms: C_9  and  N_10
REMARK                            x       y       z     vdW  Elec       q    Type
REMARK                         _______ _______ _______ _____ _____    ______ ____
ROOT
ATOM      1  C   UNL     1       8.330   8.694  18.034  0.00  0.00    +0.000 C 
ENDROOT
BRANCH   1   8
ATOM      2  C   UNL     1      11.190  15.062  20.503  0.00  0.00    +0.000 C 
ATOM      3  C   UNL     1      10.417  13.792  20.621  0.00  0.00    +0.000 A 
ATOM      4  C   UNL     1       9.751  13.363  21.753  0.00  0.00    +0.000 A 
ATOM      5  S   UNL     1       8.950  11.871  21.523  0.00  0.00    +0.000 S 
ATOM      6  C   UNL     1       9.503  11.737  19.897  0.00  0.00    +0.000 A 
ATOM      7  C   UNL     1       9.287  10.726  18.947  0.00  0.00    +0.000 A 
ATOM      8  N   UNL     1       8.534   9.575  19.183  0.00  0.00    +0.000 N 
ATOM      9  N   UNL     1       9.865  10.888  17.734  0.00  0.00    +0.000 NA
ATOM     10  C   UNL     1      10.597  11.980  17.495  0.00  0.00    +0.000 A 
ATOM     11  N   UNL     1      10.839  12.989  18.328  0.00  0.00    +0.000 NA
ATOM     12  C   UNL     1      10.278  12.844  19.552  0.00  0.00    +0.000 A 
ATOM     13  H   UNL     1       7.841   9.633  19.917  0.00  0.00    +0.000 HD
ENDBRANCH   1   8
BRANCH   1  14
ATOM     14  C   UNL     1       8.239   7.210  18.422  0.00  0.00    +0.000 C 
BRANCH  14  15
ATOM     15  N   UNL     1       6.901   6.632  18.223  0.00  0.00    +0.000 N 
ATOM     16  C   UNL     1       6.196   6.874  16.969  0.00  0.00    +0.000 C 
ATOM     17  C   UNL     1       4.685   6.883  17.195  0.00  0.00    +0.000 C 
ATOM     18  C   UNL     1       4.268   5.607  17.872  0.00  0.00    +0.000 A 
ATOM     19  C   UNL     1       2.984   5.078  17.686  0.00  0.00    +0.000 A 
ATOM     20  C   UNL     1       2.610   3.899  18.333  0.00  0.00    +0.000 A 
ATOM     21  C   UNL     1       3.510   3.245  19.175  0.00  0.00    +0.000 A 
ATOM     22  C   UNL     1       4.782   3.779  19.387  0.00  0.00    +0.000 A 
ATOM     23  C   UNL     1       5.161   4.964  18.746  0.00  0.00    +0.000 A 
ATOM     24  C   UNL     1       6.505   5.559  19.027  0.00  0.00    +0.000 C 
ATOM     25  O   UNL     1       7.192   5.113  19.940  0.00  0.00    +0.000 OA
ENDBRANCH  14  15
ENDBRANCH   1  14
TORSDOF 3
ENDMDL
MODEL 6
REMARK VINA RESULT:      -7.3      2.735      8.471
REMARK  Name = 
REMARK  4 active torsions:
REMARK  status: ('A' for Active; 'I' for Inactive)
REMARK    1  A    between atoms: C_1  and  C_2
REMARK    2  A    between atoms: N_7  and  C_8
REMARK    3  A    between atoms: C_8  and  C_9
REMARK    4  A    between atoms: C_9  and  N_10
REMARK                            x       y       z     vdW  Elec       q    Type
REMARK                         _______ _______ _______ _____ _____    ______ ____
ROOT
ATOM      1  C   UNL     1       1.717   8.273  20.596  0.00  0.00    +0.000 C 
ENDROOT
BRANCH   1   8
ATOM      2  C   UNL     1       3.608   1.541  18.162  0.00  0.00    +0.000 C 
ATOM      3  C   UNL     1       2.979   2.509  19.106  0.00  0.00    +0.000 A 
ATOM      4  C   UNL     1       2.332   2.176  20.280  0.00  0.00    +0.000 A 
ATOM      5  S   UNL     1       1.751   3.544  21.125  0.00  0.00    +0.000 S 
ATOM      6  C   UNL     1       2.323   4.630  19.916  0.00  0.00    +0.000 A 
ATOM      7  C   UNL     1       2.231   6.028  19.838  0.00  0.00    +0.000 A 
ATOM      8  N   UNL     1       1.612   6.829  20.798  0.00  0.00    +0.000 N 
ATOM      9  N   UNL     1       2.772   6.620  18.748  0.00  0.00    +0.000 NA
ATOM     10  C   UNL     1       3.361   5.867  17.814  0.00  0.00    +0.000 A 
ATOM     11  N   UNL     1       3.506   4.544  17.817  0.00  0.00    +0.000 NA
ATOM     12  C   UNL     1       2.964   3.929  18.894  0.00  0.00    +0.000 A 
ATOM     13  H   UNL     1       1.544   6.443  21.731  0.00  0.00    +0.000 HD
ENDBRANCH   1   8
BRANCH   1  14
ATOM     14  C   UNL     1       1.266   9.087  21.818  0.00  0.00    +0.000 C 
BRANCH  14  15
ATOM     15  N   UNL     1       0.233  10.087  21.509  0.00  0.00    +0.000 N 
ATOM     16  C   UNL     1      -0.279  10.189  20.146  0.00  0.00    +0.000 C 
ATOM     17  C   UNL     1      -0.707  11.624  19.838  0.00  0.00    +0.000 C 
ATOM     18  C   UNL     1      -1.689  12.092  20.876  0.00  0.00    +0.000 A 
ATOM     19  C   UNL     1      -2.657  13.058  20.570  0.00  0.00    +0.000 A 
ATOM     20  C   UNL     1      -3.552  13.489  21.551  0.00  0.00    +0.000 A 
ATOM     21  C   UNL     1      -3.483  12.968  22.842  0.00  0.00    +0.000 A 
ATOM     22  C   UNL     1      -2.505  12.024  23.163  0.00  0.00    +0.000 A 
ATOM     23  C   UNL     1      -1.601  11.591  22.187  0.00  0.00    +0.000 A 
ATOM     24  C   UNL     1      -0.520  10.626  22.557  0.00  0.00    +0.000 C 
ATOM     25  O   UNL     1      -0.319  10.355  23.736  0.00  0.00    +0.000 OA
ENDBRANCH  14  15
ENDBRANCH   1  14
TORSDOF 3
ENDMDL
MODEL 7
REMARK VINA RESULT:      -7.2      0.994      1.058
REMARK  Name = 
REMARK  4 active torsions:
REMARK  status: ('A' for Active; 'I' for Inactive)
REMARK    1  A    between atoms: C_1  and  C_2
REMARK    2  A    between atoms: N_7  and  C_8
REMARK    3  A    between atoms: C_8  and  C_9
REMARK    4  A    between atoms: C_9  and  N_10
REMARK                            x       y       z     vdW  Elec       q    Type
REMARK                         _______ _______ _______ _____ _____    ______ ____
ROOT
ATOM      1  C   UNL     1       1.439   9.057  18.091  0.00  0.00    +0.000 C 
ENDROOT
BRANCH   1   8
ATOM      2  C   UNL     1      -3.154  13.237  22.124  0.00  0.00    +0.000 C 
ATOM      3  C   UNL     1      -2.073  12.230  21.916  0.00  0.00    +0.000 A 
ATOM      4  C   UNL     1      -1.421  11.540  22.919  0.00  0.00    +0.000 A 
ATOM      5  S   UNL     1      -0.253  10.447  22.317  0.00  0.00    +0.000 S 
ATOM      6  C   UNL     1      -0.565  10.893  20.683  0.00  0.00    +0.000 A 
ATOM      7  C   UNL     1       0.023  10.440  19.491  0.00  0.00    +0.000 A 
ATOM      8  N   UNL     1       1.035   9.481  19.430  0.00  0.00    +0.000 N 
ATOM      9  N   UNL     1      -0.425  10.987  18.337  0.00  0.00    +0.000 NA
ATOM     10  C   UNL     1      -1.388  11.913  18.378  0.00  0.00    +0.000 A 
ATOM     11  N   UNL     1      -2.008  12.387  19.457  0.00  0.00    +0.000 NA
ATOM     12  C   UNL     1      -1.570  11.860  20.624  0.00  0.00    +0.000 A 
ATOM     13  H   UNL     1       1.100   8.845  20.214  0.00  0.00    +0.000 HD
ENDBRANCH   1   8
BRANCH   1  14
ATOM     14  C   UNL     1       2.719   8.207  18.089  0.00  0.00    +0.000 C 
BRANCH  14  15
ATOM     15  N   UNL     1       2.486   6.793  18.418  0.00  0.00    +0.000 N 
ATOM     16  C   UNL     1       2.891   5.761  17.469  0.00  0.00    +0.000 C 
ATOM     17  C   UNL     1       1.975   4.543  17.576  0.00  0.00    +0.000 C 
ATOM     18  C   UNL     1       1.941   4.059  18.999  0.00  0.00    +0.000 A 
ATOM     19  C   UNL     1       1.701   2.710  19.296  0.00  0.00    +0.000 A 
ATOM     20  C   UNL     1       1.662   2.282  20.624  0.00  0.00    +0.000 A 
ATOM     21  C   UNL     1       1.852   3.194  21.662  0.00  0.00    +0.000 A 
ATOM     22  C   UNL     1       2.066   4.543  21.376  0.00  0.00    +0.000 A 
ATOM     23  C   UNL     1       2.102   4.981  20.047  0.00  0.00    +0.000 A 
ATOM     24  C   UNL     1       2.271   6.438  19.753  0.00  0.00    +0.000 C 
ATOM     25  O   UNL     1       2.200   7.258  20.663  0.00  0.00    +0.000 OA
ENDBRANCH  14  15
ENDBRANCH   1  14
TORSDOF 3
ENDMDL
MODEL 8
REMARK VINA RESULT:      -7.2      1.166      1.343
REMARK  Name = 
REMARK  4 active torsions:
REMARK  status: ('A' for Active; 'I' for Inactive)
REMARK    1  A    between atoms: C_1  and  C_2
REMARK    2  A    between atoms: N_7  and  C_8
REMARK    3  A    between atoms: C_8  and  C_9
REMARK    4  A    between atoms: C_9  and  N_10
REMARK                            x       y       z     vdW  Elec       q    Type
REMARK                         _______ _______ _______ _____ _____    ______ ____
ROOT
ATOM      1  C   UNL     1       1.051   9.245  17.831  0.00  0.00    +0.000 C 
ENDROOT
BRANCH   1   8
ATOM      2  C   UNL     1      -5.467  12.548  19.027  0.00  0.00    +0.000 C 
ATOM      3  C   UNL     1      -4.029  12.258  19.297  0.00  0.00    +0.000 A 
ATOM      4  C   UNL     1      -3.285  12.797  20.329  0.00  0.00    +0.000 A 
ATOM      5  S   UNL     1      -1.675  12.225  20.350  0.00  0.00    +0.000 S 
ATOM      6  C   UNL     1      -1.918  11.256  18.946  0.00  0.00    +0.000 A 
ATOM      7  C   UNL     1      -1.024  10.426  18.252  0.00  0.00    +0.000 A 
ATOM      8  N   UNL     1       0.311  10.236  18.611  0.00  0.00    +0.000 N 
ATOM      9  N   UNL     1      -1.501   9.786  17.159  0.00  0.00    +0.000 NA
ATOM     10  C   UNL     1      -2.775   9.964  16.796  0.00  0.00    +0.000 A 
ATOM     11  N   UNL     1      -3.690  10.717  17.403  0.00  0.00    +0.000 NA
ATOM     12  C   UNL     1      -3.233  11.374  18.494  0.00  0.00    +0.000 A 
ATOM     13  H   UNL     1       0.546  10.410  19.579  0.00  0.00    +0.000 HD
ENDBRANCH   1   8
BRANCH   1  14
ATOM     14  C   UNL     1       2.377   8.830  18.489  0.00  0.00    +0.000 C 
BRANCH  14  15
ATOM     15  N   UNL     1       2.513   7.376  18.667  0.00  0.00    +0.000 N 
ATOM     16  C   UNL     1       3.448   6.637  17.826  0.00  0.00    +0.000 C 
ATOM     17  C   UNL     1       2.957   5.207  17.605  0.00  0.00    +0.000 C 
ATOM     18  C   UNL     1       2.706   4.547  18.933  0.00  0.00    +0.000 A 
ATOM     19  C   UNL     1       2.824   3.159  19.083  0.00  0.00    +0.000 A 
ATOM     20  C   UNL     1       2.574   2.564  20.320  0.00  0.00    +0.000 A 
ATOM     21  C   UNL     1       2.198   3.345  21.412  0.00  0.00    +0.000 A 
ATOM     22  C   UNL     1       2.053   4.726  21.265  0.00  0.00    +0.000 A 
ATOM     23  C   UNL     1       2.296   5.329  20.026  0.00  0.00    +0.000 A 
ATOM     24  C   UNL     1       2.078   6.801  19.865  0.00  0.00    +0.000 C 
ATOM     25  O   UNL     1       1.525   7.438  20.755  0.00  0.00    +0.000 OA
ENDBRANCH  14  15
ENDBRANCH   1  14
TORSDOF 3
ENDMDL
MODEL 9
REMARK VINA RESULT:      -7.1      2.487      4.405
REMARK  Name = 
REMARK  4 active torsions:
REMARK  status: ('A' for Active; 'I' for Inactive)
REMARK    1  A    between atoms: C_1  and  C_2
REMARK    2  A    between atoms: N_7  and  C_8
REMARK    3  A    between atoms: C_8  and  C_9
REMARK    4  A    between atoms: C_9  and  N_10
REMARK                            x       y       z     vdW  Elec       q    Type
REMARK                         _______ _______ _______ _____ _____    ______ ____
ROOT
ATOM      1  C   UNL     1       1.924   5.276  20.287  0.00  0.00    +0.000 C 
ENDROOT
BRANCH   1   8
ATOM      2  C   UNL     1       0.873  12.500  19.047  0.00  0.00    +0.000 C 
ATOM      3  C   UNL     1       0.937  11.268  19.885  0.00  0.00    +0.000 A 
ATOM      4  C   UNL     1       0.665  11.207  21.238  0.00  0.00    +0.000 A 
ATOM      5  S   UNL     1       0.816   9.626  21.870  0.00  0.00    +0.000 S 
ATOM      6  C   UNL     1       1.288   8.977  20.346  0.00  0.00    +0.000 A 
ATOM      7  C   UNL     1       1.631   7.664  19.987  0.00  0.00    +0.000 A 
ATOM      8  N   UNL     1       1.651   6.587  20.873  0.00  0.00    +0.000 N 
ATOM      9  N   UNL     1       1.975   7.450  18.695  0.00  0.00    +0.000 NA
ATOM     10  C   UNL     1       1.969   8.472  17.834  0.00  0.00    +0.000 A 
ATOM     11  N   UNL     1       1.644   9.738  18.086  0.00  0.00    +0.000 NA
ATOM     12  C   UNL     1       1.306   9.978  19.374  0.00  0.00    +0.000 A 
ATOM     13  H   UNL     1       1.070   6.672  21.698  0.00  0.00    +0.000 HD
ENDBRANCH   1   8
BRANCH   1  14
ATOM     14  C   UNL     1       3.416   4.912  20.298  0.00  0.00    +0.000 C 
BRANCH  14  15
ATOM     15  N   UNL     1       3.971   4.670  18.957  0.00  0.00    +0.000 N 
ATOM     16  C   UNL     1       3.064   4.430  17.840  0.00  0.00    +0.000 C 
ATOM     17  C   UNL     1       3.718   3.516  16.804  0.00  0.00    +0.000 C 
ATOM     18  C   UNL     1       5.038   4.096  16.380  0.00  0.00    +0.000 A 
ATOM     19  C   UNL     1       5.561   3.843  15.104  0.00  0.00    +0.000 A 
ATOM     20  C   UNL     1       6.795   4.380  14.733  0.00  0.00    +0.000 A 
ATOM     21  C   UNL     1       7.518   5.165  15.632  0.00  0.00    +0.000 A 
ATOM     22  C   UNL     1       7.017   5.400  16.913  0.00  0.00    +0.000 A 
ATOM     23  C   UNL     1       5.783   4.860  17.294  0.00  0.00    +0.000 A 
ATOM     24  C   UNL     1       5.285   5.069  18.689  0.00  0.00    +0.000 C 
ATOM     25  O   UNL     1       6.026   5.552  19.538  0.00  0.00    +0.000 OA
ENDBRANCH  14  15
ENDBRANCH   1  14
TORSDOF 3
ENDMDL
