MODEL 1
REMARK VINA RESULT:      -7.6      0.000      0.000
REMARK  Name = 
REMARK  4 active torsions:
REMARK  status: ('A' for Active; 'I' for Inactive)
REMARK    1  A    between atoms: C_1  and  C_2
REMARK    2  A    between atoms: C_2  and  N_3
REMARK    3  A    between atoms: C_4  and  C_5
REMARK    4  A    between atoms: C_14  and  O_15
REMARK                            x       y       z     vdW  Elec       q    Type
REMARK                         _______ _______ _______ _____ _____    ______ ____
ROOT
ATOM      1  N   UNL     1       4.790   4.338  17.403  0.00  0.00    +0.000 N 
ATOM      2  C   UNL     1       5.201   5.381  18.212  0.00  0.00    +0.000 A 
ATOM      3  N   UNL     1       4.399   5.495  19.259  0.00  0.00    +0.000 NA
ATOM      4  C   UNL     1       3.401   4.570  19.077  0.00  0.00    +0.000 A 
ATOM      5  C   UNL     1       2.276   4.308  19.876  0.00  0.00    +0.000 A 
ATOM      6  C   UNL     1       1.398   3.302  19.464  0.00  0.00    +0.000 A 
ATOM      7  C   UNL     1       1.620   2.572  18.300  0.00  0.00    +0.000 A 
ATOM      8  C   UNL     1       2.737   2.822  17.497  0.00  0.00    +0.000 A 
ATOM      9  C   UNL     1       3.611   3.835  17.916  0.00  0.00    +0.000 A 
ENDROOT
BRANCH   2  10
ATOM     10  C   UNL     1       6.371   6.293  17.989  0.00  0.00    +0.000 A 
ATOM     11  N   UNL     1       6.435   7.191  17.000  0.00  0.00    +0.000 NA
ATOM     12  O   UNL     1       7.651   7.840  17.181  0.00  0.00    +0.000 OA
ATOM     13  N   UNL     1       8.349   7.316  18.260  0.00  0.00    +0.000 NA
ATOM     14  C   UNL     1       7.560   6.367  18.760  0.00  0.00    +0.000 A 
ATOM     15  N   UNL     1       7.872   5.596  19.818  0.00  0.00    +0.000 N 
ATOM     16  H   UNL     1       8.828   5.571  20.153  0.00  0.00    +0.000 HD
ATOM     17  H   UNL     1       7.309   4.771  20.026  0.00  0.00    +0.000 HD
ENDBRANCH   2  10
BRANCH   1  19
ATOM     18  C   UNL     1       5.281   4.507  14.970  0.00  0.00    +0.000 C 
ATOM     19  C   UNL     1       5.504   3.764  16.278  0.00  0.00    +0.000 C 
ENDBRANCH   1  19
BRANCH   6  20
ATOM     20  O   UNL     1       0.285   2.996  20.194  0.00  0.00    +0.000 OA
ATOM     21  H   UNL     1       0.483   3.130  21.135  0.00  0.00    +0.000 HD
ENDBRANCH   6  20
TORSDOF 3
ENDMDL
MODEL 2
REMARK VINA RESULT:      -7.4      1.834      2.804
REMARK  Name = 
REMARK  4 active torsions:
REMARK  status: ('A' for Active; 'I' for Inactive)
REMARK    1  A    between atoms: C_1  and  C_2
REMARK    2  A    between atoms: C_2  and  N_3
REMARK    3  A    between atoms: C_4  and  C_5
REMARK    4  A    between atoms: C_14  and  O_15
REMARK                            x       y       z     vdW  Elec       q    Type
REMARK                         _______ _______ _______ _____ _____    ______ ____
ROOT
ATOM      1  N   UNL     1       3.594   5.373  18.278  0.00  0.00    +0.000 N 
ATOM      2  C   UNL     1       4.837   4.790  18.117  0.00  0.00    +0.000 A 
ATOM      3  N   UNL     1       4.948   3.721  18.891  0.00  0.00    +0.000 NA
ATOM      4  C   UNL     1       3.794   3.665  19.631  0.00  0.00    +0.000 A 
ATOM      5  C   UNL     1       3.422   2.751  20.630  0.00  0.00    +0.000 A 
ATOM      6  C   UNL     1       2.176   2.915  21.240  0.00  0.00    +0.000 A 
ATOM      7  C   UNL     1       1.317   3.948  20.878  0.00  0.00    +0.000 A 
ATOM      8  C   UNL     1       1.673   4.864  19.882  0.00  0.00    +0.000 A 
ATOM      9  C   UNL     1       2.926   4.693  19.277  0.00  0.00    +0.000 A 
ENDROOT
BRANCH   2  10
ATOM     10  C   UNL     1       5.946   5.255  17.219  0.00  0.00    +0.000 A 
ATOM     11  N   UNL     1       6.559   6.436  17.347  0.00  0.00    +0.000 NA
ATOM     12  O   UNL     1       7.533   6.445  16.355  0.00  0.00    +0.000 OA
ATOM     13  N   UNL     1       7.493   5.285  15.596  0.00  0.00    +0.000 NA
ATOM     14  C   UNL     1       6.520   4.550  16.130  0.00  0.00    +0.000 A 
ATOM     15  N   UNL     1       6.141   3.340  15.675  0.00  0.00    +0.000 N 
ATOM     16  H   UNL     1       6.454   3.029  14.764  0.00  0.00    +0.000 HD
ATOM     17  H   UNL     1       5.273   2.924  16.011  0.00  0.00    +0.000 HD
ENDBRANCH   2  10
BRANCH   1  19
ATOM     18  C   UNL     1       2.961   7.776  18.182  0.00  0.00    +0.000 C 
ATOM     19  C   UNL     1       3.008   6.431  17.475  0.00  0.00    +0.000 C 
ENDBRANCH   1  19
BRANCH   6  20
ATOM     20  O   UNL     1       1.753   2.062  22.220  0.00  0.00    +0.000 OA
ATOM     21  H   UNL     1       2.487   1.911  22.839  0.00  0.00    +0.000 HD
ENDBRANCH   6  20
TORSDOF 3
ENDMDL
MODEL 3
REMARK VINA RESULT:      -7.4      2.112      2.883
REMARK  Name = 
REMARK  4 active torsions:
REMARK  status: ('A' for Active; 'I' for Inactive)
REMARK    1  A    between atoms: C_1  and  C_2
REMARK    2  A    between atoms: C_2  and  N_3
REMARK    3  A    between atoms: C_4  and  C_5
REMARK    4  A    between atoms: C_14  and  O_15
REMARK                            x       y       z     vdW  Elec       q    Type
REMARK                         _______ _______ _______ _____ _____    ______ ____
ROOT
ATOM      1  N   UNL     1       3.994   5.653  18.343  0.00  0.00    +0.000 N 
ATOM      2  C   UNL     1       4.755   4.716  17.669  0.00  0.00    +0.000 A 
ATOM      3  N   UNL     1       4.538   3.506  18.161  0.00  0.00    +0.000 NA
ATOM      4  C   UNL     1       3.693   3.676  19.230  0.00  0.00    +0.000 A 
ATOM      5  C   UNL     1       3.186   2.718  20.122  0.00  0.00    +0.000 A 
ATOM      6  C   UNL     1       2.334   3.154  21.141  0.00  0.00    +0.000 A 
ATOM      7  C   UNL     1       1.989   4.496  21.278  0.00  0.00    +0.000 A 
ATOM      8  C   UNL     1       2.486   5.460  20.395  0.00  0.00    +0.000 A 
ATOM      9  C   UNL     1       3.341   5.014  19.377  0.00  0.00    +0.000 A 
ENDROOT
BRANCH   2  10
ATOM     10  C   UNL     1       5.711   4.969  16.541  0.00  0.00    +0.000 A 
ATOM     11  N   UNL     1       5.340   5.424  15.340  0.00  0.00    +0.000 NA
ATOM     12  O   UNL     1       6.523   5.552  14.622  0.00  0.00    +0.000 OA
ATOM     13  N   UNL     1       7.617   5.140  15.370  0.00  0.00    +0.000 NA
ATOM     14  C   UNL     1       7.118   4.785  16.552  0.00  0.00    +0.000 A 
ATOM     15  N   UNL     1       7.851   4.307  17.576  0.00  0.00    +0.000 N 
ATOM     16  H   UNL     1       8.802   4.002  17.410  0.00  0.00    +0.000 HD
ATOM     17  H   UNL     1       7.383   3.882  18.377  0.00  0.00    +0.000 HD
ENDBRANCH   2  10
BRANCH   1  19
ATOM     18  C   UNL     1       2.332   7.427  17.816  0.00  0.00    +0.000 C 
ATOM     19  C   UNL     1       3.794   7.046  17.985  0.00  0.00    +0.000 C 
ENDBRANCH   1  19
BRANCH   6  20
ATOM     20  O   UNL     1       1.807   2.275  22.043  0.00  0.00    +0.000 OA
ATOM     21  H   UNL     1       2.210   2.440  22.911  0.00  0.00    +0.000 HD
ENDBRANCH   6  20
TORSDOF 3
ENDMDL
MODEL 4
REMARK VINA RESULT:      -7.1      2.386      3.711
REMARK  Name = 
REMARK  4 active torsions:
REMARK  status: ('A' for Active; 'I' for Inactive)
REMARK    1  A    between atoms: C_1  and  C_2
REMARK    2  A    between atoms: C_2  and  N_3
REMARK    3  A    between atoms: C_4  and  C_5
REMARK    4  A    between atoms: C_14  and  O_15
REMARK                            x       y       z     vdW  Elec       q    Type
REMARK                         _______ _______ _______ _____ _____    ______ ____
ROOT
ATOM      1  N   UNL     1       6.203   4.358  17.250  0.00  0.00    +0.000 N 
ATOM      2  C   UNL     1       5.837   4.492  15.923  0.00  0.00    +0.000 A 
ATOM      3  N   UNL     1       4.535   4.297  15.783  0.00  0.00    +0.000 NA
ATOM      4  C   UNL     1       4.068   3.941  17.023  0.00  0.00    +0.000 A 
ATOM      5  C   UNL     1       2.766   3.587  17.414  0.00  0.00    +0.000 A 
ATOM      6  C   UNL     1       2.548   3.260  18.755  0.00  0.00    +0.000 A 
ATOM      7  C   UNL     1       3.581   3.283  19.687  0.00  0.00    +0.000 A 
ATOM      8  C   UNL     1       4.881   3.636  19.312  0.00  0.00    +0.000 A 
ATOM      9  C   UNL     1       5.091   3.960  17.964  0.00  0.00    +0.000 A 
ENDROOT
BRANCH   2  10
ATOM     10  C   UNL     1       6.736   4.805  14.764  0.00  0.00    +0.000 A 
ATOM     11  N   UNL     1       7.730   5.699  14.813  0.00  0.00    +0.000 NA
ATOM     12  O   UNL     1       8.324   5.646  13.558  0.00  0.00    +0.000 OA
ATOM     13  N   UNL     1       7.673   4.746  12.726  0.00  0.00    +0.000 NA
ATOM     14  C   UNL     1       6.698   4.225  13.469  0.00  0.00    +0.000 A 
ATOM     15  N   UNL     1       5.813   3.310  13.031  0.00  0.00    +0.000 N 
ATOM     16  H   UNL     1       5.728   3.133  12.037  0.00  0.00    +0.000 HD
ATOM     17  H   UNL     1       4.987   3.099  13.591  0.00  0.00    +0.000 HD
ENDBRANCH   2  10
BRANCH   1  19
ATOM     18  C   UNL     1       7.555   6.099  18.403  0.00  0.00    +0.000 C 
ATOM     19  C   UNL     1       7.485   4.686  17.846  0.00  0.00    +0.000 C 
ENDBRANCH   1  19
BRANCH   6  20
ATOM     20  O   UNL     1       1.307   2.906  19.201  0.00  0.00    +0.000 OA
ATOM     21  H   UNL     1       1.398   2.484  20.072  0.00  0.00    +0.000 HD
ENDBRANCH   6  20
TORSDOF 3
ENDMDL
MODEL 5
REMARK VINA RESULT:      -7.1      1.798      2.994
REMARK  Name = 
REMARK  4 active torsions:
REMARK  status: ('A' for Active; 'I' for Inactive)
REMARK    1  A    between atoms: C_1  and  C_2
REMARK    2  A    between atoms: C_2  and  N_3
REMARK    3  A    between atoms: C_4  and  C_5
REMARK    4  A    between atoms: C_14  and  O_15
REMARK                            x       y       z     vdW  Elec       q    Type
REMARK                         _______ _______ _______ _____ _____    ______ ____
ROOT
ATOM      1  N   UNL     1       3.979   5.466  17.794  0.00  0.00    +0.000 N 
ATOM      2  C   UNL     1       4.746   4.772  16.877  0.00  0.00    +0.000 A 
ATOM      3  N   UNL     1       4.224   3.577  16.651  0.00  0.00    +0.000 NA
ATOM      4  C   UNL     1       3.154   3.461  17.503  0.00  0.00    +0.000 A 
ATOM      5  C   UNL     1       2.284   2.375  17.694  0.00  0.00    +0.000 A 
ATOM      6  C   UNL     1       1.261   2.511  18.635  0.00  0.00    +0.000 A 
ATOM      7  C   UNL     1       1.096   3.683  19.369  0.00  0.00    +0.000 A 
ATOM      8  C   UNL     1       1.954   4.772  19.187  0.00  0.00    +0.000 A 
ATOM      9  C   UNL     1       2.979   4.626  18.241  0.00  0.00    +0.000 A 
ENDROOT
BRANCH   2  10
ATOM     10  C   UNL     1       6.002   5.245  16.207  0.00  0.00    +0.000 A 
ATOM     11  N   UNL     1       6.718   6.294  16.623  0.00  0.00    +0.000 NA
ATOM     12  O   UNL     1       7.804   6.357  15.758  0.00  0.00    +0.000 OA
ATOM     13  N   UNL     1       7.735   5.367  14.788  0.00  0.00    +0.000 NA
ATOM     14  C   UNL     1       6.629   4.680  15.065  0.00  0.00    +0.000 A 
ATOM     15  N   UNL     1       6.183   3.632  14.348  0.00  0.00    +0.000 N 
ATOM     16  H   UNL     1       6.573   3.452  13.430  0.00  0.00    +0.000 HD
ATOM     17  H   UNL     1       5.239   3.277  14.505  0.00  0.00    +0.000 HD
ENDBRANCH   2  10
BRANCH   1  19
ATOM     18  C   UNL     1       2.972   7.733  17.609  0.00  0.00    +0.000 C 
ATOM     19  C   UNL     1       4.094   6.867  18.157  0.00  0.00    +0.000 C 
ENDBRANCH   1  19
BRANCH   6  20
ATOM     20  O   UNL     1       0.381   1.494  18.871  0.00  0.00    +0.000 OA
ATOM     21  H   UNL     1       0.799   0.852  19.468  0.00  0.00    +0.000 HD
ENDBRANCH   6  20
TORSDOF 3
ENDMDL
MODEL 6
REMARK VINA RESULT:      -7.0      2.180      5.506
REMARK  Name = 
REMARK  4 active torsions:
REMARK  status: ('A' for Active; 'I' for Inactive)
REMARK    1  A    between atoms: C_1  and  C_2
REMARK    2  A    between atoms: C_2  and  N_3
REMARK    3  A    between atoms: C_4  and  C_5
REMARK    4  A    between atoms: C_14  and  O_15
REMARK                            x       y       z     vdW  Elec       q    Type
REMARK                         _______ _______ _______ _____ _____    ______ ____
ROOT
ATOM      1  N   UNL     1       3.675   3.645  17.657  0.00  0.00    +0.000 N 
ATOM      2  C   UNL     1       4.167   3.828  18.936  0.00  0.00    +0.000 A 
ATOM      3  N   UNL     1       5.345   4.430  18.894  0.00  0.00    +0.000 NA
ATOM      4  C   UNL     1       5.662   4.555  17.565  0.00  0.00    +0.000 A 
ATOM      5  C   UNL     1       6.820   5.086  16.973  0.00  0.00    +0.000 A 
ATOM      6  C   UNL     1       6.899   5.097  15.578  0.00  0.00    +0.000 A 
ATOM      7  C   UNL     1       5.869   4.601  14.785  0.00  0.00    +0.000 A 
ATOM      8  C   UNL     1       4.709   4.072  15.362  0.00  0.00    +0.000 A 
ATOM      9  C   UNL     1       4.639   4.063  16.762  0.00  0.00    +0.000 A 
ENDROOT
BRANCH   2  10
ATOM     10  C   UNL     1       3.514   3.421  20.224  0.00  0.00    +0.000 A 
ATOM     11  N   UNL     1       3.701   2.235  20.810  0.00  0.00    +0.000 NA
ATOM     12  O   UNL     1       2.955   2.289  21.981  0.00  0.00    +0.000 OA
ATOM     13  N   UNL     1       2.279   3.495  22.095  0.00  0.00    +0.000 NA
ATOM     14  C   UNL     1       2.626   4.194  21.017  0.00  0.00    +0.000 A 
ATOM     15  N   UNL     1       2.174   5.431  20.732  0.00  0.00    +0.000 N 
ATOM     16  H   UNL     1       1.377   5.799  21.236  0.00  0.00    +0.000 HD
ATOM     17  H   UNL     1       2.332   5.824  19.804  0.00  0.00    +0.000 HD
ENDBRANCH   2  10
BRANCH   1  19
ATOM     18  C   UNL     1       1.275   4.273  17.482  0.00  0.00    +0.000 C 
ATOM     19  C   UNL     1       2.342   3.209  17.281  0.00  0.00    +0.000 C 
ENDBRANCH   1  19
BRANCH   6  20
ATOM     20  O   UNL     1       7.998   5.598  14.939  0.00  0.00    +0.000 OA
ATOM     21  H   UNL     1       7.707   6.269  14.301  0.00  0.00    +0.000 HD
ENDBRANCH   6  20
TORSDOF 3
ENDMDL
MODEL 7
REMARK VINA RESULT:      -7.0      2.114      5.679
REMARK  Name = 
REMARK  4 active torsions:
REMARK  status: ('A' for Active; 'I' for Inactive)
REMARK    1  A    between atoms: C_1  and  C_2
REMARK    2  A    between atoms: C_2  and  N_3
REMARK    3  A    between atoms: C_4  and  C_5
REMARK    4  A    between atoms: C_14  and  O_15
REMARK                            x       y       z     vdW  Elec       q    Type
REMARK                         _______ _______ _______ _____ _____    ______ ____
ROOT
ATOM      1  N   UNL     1       3.748   3.849  18.133  0.00  0.00    +0.000 N 
ATOM      2  C   UNL     1       3.939   4.019  19.492  0.00  0.00    +0.000 A 
ATOM      3  N   UNL     1       4.934   4.864  19.714  0.00  0.00    +0.000 NA
ATOM      4  C   UNL     1       5.452   5.174  18.482  0.00  0.00    +0.000 A 
ATOM      5  C   UNL     1       6.545   5.995  18.159  0.00  0.00    +0.000 A 
ATOM      6  C   UNL     1       6.876   6.149  16.810  0.00  0.00    +0.000 A 
ATOM      7  C   UNL     1       6.152   5.514  15.805  0.00  0.00    +0.000 A 
ATOM      8  C   UNL     1       5.060   4.696  16.113  0.00  0.00    +0.000 A 
ATOM      9  C   UNL     1       4.737   4.545  17.469  0.00  0.00    +0.000 A 
ENDROOT
BRANCH   2  10
ATOM     10  C   UNL     1       3.171   3.366  20.603  0.00  0.00    +0.000 A 
ATOM     11  N   UNL     1       3.600   2.290  21.271  0.00  0.00    +0.000 NA
ATOM     12  O   UNL     1       2.621   2.044  22.225  0.00  0.00    +0.000 OA
ATOM     13  N   UNL     1       1.572   2.946  22.119  0.00  0.00    +0.000 NA
ATOM     14  C   UNL     1       1.912   3.762  21.124  0.00  0.00    +0.000 A 
ATOM     15  N   UNL     1       1.153   4.784  20.683  0.00  0.00    +0.000 N 
ATOM     16  H   UNL     1       0.182   4.842  20.965  0.00  0.00    +0.000 HD
ATOM     17  H   UNL     1       1.387   5.244  19.803  0.00  0.00    +0.000 HD
ENDBRANCH   2  10
BRANCH   1  19
ATOM     18  C   UNL     1       1.382   4.010  17.383  0.00  0.00    +0.000 C 
ATOM     19  C   UNL     1       2.644   3.169  17.479  0.00  0.00    +0.000 C 
ENDBRANCH   1  19
BRANCH   6  20
ATOM     20  O   UNL     1       7.927   6.932  16.427  0.00  0.00    +0.000 OA
ATOM     21  H   UNL     1       8.304   7.356  17.216  0.00  0.00    +0.000 HD
ENDBRANCH   6  20
TORSDOF 3
ENDMDL
MODEL 8
REMARK VINA RESULT:      -6.9      1.499      2.088
REMARK  Name = 
REMARK  4 active torsions:
REMARK  status: ('A' for Active; 'I' for Inactive)
REMARK    1  A    between atoms: C_1  and  C_2
REMARK    2  A    between atoms: C_2  and  N_3
REMARK    3  A    between atoms: C_4  and  C_5
REMARK    4  A    between atoms: C_14  and  O_15
REMARK                            x       y       z     vdW  Elec       q    Type
REMARK                         _______ _______ _______ _____ _____    ______ ____
ROOT
ATOM      1  N   UNL     1       3.975   6.012  17.760  0.00  0.00    +0.000 N 
ATOM      2  C   UNL     1       5.286   5.622  17.963  0.00  0.00    +0.000 A 
ATOM      3  N   UNL     1       5.344   4.329  18.239  0.00  0.00    +0.000 NA
ATOM      4  C   UNL     1       4.044   3.895  18.304  0.00  0.00    +0.000 A 
ATOM      5  C   UNL     1       3.549   2.616  18.606  0.00  0.00    +0.000 A 
ATOM      6  C   UNL     1       2.164   2.431  18.609  0.00  0.00    +0.000 A 
ATOM      7  C   UNL     1       1.289   3.475  18.322  0.00  0.00    +0.000 A 
ATOM      8  C   UNL     1       1.769   4.752  18.017  0.00  0.00    +0.000 A 
ATOM      9  C   UNL     1       3.160   4.929  18.019  0.00  0.00    +0.000 A 
ENDROOT
BRANCH   2  10
ATOM     10  C   UNL     1       6.508   6.491  17.903  0.00  0.00    +0.000 A 
ATOM     11  N   UNL     1       6.700   7.442  16.983  0.00  0.00    +0.000 NA
ATOM     12  O   UNL     1       7.919   8.022  17.313  0.00  0.00    +0.000 OA
ATOM     13  N   UNL     1       8.493   7.402  18.413  0.00  0.00    +0.000 NA
ATOM     14  C   UNL     1       7.624   6.463  18.780  0.00  0.00    +0.000 A 
ATOM     15  N   UNL     1       7.807   5.615  19.810  0.00  0.00    +0.000 N 
ATOM     16  H   UNL     1       8.726   5.526  20.226  0.00  0.00    +0.000 HD
ATOM     17  H   UNL     1       7.193   4.807  19.914  0.00  0.00    +0.000 HD
ENDBRANCH   2  10
BRANCH   1  19
ATOM     18  C   UNL     1       2.612   8.042  18.217  0.00  0.00    +0.000 C 
ATOM     19  C   UNL     1       3.506   7.287  17.247  0.00  0.00    +0.000 C 
ENDBRANCH   1  19
BRANCH   6  20
ATOM     20  O   UNL     1       1.615   1.213  18.895  0.00  0.00    +0.000 OA
ATOM     21  H   UNL     1       0.648   1.297  18.885  0.00  0.00    +0.000 HD
ENDBRANCH   6  20
TORSDOF 3
ENDMDL
MODEL 9
REMARK VINA RESULT:      -6.8      2.360      5.460
REMARK  Name = 
REMARK  4 active torsions:
REMARK  status: ('A' for Active; 'I' for Inactive)
REMARK    1  A    between atoms: C_1  and  C_2
REMARK    2  A    between atoms: C_2  and  N_3
REMARK    3  A    between atoms: C_4  and  C_5
REMARK    4  A    between atoms: C_14  and  O_15
REMARK                            x       y       z     vdW  Elec       q    Type
REMARK                         _______ _______ _______ _____ _____    ______ ____
ROOT
ATOM      1  N   UNL     1       3.806   3.621  17.520  0.00  0.00    +0.000 N 
ATOM      2  C   UNL     1       4.405   3.659  18.766  0.00  0.00    +0.000 A 
ATOM      3  N   UNL     1       5.612   4.198  18.680  0.00  0.00    +0.000 NA
ATOM      4  C   UNL     1       5.832   4.428  17.345  0.00  0.00    +0.000 A 
ATOM      5  C   UNL     1       6.971   4.948  16.709  0.00  0.00    +0.000 A 
ATOM      6  C   UNL     1       6.943   5.084  15.319  0.00  0.00    +0.000 A 
ATOM      7  C   UNL     1       5.826   4.720  14.573  0.00  0.00    +0.000 A 
ATOM      8  C   UNL     1       4.684   4.203  15.194  0.00  0.00    +0.000 A 
ATOM      9  C   UNL     1       4.722   4.068  16.589  0.00  0.00    +0.000 A 
ENDROOT
BRANCH   2  10
ATOM     10  C   UNL     1       3.830   3.170  20.062  0.00  0.00    +0.000 A 
ATOM     11  N   UNL     1       2.781   3.734  20.669  0.00  0.00    +0.000 NA
ATOM     12  O   UNL     1       2.557   2.956  21.799  0.00  0.00    +0.000 OA
ATOM     13  N   UNL     1       3.492   1.936  21.905  0.00  0.00    +0.000 NA
ATOM     14  C   UNL     1       4.273   2.065  20.834  0.00  0.00    +0.000 A 
ATOM     15  N   UNL     1       5.326   1.272  20.560  0.00  0.00    +0.000 N 
ATOM     16  H   UNL     1       5.694   0.663  21.281  0.00  0.00    +0.000 HD
ATOM     17  H   UNL     1       5.986   1.543  19.830  0.00  0.00    +0.000 HD
ENDBRANCH   2  10
BRANCH   1  19
ATOM     18  C   UNL     1       1.444   4.398  17.582  0.00  0.00    +0.000 C 
ATOM     19  C   UNL     1       2.424   3.295  17.218  0.00  0.00    +0.000 C 
ENDBRANCH   1  19
BRANCH   6  20
ATOM     20  O   UNL     1       8.017   5.582  14.638  0.00  0.00    +0.000 OA
ATOM     21  H   UNL     1       7.873   6.528  14.477  0.00  0.00    +0.000 HD
ENDBRANCH   6  20
TORSDOF 3
ENDMDL
