MODEL 1
REMARK VINA RESULT:      -7.6      0.000      0.000
REMARK  Name = 
REMARK  3 active torsions:
REMARK  status: ('A' for Active; 'I' for Inactive)
REMARK    1  A    between atoms: N_8  and  C_9
REMARK    2  A    between atoms: N_16  and  C_17
REMARK    3  A    between atoms: C_17  and  C_18
REMARK                            x       y       z     vdW  Elec       q    Type
REMARK                         _______ _______ _______ _____ _____    ______ ____
ROOT
ATOM      1  C   UNL     1       5.932   4.263  13.950  0.00  0.00    +0.000 A 
ATOM      2  C   UNL     1       7.181   4.839  14.053  0.00  0.00    +0.000 A 
ATOM      3  N   UNL     1       7.624   5.482  15.152  0.00  0.00    +0.000 NA
ATOM      4  C   UNL     1       6.826   5.524  16.245  0.00  0.00    +0.000 A 
ATOM      5  C   UNL     1       5.551   4.935  16.247  0.00  0.00    +0.000 A 
ATOM      6  C   UNL     1       5.104   4.327  15.061  0.00  0.00    +0.000 A 
ATOM      7  C   UNL     1       4.621   4.972  17.439  0.00  0.00    +0.000 C 
ATOM      8  N   UNL     1       5.159   4.308  18.637  0.00  0.00    +0.000 NA
ATOM      9  C   UNL     1       6.147   5.165  19.315  0.00  0.00    +0.000 C 
ATOM     10  C   UNL     1       7.461   5.331  18.538  0.00  0.00    +0.000 C 
ATOM     11  N   UNL     1       7.369   6.170  17.353  0.00  0.00    +0.000 N 
ENDROOT
BRANCH   8  12
ATOM     12  C   UNL     1       4.099   3.746  19.508  0.00  0.00    +0.000 C 
ATOM     13  C   UNL     1       4.196   2.274  19.876  0.00  0.00    +0.000 C 
ATOM     14  C   UNL     1       3.446   1.571  18.767  0.00  0.00    +0.000 C 
ATOM     15  O   UNL     1       2.472   2.496  18.264  0.00  0.00    +0.000 OA
ATOM     16  C   UNL     1       2.688   3.771  18.899  0.00  0.00    +0.000 C 
ENDBRANCH   8  12
BRANCH  11  17
ATOM     17  C   UNL     1       7.009   7.582  17.417  0.00  0.00    +0.000 C 
BRANCH  17  18
ATOM     18  C   UNL     1       8.190   8.520  17.488  0.00  0.00    +0.000 C 
ATOM     19  C   UNL     1       8.097   9.966  17.916  0.00  0.00    +0.000 C 
ATOM     20  C   UNL     1       8.701   8.953  18.844  0.00  0.00    +0.000 C 
ENDBRANCH  17  18
ENDBRANCH  11  17
TORSDOF 3
ENDMDL
MODEL 2
REMARK VINA RESULT:      -7.2      1.053      1.475
REMARK  Name = 
REMARK  3 active torsions:
REMARK  status: ('A' for Active; 'I' for Inactive)
REMARK    1  A    between atoms: N_8  and  C_9
REMARK    2  A    between atoms: N_16  and  C_17
REMARK    3  A    between atoms: C_17  and  C_18
REMARK                            x       y       z     vdW  Elec       q    Type
REMARK                         _______ _______ _______ _____ _____    ______ ____
ROOT
ATOM      1  C   UNL     1       6.068   4.156  13.547  0.00  0.00    +0.000 A 
ATOM      2  C   UNL     1       7.309   4.656  13.879  0.00  0.00    +0.000 A 
ATOM      3  N   UNL     1       7.607   5.190  15.082  0.00  0.00    +0.000 NA
ATOM      4  C   UNL     1       6.657   5.188  16.046  0.00  0.00    +0.000 A 
ATOM      5  C   UNL     1       5.373   4.668  15.812  0.00  0.00    +0.000 A 
ATOM      6  C   UNL     1       5.086   4.176  14.526  0.00  0.00    +0.000 A 
ATOM      7  C   UNL     1       4.277   4.660  16.854  0.00  0.00    +0.000 C 
ATOM      8  N   UNL     1       4.603   3.880  18.058  0.00  0.00    +0.000 NA
ATOM      9  C   UNL     1       5.512   4.630  18.943  0.00  0.00    +0.000 C 
ATOM     10  C   UNL     1       6.933   4.788  18.383  0.00  0.00    +0.000 C 
ATOM     11  N   UNL     1       7.052   5.718  17.272  0.00  0.00    +0.000 N 
ENDROOT
BRANCH   8  12
ATOM     12  C   UNL     1       3.403   3.308  18.714  0.00  0.00    +0.000 C 
ATOM     13  C   UNL     1       2.065   3.978  18.442  0.00  0.00    +0.000 C 
ATOM     14  C   UNL     1       1.962   5.035  19.518  0.00  0.00    +0.000 C 
ATOM     15  O   UNL     1       2.730   4.575  20.638  0.00  0.00    +0.000 OA
ATOM     16  C   UNL     1       3.420   3.371  20.250  0.00  0.00    +0.000 C 
ENDBRANCH   8  12
BRANCH  11  17
ATOM     17  C   UNL     1       6.744   7.138  17.400  0.00  0.00    +0.000 C 
BRANCH  17  18
ATOM     18  C   UNL     1       7.955   8.039  17.402  0.00  0.00    +0.000 C 
ATOM     19  C   UNL     1       7.937   9.480  17.856  0.00  0.00    +0.000 C 
ATOM     20  C   UNL     1       8.572   8.434  18.726  0.00  0.00    +0.000 C 
ENDBRANCH  17  18
ENDBRANCH  11  17
TORSDOF 3
ENDMDL
MODEL 3
REMARK VINA RESULT:      -7.1      0.877      1.035
REMARK  Name = 
REMARK  3 active torsions:
REMARK  status: ('A' for Active; 'I' for Inactive)
REMARK    1  A    between atoms: N_8  and  C_9
REMARK    2  A    between atoms: N_16  and  C_17
REMARK    3  A    between atoms: C_17  and  C_18
REMARK                            x       y       z     vdW  Elec       q    Type
REMARK                         _______ _______ _______ _____ _____    ______ ____
ROOT
ATOM      1  C   UNL     1       5.994   4.335  14.105  0.00  0.00    +0.000 A 
ATOM      2  C   UNL     1       7.262   4.712  14.494  0.00  0.00    +0.000 A 
ATOM      3  N   UNL     1       7.535   5.343  15.655  0.00  0.00    +0.000 NA
ATOM      4  C   UNL     1       6.522   5.576  16.521  0.00  0.00    +0.000 A 
ATOM      5  C   UNL     1       5.202   5.198  16.227  0.00  0.00    +0.000 A 
ATOM      6  C   UNL     1       4.950   4.597  14.981  0.00  0.00    +0.000 A 
ATOM      7  C   UNL     1       4.038   5.453  17.159  0.00  0.00    +0.000 C 
ATOM      8  N   UNL     1       4.160   4.787  18.465  0.00  0.00    +0.000 NA
ATOM      9  C   UNL     1       5.091   5.516  19.343  0.00  0.00    +0.000 C 
ATOM     10  C   UNL     1       6.560   5.426  18.904  0.00  0.00    +0.000 C 
ATOM     11  N   UNL     1       6.890   6.194  17.714  0.00  0.00    +0.000 N 
ENDROOT
BRANCH   8  12
ATOM     12  C   UNL     1       2.846   4.454  19.065  0.00  0.00    +0.000 C 
ATOM     13  C   UNL     1       2.802   4.189  20.562  0.00  0.00    +0.000 C 
ATOM     14  C   UNL     1       3.062   2.704  20.677  0.00  0.00    +0.000 C 
ATOM     15  O   UNL     1       2.601   2.100  19.462  0.00  0.00    +0.000 OA
ATOM     16  C   UNL     1       2.218   3.148  18.551  0.00  0.00    +0.000 C 
ENDBRANCH   8  12
BRANCH  11  17
ATOM     17  C   UNL     1       6.768   7.647  17.659  0.00  0.00    +0.000 C 
BRANCH  17  18
ATOM     18  C   UNL     1       8.087   8.378  17.595  0.00  0.00    +0.000 C 
ATOM     19  C   UNL     1       8.235   9.873  17.762  0.00  0.00    +0.000 C 
ATOM     20  C   UNL     1       8.667   8.954  18.868  0.00  0.00    +0.000 C 
ENDBRANCH  17  18
ENDBRANCH  11  17
TORSDOF 3
ENDMDL
MODEL 4
REMARK VINA RESULT:      -7.0      1.622      4.050
REMARK  Name = 
REMARK  3 active torsions:
REMARK  status: ('A' for Active; 'I' for Inactive)
REMARK    1  A    between atoms: N_8  and  C_9
REMARK    2  A    between atoms: N_16  and  C_17
REMARK    3  A    between atoms: C_17  and  C_18
REMARK                            x       y       z     vdW  Elec       q    Type
REMARK                         _______ _______ _______ _____ _____    ______ ____
ROOT
ATOM      1  C   UNL     1       8.004   6.579  18.967  0.00  0.00    +0.000 A 
ATOM      2  C   UNL     1       7.715   7.142  17.741  0.00  0.00    +0.000 A 
ATOM      3  N   UNL     1       6.720   6.716  16.936  0.00  0.00    +0.000 NA
ATOM      4  C   UNL     1       5.917   5.717  17.368  0.00  0.00    +0.000 A 
ATOM      5  C   UNL     1       6.112   5.105  18.618  0.00  0.00    +0.000 A 
ATOM      6  C   UNL     1       7.197   5.538  19.400  0.00  0.00    +0.000 A 
ATOM      7  C   UNL     1       5.249   3.975  19.133  0.00  0.00    +0.000 C 
ATOM      8  N   UNL     1       3.830   4.332  19.295  0.00  0.00    +0.000 NA
ATOM      9  C   UNL     1       3.138   4.339  17.995  0.00  0.00    +0.000 C 
ATOM     10  C   UNL     1       3.558   5.492  17.073  0.00  0.00    +0.000 C 
ATOM     11  N   UNL     1       4.888   5.362  16.499  0.00  0.00    +0.000 N 
ENDROOT
BRANCH   8  12
ATOM     12  C   UNL     1       3.163   3.560  20.370  0.00  0.00    +0.000 C 
ATOM     13  C   UNL     1       2.249   2.418  19.953  0.00  0.00    +0.000 C 
ATOM     14  C   UNL     1       0.897   3.073  19.792  0.00  0.00    +0.000 C 
ATOM     15  O   UNL     1       0.872   4.211  20.664  0.00  0.00    +0.000 OA
ATOM     16  C   UNL     1       2.186   4.375  21.233  0.00  0.00    +0.000 C 
ENDBRANCH   8  12
BRANCH  11  17
ATOM     17  C   UNL     1       5.254   4.266  15.607  0.00  0.00    +0.000 C 
BRANCH  17  18
ATOM     18  C   UNL     1       5.667   4.705  14.223  0.00  0.00    +0.000 C 
ATOM     19  C   UNL     1       7.098   4.749  13.741  0.00  0.00    +0.000 C 
ATOM     20  C   UNL     1       6.181   3.668  13.249  0.00  0.00    +0.000 C 
ENDBRANCH  17  18
ENDBRANCH  11  17
TORSDOF 3
ENDMDL
MODEL 5
REMARK VINA RESULT:      -6.8      2.445      3.222
REMARK  Name = 
REMARK  3 active torsions:
REMARK  status: ('A' for Active; 'I' for Inactive)
REMARK    1  A    between atoms: N_8  and  C_9
REMARK    2  A    between atoms: N_16  and  C_17
REMARK    3  A    between atoms: C_17  and  C_18
REMARK                            x       y       z     vdW  Elec       q    Type
REMARK                         _______ _______ _______ _____ _____    ______ ____
ROOT
ATOM      1  C   UNL     1       6.556   4.206  15.054  0.00  0.00    +0.000 A 
ATOM      2  C   UNL     1       6.851   5.515  15.371  0.00  0.00    +0.000 A 
ATOM      3  N   UNL     1       6.143   6.253  16.251  0.00  0.00    +0.000 NA
ATOM      4  C   UNL     1       5.115   5.668  16.909  0.00  0.00    +0.000 A 
ATOM      5  C   UNL     1       4.762   4.328  16.679  0.00  0.00    +0.000 A 
ATOM      6  C   UNL     1       5.487   3.612  15.710  0.00  0.00    +0.000 A 
ATOM      7  C   UNL     1       3.612   3.640  17.380  0.00  0.00    +0.000 C 
ATOM      8  N   UNL     1       3.760   3.568  18.843  0.00  0.00    +0.000 NA
ATOM      9  C   UNL     1       3.437   4.862  19.469  0.00  0.00    +0.000 C 
ATOM     10  C   UNL     1       4.470   5.963  19.189  0.00  0.00    +0.000 C 
ATOM     11  N   UNL     1       4.459   6.481  17.831  0.00  0.00    +0.000 N 
ENDROOT
BRANCH   8  12
ATOM     12  C   UNL     1       3.083   2.388  19.432  0.00  0.00    +0.000 C 
ATOM     13  C   UNL     1       1.962   1.746  18.630  0.00  0.00    +0.000 C 
ATOM     14  C   UNL     1       0.723   2.489  19.076  0.00  0.00    +0.000 C 
ATOM     15  O   UNL     1       0.967   2.952  20.412  0.00  0.00    +0.000 OA
ATOM     16  C   UNL     1       2.339   2.666  20.747  0.00  0.00    +0.000 C 
ENDBRANCH   8  12
BRANCH  11  17
ATOM     17  C   UNL     1       3.302   7.163  17.260  0.00  0.00    +0.000 C 
BRANCH  17  18
ATOM     18  C   UNL     1       2.911   8.430  17.980  0.00  0.00    +0.000 C 
ATOM     19  C   UNL     1       1.623   9.181  17.733  0.00  0.00    +0.000 C 
ATOM     20  C   UNL     1       1.787   8.380  18.991  0.00  0.00    +0.000 C 
ENDBRANCH  17  18
ENDBRANCH  11  17
TORSDOF 3
ENDMDL
MODEL 6
REMARK VINA RESULT:      -6.7      1.566      3.749
REMARK  Name = 
REMARK  3 active torsions:
REMARK  status: ('A' for Active; 'I' for Inactive)
REMARK    1  A    between atoms: N_8  and  C_9
REMARK    2  A    between atoms: N_16  and  C_17
REMARK    3  A    between atoms: C_17  and  C_18
REMARK                            x       y       z     vdW  Elec       q    Type
REMARK                         _______ _______ _______ _____ _____    ______ ____
ROOT
ATOM      1  C   UNL     1       8.199   5.976  19.367  0.00  0.00    +0.000 A 
ATOM      2  C   UNL     1       8.123   7.057  18.515  0.00  0.00    +0.000 A 
ATOM      3  N   UNL     1       7.088   7.283  17.680  0.00  0.00    +0.000 NA
ATOM      4  C   UNL     1       6.032   6.437  17.710  0.00  0.00    +0.000 A 
ATOM      5  C   UNL     1       6.005   5.327  18.569  0.00  0.00    +0.000 A 
ATOM      6  C   UNL     1       7.129   5.093  19.381  0.00  0.00    +0.000 A 
ATOM      7  C   UNL     1       4.853   4.347  18.624  0.00  0.00    +0.000 C 
ATOM      8  N   UNL     1       3.572   4.952  19.023  0.00  0.00    +0.000 NA
ATOM      9  C   UNL     1       2.964   5.686  17.899  0.00  0.00    +0.000 C 
ATOM     10  C   UNL     1       3.713   6.970  17.518  0.00  0.00    +0.000 C 
ATOM     11  N   UNL     1       4.987   6.760  16.848  0.00  0.00    +0.000 N 
ENDROOT
BRANCH   8  12
ATOM     12  C   UNL     1       2.678   3.997  19.719  0.00  0.00    +0.000 C 
ATOM     13  C   UNL     1       3.000   2.515  19.601  0.00  0.00    +0.000 C 
ATOM     14  C   UNL     1       2.251   2.079  18.362  0.00  0.00    +0.000 C 
ATOM     15  O   UNL     1       1.122   2.952  18.221  0.00  0.00    +0.000 OA
ATOM     16  C   UNL     1       1.226   3.992  19.214  0.00  0.00    +0.000 C 
ENDBRANCH   8  12
BRANCH  11  17
ATOM     17  C   UNL     1       5.093   6.091  15.555  0.00  0.00    +0.000 C 
BRANCH  17  18
ATOM     18  C   UNL     1       6.309   5.210  15.411  0.00  0.00    +0.000 C 
ATOM     19  C   UNL     1       6.250   3.717  15.182  0.00  0.00    +0.000 C 
ATOM     20  C   UNL     1       6.635   4.628  14.053  0.00  0.00    +0.000 C 
ENDBRANCH  17  18
ENDBRANCH  11  17
TORSDOF 3
ENDMDL
MODEL 7
REMARK VINA RESULT:      -6.7      3.102      6.386
REMARK  Name = 
REMARK  3 active torsions:
REMARK  status: ('A' for Active; 'I' for Inactive)
REMARK    1  A    between atoms: N_8  and  C_9
REMARK    2  A    between atoms: N_16  and  C_17
REMARK    3  A    between atoms: C_17  and  C_18
REMARK                            x       y       z     vdW  Elec       q    Type
REMARK                         _______ _______ _______ _____ _____    ______ ____
ROOT
ATOM      1  C   UNL     1       1.468   9.101  19.293  0.00  0.00    +0.000 A 
ATOM      2  C   UNL     1       1.300   8.354  20.440  0.00  0.00    +0.000 A 
ATOM      3  N   UNL     1       1.763   7.097  20.592  0.00  0.00    +0.000 NA
ATOM      4  C   UNL     1       2.486   6.545  19.589  0.00  0.00    +0.000 A 
ATOM      5  C   UNL     1       2.740   7.243  18.396  0.00  0.00    +0.000 A 
ATOM      6  C   UNL     1       2.188   8.528  18.255  0.00  0.00    +0.000 A 
ATOM      7  C   UNL     1       3.528   6.659  17.245  0.00  0.00    +0.000 C 
ATOM      8  N   UNL     1       4.918   6.315  17.585  0.00  0.00    +0.000 NA
ATOM      9  C   UNL     1       4.977   5.049  18.337  0.00  0.00    +0.000 C 
ATOM     10  C   UNL     1       4.412   5.145  19.761  0.00  0.00    +0.000 C 
ATOM     11  N   UNL     1       2.964   5.260  19.837  0.00  0.00    +0.000 N 
ENDROOT
BRANCH   8  12
ATOM     12  C   UNL     1       5.834   6.412  16.425  0.00  0.00    +0.000 C 
ATOM     13  C   UNL     1       5.590   5.473  15.253  0.00  0.00    +0.000 C 
ATOM     14  C   UNL     1       6.398   4.243  15.597  0.00  0.00    +0.000 C 
ATOM     15  O   UNL     1       7.487   4.672  16.427  0.00  0.00    +0.000 OA
ATOM     16  C   UNL     1       7.300   6.067  16.734  0.00  0.00    +0.000 C 
ENDBRANCH   8  12
BRANCH  11  17
ATOM     17  C   UNL     1       2.066   4.219  19.349  0.00  0.00    +0.000 C 
BRANCH  17  18
ATOM     18  C   UNL     1       2.094   2.946  20.160  0.00  0.00    +0.000 C 
ATOM     19  C   UNL     1       2.548   2.869  21.599  0.00  0.00    +0.000 C 
ATOM     20  C   UNL     1       1.087   2.765  21.273  0.00  0.00    +0.000 C 
ENDBRANCH  17  18
ENDBRANCH  11  17
TORSDOF 3
ENDMDL
MODEL 8
REMARK VINA RESULT:      -6.7      3.279      6.101
REMARK  Name = 
REMARK  3 active torsions:
REMARK  status: ('A' for Active; 'I' for Inactive)
REMARK    1  A    between atoms: N_8  and  C_9
REMARK    2  A    between atoms: N_16  and  C_17
REMARK    3  A    between atoms: C_17  and  C_18
REMARK                            x       y       z     vdW  Elec       q    Type
REMARK                         _______ _______ _______ _____ _____    ______ ____
ROOT
ATOM      1  C   UNL     1       2.235   2.357  21.079  0.00  0.00    +0.000 A 
ATOM      2  C   UNL     1       1.091   3.118  20.963  0.00  0.00    +0.000 A 
ATOM      3  N   UNL     1       1.059   4.344  20.403  0.00  0.00    +0.000 NA
ATOM      4  C   UNL     1       2.197   4.844  19.868  0.00  0.00    +0.000 A 
ATOM      5  C   UNL     1       3.405   4.127  19.907  0.00  0.00    +0.000 A 
ATOM      6  C   UNL     1       3.409   2.878  20.554  0.00  0.00    +0.000 A 
ATOM      7  C   UNL     1       4.703   4.654  19.337  0.00  0.00    +0.000 C 
ATOM      8  N   UNL     1       4.659   4.911  17.889  0.00  0.00    +0.000 NA
ATOM      9  C   UNL     1       3.958   6.173  17.599  0.00  0.00    +0.000 C 
ATOM     10  C   UNL     1       2.447   6.120  17.866  0.00  0.00    +0.000 C 
ATOM     11  N   UNL     1       2.074   6.097  19.271  0.00  0.00    +0.000 N 
ENDROOT
BRANCH   8  12
ATOM     12  C   UNL     1       5.980   4.751  17.237  0.00  0.00    +0.000 C 
ATOM     13  C   UNL     1       7.219   4.959  18.094  0.00  0.00    +0.000 C 
ATOM     14  C   UNL     1       7.505   6.438  17.969  0.00  0.00    +0.000 C 
ATOM     15  O   UNL     1       6.988   6.862  16.700  0.00  0.00    +0.000 OA
ATOM     16  C   UNL     1       6.268   5.760  16.113  0.00  0.00    +0.000 C 
ENDBRANCH   8  12
BRANCH  11  17
ATOM     17  C   UNL     1       2.387   7.191  20.185  0.00  0.00    +0.000 C 
BRANCH  17  18
ATOM     18  C   UNL     1       1.182   7.794  20.866  0.00  0.00    +0.000 C 
ATOM     19  C   UNL     1       1.259   8.864  21.929  0.00  0.00    +0.000 C 
ATOM     20  C   UNL     1       0.799   9.222  20.546  0.00  0.00    +0.000 C 
ENDBRANCH  17  18
ENDBRANCH  11  17
TORSDOF 3
ENDMDL
MODEL 9
REMARK VINA RESULT:      -6.7      1.440      1.902
REMARK  Name = 
REMARK  3 active torsions:
REMARK  status: ('A' for Active; 'I' for Inactive)
REMARK    1  A    between atoms: N_8  and  C_9
REMARK    2  A    between atoms: N_16  and  C_17
REMARK    3  A    between atoms: C_17  and  C_18
REMARK                            x       y       z     vdW  Elec       q    Type
REMARK                         _______ _______ _______ _____ _____    ______ ____
ROOT
ATOM      1  C   UNL     1       5.978   4.777  14.389  0.00  0.00    +0.000 A 
ATOM      2  C   UNL     1       7.149   4.396  15.011  0.00  0.00    +0.000 A 
ATOM      3  N   UNL     1       7.333   4.424  16.347  0.00  0.00    +0.000 NA
ATOM      4  C   UNL     1       6.298   4.792  17.138  0.00  0.00    +0.000 A 
ATOM      5  C   UNL     1       5.056   5.164  16.597  0.00  0.00    +0.000 A 
ATOM      6  C   UNL     1       4.925   5.179  15.197  0.00  0.00    +0.000 A 
ATOM      7  C   UNL     1       3.879   5.597  17.442  0.00  0.00    +0.000 C 
ATOM      8  N   UNL     1       3.400   4.565  18.374  0.00  0.00    +0.000 NA
ATOM      9  C   UNL     1       4.279   4.471  19.553  0.00  0.00    +0.000 C 
ATOM     10  C   UNL     1       5.663   3.880  19.250  0.00  0.00    +0.000 C 
ATOM     11  N   UNL     1       6.553   4.757  18.507  0.00  0.00    +0.000 N 
ENDROOT
BRANCH   8  12
ATOM     12  C   UNL     1       1.952   4.682  18.667  0.00  0.00    +0.000 C 
ATOM     13  C   UNL     1       1.511   4.535  20.115  0.00  0.00    +0.000 C 
ATOM     14  C   UNL     1       1.269   3.051  20.273  0.00  0.00    +0.000 C 
ATOM     15  O   UNL     1       0.914   2.541  18.981  0.00  0.00    +0.000 OA
ATOM     16  C   UNL     1       1.076   3.599  18.016  0.00  0.00    +0.000 C 
ENDBRANCH   8  12
BRANCH  11  17
ATOM     17  C   UNL     1       7.009   6.040  19.030  0.00  0.00    +0.000 C 
BRANCH  17  18
ATOM     18  C   UNL     1       7.859   6.835  18.070  0.00  0.00    +0.000 C 
ATOM     19  C   UNL     1       7.416   8.122  17.413  0.00  0.00    +0.000 C 
ATOM     20  C   UNL     1       8.428   8.163  18.520  0.00  0.00    +0.000 C 
ENDBRANCH  17  18
ENDBRANCH  11  17
TORSDOF 3
ENDMDL
