MODEL 1
REMARK VINA RESULT:      -8.3      0.000      0.000
REMARK  Name = 
REMARK  3 active torsions:
REMARK  status: ('A' for Active; 'I' for Inactive)
REMARK    1  A    between atoms: C_1  and  O_2
REMARK    2  A    between atoms: O_2  and  C_3
REMARK    3  A    between atoms: C_15  and  C_17
REMARK                            x       y       z     vdW  Elec       q    Type
REMARK                         _______ _______ _______ _____ _____    ______ ____
ROOT
ATOM      1  C   UNL     1       5.830   4.705  15.559  0.00  0.00    +0.000 A 
ATOM      2  C   UNL     1       5.597   6.083  15.525  0.00  0.00    +0.000 A 
ATOM      3  C   UNL     1       4.709   6.686  16.440  0.00  0.00    +0.000 A 
ATOM      4  C   UNL     1       4.055   5.913  17.402  0.00  0.00    +0.000 A 
ATOM      5  C   UNL     1       4.299   4.514  17.431  0.00  0.00    +0.000 A 
ATOM      6  C   UNL     1       5.169   3.927  16.506  0.00  0.00    +0.000 A 
ATOM      7  C   UNL     1       3.589   3.626  18.437  0.00  0.00    +0.000 C 
ATOM      8  C   UNL     1       3.420   4.332  19.782  0.00  0.00    +0.000 C 
ATOM      9  C   UNL     1       2.899   5.700  19.533  0.00  0.00    +0.000 A 
ATOM     10  S   UNL     1       1.862   6.497  20.589  0.00  0.00    +0.000 S 
ATOM     11  C   UNL     1       1.894   7.881  19.575  0.00  0.00    +0.000 A 
ATOM     12  N   UNL     1       1.167   9.014  19.928  0.00  0.00    +0.000 N 
ATOM     13  C   UNL     1       0.717   9.262  21.216  0.00  0.00    +0.000 C 
ATOM     14  O   UNL     1       0.968   8.591  22.215  0.00  0.00    +0.000 OA
ATOM     15  N   UNL     1       2.578   7.745  18.450  0.00  0.00    +0.000 NA
ATOM     16  C   UNL     1       3.179   6.485  18.431  0.00  0.00    +0.000 A 
ATOM     17  H   UNL     1       1.125   9.722  19.214  0.00  0.00    +0.000 HD
ENDROOT
BRANCH  13  18
ATOM     18  C   UNL     1      -0.107  10.482  21.460  0.00  0.00    +0.000 A 
ATOM     19  C   UNL     1      -0.403  11.433  20.480  0.00  0.00    +0.000 A 
ATOM     20  C   UNL     1      -1.271  12.494  20.784  0.00  0.00    +0.000 A 
ATOM     21  C   UNL     1      -1.839  12.601  22.059  0.00  0.00    +0.000 A 
ATOM     22 BR   UNL     1      -3.023  14.022  22.451  0.00  0.00    +0.000 Br
ATOM     23  C   UNL     1      -1.555  11.658  23.036  0.00  0.00    +0.000 A 
ATOM     24  C   UNL     1      -0.693  10.603  22.734  0.00  0.00    +0.000 A 
ENDBRANCH  13  18
BRANCH   1  26
ATOM     25  C   UNL     1       6.317   3.864  13.383  0.00  0.00    +0.000 C 
ATOM     26  O   UNL     1       6.670   3.990  14.751  0.00  0.00    +0.000 OA
ENDBRANCH   1  26
TORSDOF 2
ENDMDL
MODEL 2
REMARK VINA RESULT:      -8.3      0.600      1.107
REMARK  Name = 
REMARK  3 active torsions:
REMARK  status: ('A' for Active; 'I' for Inactive)
REMARK    1  A    between atoms: C_1  and  O_2
REMARK    2  A    between atoms: O_2  and  C_3
REMARK    3  A    between atoms: C_15  and  C_17
REMARK                            x       y       z     vdW  Elec       q    Type
REMARK                         _______ _______ _______ _____ _____    ______ ____
ROOT
ATOM      1  C   UNL     1       5.844   4.583  15.199  0.00  0.00    +0.000 A 
ATOM      2  C   UNL     1       5.705   5.972  15.266  0.00  0.00    +0.000 A 
ATOM      3  C   UNL     1       4.856   6.566  16.224  0.00  0.00    +0.000 A 
ATOM      4  C   UNL     1       4.149   5.772  17.128  0.00  0.00    +0.000 A 
ATOM      5  C   UNL     1       4.297   4.360  17.055  0.00  0.00    +0.000 A 
ATOM      6  C   UNL     1       5.129   3.785  16.089  0.00  0.00    +0.000 A 
ATOM      7  C   UNL     1       3.525   3.452  17.994  0.00  0.00    +0.000 C 
ATOM      8  C   UNL     1       3.400   4.068  19.387  0.00  0.00    +0.000 C 
ATOM      9  C   UNL     1       2.974   5.483  19.239  0.00  0.00    +0.000 A 
ATOM     10  S   UNL     1       1.989   6.270  20.351  0.00  0.00    +0.000 S 
ATOM     11  C   UNL     1       2.117   7.718  19.441  0.00  0.00    +0.000 A 
ATOM     12  N   UNL     1       1.468   8.869  19.876  0.00  0.00    +0.000 N 
ATOM     13  C   UNL     1       1.031   9.053  21.180  0.00  0.00    +0.000 C 
ATOM     14  O   UNL     1       1.232   8.296  22.127  0.00  0.00    +0.000 OA
ATOM     15  N   UNL     1       2.795   7.618  18.308  0.00  0.00    +0.000 NA
ATOM     16  C   UNL     1       3.310   6.325  18.196  0.00  0.00    +0.000 A 
ATOM     17  H   UNL     1       1.477   9.629  19.215  0.00  0.00    +0.000 HD
ENDROOT
BRANCH  13  18
ATOM     18  C   UNL     1       0.291  10.306  21.512  0.00  0.00    +0.000 A 
ATOM     19  C   UNL     1      -0.567  10.439  22.607  0.00  0.00    +0.000 A 
ATOM     20  C   UNL     1      -1.137  11.690  22.893  0.00  0.00    +0.000 A 
ATOM     21  C   UNL     1      -0.850  12.799  22.089  0.00  0.00    +0.000 A 
ATOM     22 BR   UNL     1      -1.606  14.483  22.494  0.00  0.00    +0.000 Br
ATOM     23  C   UNL     1       0.006  12.677  21.003  0.00  0.00    +0.000 A 
ATOM     24  C   UNL     1       0.574  11.434  20.720  0.00  0.00    +0.000 A 
ENDBRANCH  13  18
BRANCH   1  26
ATOM     25  C   UNL     1       6.169   3.689  13.015  0.00  0.00    +0.000 C 
ATOM     26  O   UNL     1       6.637   3.872  14.341  0.00  0.00    +0.000 OA
ENDBRANCH   1  26
TORSDOF 2
ENDMDL
MODEL 3
REMARK VINA RESULT:      -8.2      3.709      9.615
REMARK  Name = 
REMARK  3 active torsions:
REMARK  status: ('A' for Active; 'I' for Inactive)
REMARK    1  A    between atoms: C_1  and  O_2
REMARK    2  A    between atoms: O_2  and  C_3
REMARK    3  A    between atoms: C_15  and  C_17
REMARK                            x       y       z     vdW  Elec       q    Type
REMARK                         _______ _______ _______ _____ _____    ______ ____
ROOT
ATOM      1  C   UNL     1      -2.595  13.280  20.989  0.00  0.00    +0.000 A 
ATOM      2  C   UNL     1      -2.185  12.945  19.695  0.00  0.00    +0.000 A 
ATOM      3  C   UNL     1      -1.281  11.884  19.477  0.00  0.00    +0.000 A 
ATOM      4  C   UNL     1      -0.791  11.143  20.555  0.00  0.00    +0.000 A 
ATOM      5  C   UNL     1      -1.214  11.488  21.867  0.00  0.00    +0.000 A 
ATOM      6  C   UNL     1      -2.097  12.555  22.068  0.00  0.00    +0.000 A 
ATOM      7  C   UNL     1      -0.685  10.736  23.073  0.00  0.00    +0.000 C 
ATOM      8  C   UNL     1      -0.506   9.249  22.768  0.00  0.00    +0.000 C 
ATOM      9  C   UNL     1       0.201   9.117  21.468  0.00  0.00    +0.000 A 
ATOM     10  S   UNL     1       1.268   7.866  21.122  0.00  0.00    +0.000 S 
ATOM     11  C   UNL     1       1.475   8.481  19.534  0.00  0.00    +0.000 A 
ATOM     12  N   UNL     1       2.320   7.827  18.643  0.00  0.00    +0.000 N 
ATOM     13  C   UNL     1       2.721   6.508  18.800  0.00  0.00    +0.000 C 
ATOM     14  O   UNL     1       2.328   5.727  19.663  0.00  0.00    +0.000 OA
ATOM     15  N   UNL     1       0.847   9.618  19.280  0.00  0.00    +0.000 NA
ATOM     16  C   UNL     1       0.090   9.981  20.395  0.00  0.00    +0.000 A 
ATOM     17  H   UNL     1       2.495   8.329  17.788  0.00  0.00    +0.000 HD
ENDROOT
BRANCH  13  18
ATOM     18  C   UNL     1       3.680   5.934  17.810  0.00  0.00    +0.000 A 
ATOM     19  C   UNL     1       3.789   4.569  17.531  0.00  0.00    +0.000 A 
ATOM     20  C   UNL     1       4.651   4.138  16.509  0.00  0.00    +0.000 A 
ATOM     21  C   UNL     1       5.396   5.067  15.772  0.00  0.00    +0.000 A 
ATOM     22 BR   UNL     1       6.538   4.478  14.386  0.00  0.00    +0.000 Br
ATOM     23  C   UNL     1       5.289   6.425  16.040  0.00  0.00    +0.000 A 
ATOM     24  C   UNL     1       4.432   6.853  17.054  0.00  0.00    +0.000 A 
ENDBRANCH  13  18
BRANCH   1  26
ATOM     25  C   UNL     1      -4.427  13.962  22.351  0.00  0.00    +0.000 C 
ATOM     26  O   UNL     1      -3.471  14.266  21.348  0.00  0.00    +0.000 OA
ENDBRANCH   1  26
TORSDOF 2
ENDMDL
MODEL 4
REMARK VINA RESULT:      -8.0      2.614      3.712
REMARK  Name = 
REMARK  3 active torsions:
REMARK  status: ('A' for Active; 'I' for Inactive)
REMARK    1  A    between atoms: C_1  and  O_2
REMARK    2  A    between atoms: O_2  and  C_3
REMARK    3  A    between atoms: C_15  and  C_17
REMARK                            x       y       z     vdW  Elec       q    Type
REMARK                         _______ _______ _______ _____ _____    ______ ____
ROOT
ATOM      1  C   UNL     1       3.369   3.636  19.598  0.00  0.00    +0.000 A 
ATOM      2  C   UNL     1       2.493   3.929  20.646  0.00  0.00    +0.000 A 
ATOM      3  C   UNL     1       1.975   5.231  20.810  0.00  0.00    +0.000 A 
ATOM      4  C   UNL     1       2.324   6.246  19.917  0.00  0.00    +0.000 A 
ATOM      5  C   UNL     1       3.214   5.939  18.852  0.00  0.00    +0.000 A 
ATOM      6  C   UNL     1       3.733   4.648  18.713  0.00  0.00    +0.000 A 
ATOM      7  C   UNL     1       3.650   7.015  17.875  0.00  0.00    +0.000 C 
ATOM      8  C   UNL     1       2.510   7.987  17.572  0.00  0.00    +0.000 C 
ATOM      9  C   UNL     1       1.882   8.390  18.856  0.00  0.00    +0.000 A 
ATOM     10  S   UNL     1       1.217   9.912  19.119  0.00  0.00    +0.000 S 
ATOM     11  C   UNL     1       0.730   9.428  20.691  0.00  0.00    +0.000 A 
ATOM     12  N   UNL     1       0.050  10.322  21.511  0.00  0.00    +0.000 N 
ATOM     13  C   UNL     1      -0.602  11.450  21.035  0.00  0.00    +0.000 C 
ATOM     14  O   UNL     1      -0.751  11.760  19.855  0.00  0.00    +0.000 OA
ATOM     15  N   UNL     1       1.111   8.213  21.054  0.00  0.00    +0.000 NA
ATOM     16  C   UNL     1       1.765   7.600  19.984  0.00  0.00    +0.000 A 
ATOM     17  H   UNL     1      -0.070  10.010  22.461  0.00  0.00    +0.000 HD
ENDROOT
BRANCH  13  18
ATOM     18  C   UNL     1      -1.245  12.370  22.020  0.00  0.00    +0.000 A 
ATOM     19  C   UNL     1      -2.446  12.092  22.679  0.00  0.00    +0.000 A 
ATOM     20  C   UNL     1      -2.916  12.976  23.664  0.00  0.00    +0.000 A 
ATOM     21  C   UNL     1      -2.188  14.128  23.987  0.00  0.00    +0.000 A 
ATOM     22 BR   UNL     1      -2.819  15.301  25.328  0.00  0.00    +0.000 Br
ATOM     23  C   UNL     1      -0.992  14.407  23.341  0.00  0.00    +0.000 A 
ATOM     24  C   UNL     1      -0.524  13.529  22.364  0.00  0.00    +0.000 A 
ENDBRANCH  13  18
BRANCH   1  26
ATOM     25  C   UNL     1       3.423   1.712  18.192  0.00  0.00    +0.000 C 
ATOM     26  O   UNL     1       3.934   2.425  19.307  0.00  0.00    +0.000 OA
ENDBRANCH   1  26
TORSDOF 2
ENDMDL
MODEL 5
REMARK VINA RESULT:      -7.9      3.735      9.682
REMARK  Name = 
REMARK  3 active torsions:
REMARK  status: ('A' for Active; 'I' for Inactive)
REMARK    1  A    between atoms: C_1  and  O_2
REMARK    2  A    between atoms: O_2  and  C_3
REMARK    3  A    between atoms: C_15  and  C_17
REMARK                            x       y       z     vdW  Elec       q    Type
REMARK                         _______ _______ _______ _____ _____    ______ ____
ROOT
ATOM      1  C   UNL     1      -2.859  13.311  21.179  0.00  0.00    +0.000 A 
ATOM      2  C   UNL     1      -2.497  12.991  19.868  0.00  0.00    +0.000 A 
ATOM      3  C   UNL     1      -1.563  11.966  19.608  0.00  0.00    +0.000 A 
ATOM      4  C   UNL     1      -0.993  11.248  20.661  0.00  0.00    +0.000 A 
ATOM      5  C   UNL     1      -1.368  11.578  21.991  0.00  0.00    +0.000 A 
ATOM      6  C   UNL     1      -2.281  12.609  22.234  0.00  0.00    +0.000 A 
ATOM      7  C   UNL     1      -0.752  10.849  23.171  0.00  0.00    +0.000 C 
ATOM      8  C   UNL     1      -0.529   9.370  22.857  0.00  0.00    +0.000 C 
ATOM      9  C   UNL     1       0.121   9.265  21.525  0.00  0.00    +0.000 A 
ATOM     10  S   UNL     1       1.220   8.056  21.130  0.00  0.00    +0.000 S 
ATOM     11  C   UNL     1       1.327   8.676  19.534  0.00  0.00    +0.000 A 
ATOM     12  N   UNL     1       2.154   8.055  18.603  0.00  0.00    +0.000 N 
ATOM     13  C   UNL     1       2.615   6.754  18.741  0.00  0.00    +0.000 C 
ATOM     14  O   UNL     1       2.295   5.959  19.622  0.00  0.00    +0.000 OA
ATOM     15  N   UNL     1       0.642   9.787  19.309  0.00  0.00    +0.000 NA
ATOM     16  C   UNL     1      -0.075  10.122  20.459  0.00  0.00    +0.000 A 
ATOM     17  H   UNL     1       2.268   8.562  17.741  0.00  0.00    +0.000 HD
ENDROOT
BRANCH  13  18
ATOM     18  C   UNL     1       3.548   6.216  17.707  0.00  0.00    +0.000 A 
ATOM     19  C   UNL     1       4.462   6.999  16.998  0.00  0.00    +0.000 A 
ATOM     20  C   UNL     1       5.368   6.382  16.119  0.00  0.00    +0.000 A 
ATOM     21  C   UNL     1       5.358   4.992  15.953  0.00  0.00    +0.000 A 
ATOM     22 BR   UNL     1       6.593   4.170  14.784  0.00  0.00    +0.000 Br
ATOM     23  C   UNL     1       4.456   4.207  16.659  0.00  0.00    +0.000 A 
ATOM     24  C   UNL     1       3.558   4.819  17.533  0.00  0.00    +0.000 A 
ENDBRANCH  13  18
BRANCH   1  26
ATOM     25  C   UNL     1      -3.393  15.088  22.674  0.00  0.00    +0.000 C 
ATOM     26  O   UNL     1      -3.756  14.262  21.580  0.00  0.00    +0.000 OA
ENDBRANCH   1  26
TORSDOF 2
ENDMDL
MODEL 6
REMARK VINA RESULT:      -7.5      2.575      3.583
REMARK  Name = 
REMARK  3 active torsions:
REMARK  status: ('A' for Active; 'I' for Inactive)
REMARK    1  A    between atoms: C_1  and  O_2
REMARK    2  A    between atoms: O_2  and  C_3
REMARK    3  A    between atoms: C_15  and  C_17
REMARK                            x       y       z     vdW  Elec       q    Type
REMARK                         _______ _______ _______ _____ _____    ______ ____
ROOT
ATOM      1  C   UNL     1       3.337   3.411  19.875  0.00  0.00    +0.000 A 
ATOM      2  C   UNL     1       2.385   3.827  20.811  0.00  0.00    +0.000 A 
ATOM      3  C   UNL     1       1.920   5.159  20.821  0.00  0.00    +0.000 A 
ATOM      4  C   UNL     1       2.398   6.080  19.887  0.00  0.00    +0.000 A 
ATOM      5  C   UNL     1       3.363   5.648  18.938  0.00  0.00    +0.000 A 
ATOM      6  C   UNL     1       3.829   4.329  18.951  0.00  0.00    +0.000 A 
ATOM      7  C   UNL     1       3.938   6.619  17.923  0.00  0.00    +0.000 C 
ATOM      8  C   UNL     1       2.879   7.609  17.438  0.00  0.00    +0.000 C 
ATOM      9  C   UNL     1       2.159   8.145  18.622  0.00  0.00    +0.000 A 
ATOM     10  S   UNL     1       1.549   9.709  18.698  0.00  0.00    +0.000 S 
ATOM     11  C   UNL     1       0.900   9.380  20.252  0.00  0.00    +0.000 A 
ATOM     12  N   UNL     1       0.194  10.367  20.931  0.00  0.00    +0.000 N 
ATOM     13  C   UNL     1      -0.357  11.478  20.308  0.00  0.00    +0.000 C 
ATOM     14  O   UNL     1      -0.383  11.693  19.098  0.00  0.00    +0.000 OA
ATOM     15  N   UNL     1       1.186   8.185  20.745  0.00  0.00    +0.000 NA
ATOM     16  C   UNL     1       1.902   7.457  19.793  0.00  0.00    +0.000 A 
ATOM     17  H   UNL     1      -0.027  10.141  21.887  0.00  0.00    +0.000 HD
ENDROOT
BRANCH  13  18
ATOM     18  C   UNL     1      -1.039  12.503  21.151  0.00  0.00    +0.000 A 
ATOM     19  C   UNL     1      -1.756  13.586  20.637  0.00  0.00    +0.000 A 
ATOM     20  C   UNL     1      -2.448  14.438  21.513  0.00  0.00    +0.000 A 
ATOM     21  C   UNL     1      -2.423  14.205  22.894  0.00  0.00    +0.000 A 
ATOM     22 BR   UNL     1      -3.374  15.345  24.063  0.00  0.00    +0.000 Br
ATOM     23  C   UNL     1      -1.718  13.127  23.412  0.00  0.00    +0.000 A 
ATOM     24  C   UNL     1      -1.032  12.280  22.541  0.00  0.00    +0.000 A 
ENDBRANCH  13  18
BRANCH   1  26
ATOM     25  C   UNL     1       3.629   1.476  18.515  0.00  0.00    +0.000 C 
ATOM     26  O   UNL     1       3.865   2.157  19.737  0.00  0.00    +0.000 OA
ENDBRANCH   1  26
TORSDOF 2
ENDMDL
MODEL 7
REMARK VINA RESULT:      -7.5      1.301      1.574
REMARK  Name = 
REMARK  3 active torsions:
REMARK  status: ('A' for Active; 'I' for Inactive)
REMARK    1  A    between atoms: C_1  and  O_2
REMARK    2  A    between atoms: O_2  and  C_3
REMARK    3  A    between atoms: C_15  and  C_17
REMARK                            x       y       z     vdW  Elec       q    Type
REMARK                         _______ _______ _______ _____ _____    ______ ____
ROOT
ATOM      1  C   UNL     1       5.114   4.619  16.351  0.00  0.00    +0.000 A 
ATOM      2  C   UNL     1       5.113   5.998  16.125  0.00  0.00    +0.000 A 
ATOM      3  C   UNL     1       4.293   6.854  16.890  0.00  0.00    +0.000 A 
ATOM      4  C   UNL     1       3.476   6.333  17.895  0.00  0.00    +0.000 A 
ATOM      5  C   UNL     1       3.484   4.931  18.121  0.00  0.00    +0.000 A 
ATOM      6  C   UNL     1       4.289   4.093  17.342  0.00  0.00    +0.000 A 
ATOM      7  C   UNL     1       2.590   4.312  19.180  0.00  0.00    +0.000 C 
ATOM      8  C   UNL     1       2.475   5.215  20.408  0.00  0.00    +0.000 C 
ATOM      9  C   UNL     1       2.199   6.600  19.949  0.00  0.00    +0.000 A 
ATOM     10  S   UNL     1       1.257   7.688  20.819  0.00  0.00    +0.000 S 
ATOM     11  C   UNL     1       1.565   8.896  19.641  0.00  0.00    +0.000 A 
ATOM     12  N   UNL     1       1.019  10.167  19.793  0.00  0.00    +0.000 N 
ATOM     13  C   UNL     1       0.554  10.658  21.004  0.00  0.00    +0.000 C 
ATOM     14  O   UNL     1       0.642  10.101  22.096  0.00  0.00    +0.000 OA
ATOM     15  N   UNL     1       2.271   8.501  18.593  0.00  0.00    +0.000 NA
ATOM     16  C   UNL     1       2.657   7.172  18.777  0.00  0.00    +0.000 A 
ATOM     17  H   UNL     1       1.129  10.767  18.992  0.00  0.00    +0.000 HD
ENDROOT
BRANCH  13  18
ATOM     18  C   UNL     1      -0.068  12.014  21.031  0.00  0.00    +0.000 A 
ATOM     19  C   UNL     1       0.654  13.207  20.935  0.00  0.00    +0.000 A 
ATOM     20  C   UNL     1      -0.033  14.430  20.867  0.00  0.00    +0.000 A 
ATOM     21  C   UNL     1      -1.433  14.457  20.893  0.00  0.00    +0.000 A 
ATOM     22 BR   UNL     1      -2.349  16.107  20.781  0.00  0.00    +0.000 Br
ATOM     23  C   UNL     1      -2.158  13.277  20.982  0.00  0.00    +0.000 A 
ATOM     24  C   UNL     1      -1.475  12.062  21.048  0.00  0.00    +0.000 A 
ENDBRANCH  13  18
BRANCH   1  26
ATOM     25  C   UNL     1       6.319   3.984  14.396  0.00  0.00    +0.000 C 
ATOM     26  O   UNL     1       5.863   3.676  15.703  0.00  0.00    +0.000 OA
ENDBRANCH   1  26
TORSDOF 2
ENDMDL
MODEL 8
REMARK VINA RESULT:      -7.4      2.608      3.858
REMARK  Name = 
REMARK  3 active torsions:
REMARK  status: ('A' for Active; 'I' for Inactive)
REMARK    1  A    between atoms: C_1  and  O_2
REMARK    2  A    between atoms: O_2  and  C_3
REMARK    3  A    between atoms: C_15  and  C_17
REMARK                            x       y       z     vdW  Elec       q    Type
REMARK                         _______ _______ _______ _____ _____    ______ ____
ROOT
ATOM      1  C   UNL     1       3.486   4.006  19.450  0.00  0.00    +0.000 A 
ATOM      2  C   UNL     1       2.567   4.253  20.474  0.00  0.00    +0.000 A 
ATOM      3  C   UNL     1       1.984   5.528  20.627  0.00  0.00    +0.000 A 
ATOM      4  C   UNL     1       2.310   6.563  19.747  0.00  0.00    +0.000 A 
ATOM      5  C   UNL     1       3.242   6.303  18.707  0.00  0.00    +0.000 A 
ATOM      6  C   UNL     1       3.826   5.038  18.579  0.00  0.00    +0.000 A 
ATOM      7  C   UNL     1       3.653   7.402  17.745  0.00  0.00    +0.000 C 
ATOM      8  C   UNL     1       2.477   8.321  17.413  0.00  0.00    +0.000 C 
ATOM      9  C   UNL     1       1.796   8.688  18.681  0.00  0.00    +0.000 A 
ATOM     10  S   UNL     1       1.052  10.175  18.929  0.00  0.00    +0.000 S 
ATOM     11  C   UNL     1       0.546   9.663  20.485  0.00  0.00    +0.000 A 
ATOM     12  N   UNL     1      -0.198  10.521  21.289  0.00  0.00    +0.000 N 
ATOM     13  C   UNL     1      -0.890  11.618  20.798  0.00  0.00    +0.000 C 
ATOM     14  O   UNL     1      -1.020  11.926  19.615  0.00  0.00    +0.000 OA
ATOM     15  N   UNL     1       0.974   8.466  20.856  0.00  0.00    +0.000 NA
ATOM     16  C   UNL     1       1.685   7.889  19.802  0.00  0.00    +0.000 A 
ATOM     17  H   UNL     1      -0.330  10.199  22.234  0.00  0.00    +0.000 HD
ENDROOT
BRANCH  13  18
ATOM     18  C   UNL     1      -1.602  12.502  21.767  0.00  0.00    +0.000 A 
ATOM     19  C   UNL     1      -1.056  12.934  22.979  0.00  0.00    +0.000 A 
ATOM     20  C   UNL     1      -1.767  13.847  23.774  0.00  0.00    +0.000 A 
ATOM     21  C   UNL     1      -3.016  14.324  23.358  0.00  0.00    +0.000 A 
ATOM     22 BR   UNL     1      -3.957  15.568  24.426  0.00  0.00    +0.000 Br
ATOM     23  C   UNL     1      -3.563  13.905  22.153  0.00  0.00    +0.000 A 
ATOM     24  C   UNL     1      -2.856  12.999  21.362  0.00  0.00    +0.000 A 
ENDBRANCH  13  18
BRANCH   1  26
ATOM     25  C   UNL     1       4.429   1.975  20.263  0.00  0.00    +0.000 C 
ATOM     26  O   UNL     1       4.115   2.824  19.172  0.00  0.00    +0.000 OA
ENDBRANCH   1  26
TORSDOF 2
ENDMDL
MODEL 9
REMARK VINA RESULT:      -7.3      1.413      2.081
REMARK  Name = 
REMARK  3 active torsions:
REMARK  status: ('A' for Active; 'I' for Inactive)
REMARK    1  A    between atoms: C_1  and  O_2
REMARK    2  A    between atoms: O_2  and  C_3
REMARK    3  A    between atoms: C_15  and  C_17
REMARK                            x       y       z     vdW  Elec       q    Type
REMARK                         _______ _______ _______ _____ _____    ______ ____
ROOT
ATOM      1  C   UNL     1       4.783   5.234  16.613  0.00  0.00    +0.000 A 
ATOM      2  C   UNL     1       4.780   6.629  16.529  0.00  0.00    +0.000 A 
ATOM      3  C   UNL     1       3.940   7.399  17.361  0.00  0.00    +0.000 A 
ATOM      4  C   UNL     1       3.105   6.776  18.291  0.00  0.00    +0.000 A 
ATOM      5  C   UNL     1       3.115   5.357  18.371  0.00  0.00    +0.000 A 
ATOM      6  C   UNL     1       3.940   4.606  17.527  0.00  0.00    +0.000 A 
ATOM      7  C   UNL     1       2.202   4.631  19.342  0.00  0.00    +0.000 C 
ATOM      8  C   UNL     1       2.058   5.402  20.654  0.00  0.00    +0.000 C 
ATOM      9  C   UNL     1       1.785   6.827  20.334  0.00  0.00    +0.000 A 
ATOM     10  S   UNL     1       0.821   7.817  21.291  0.00  0.00    +0.000 S 
ATOM     11  C   UNL     1       1.147   9.140  20.250  0.00  0.00    +0.000 A 
ATOM     12  N   UNL     1       0.592  10.387  20.521  0.00  0.00    +0.000 N 
ATOM     13  C   UNL     1       0.101  10.750  21.767  0.00  0.00    +0.000 C 
ATOM     14  O   UNL     1       0.169  10.084  22.797  0.00  0.00    +0.000 OA
ATOM     15  N   UNL     1       1.876   8.857  19.182  0.00  0.00    +0.000 NA
ATOM     16  C   UNL     1       2.264   7.517  19.237  0.00  0.00    +0.000 A 
ATOM     17  H   UNL     1       0.716  11.067  19.789  0.00  0.00    +0.000 HD
ENDROOT
BRANCH  13  18
ATOM     18  C   UNL     1      -0.528  12.095  21.920  0.00  0.00    +0.000 A 
ATOM     19  C   UNL     1      -1.282  12.483  23.031  0.00  0.00    +0.000 A 
ATOM     20  C   UNL     1      -1.746  13.805  23.126  0.00  0.00    +0.000 A 
ATOM     21  C   UNL     1      -1.457  14.731  22.116  0.00  0.00    +0.000 A 
ATOM     22 BR   UNL     1      -2.069  16.513  22.263  0.00  0.00    +0.000 Br
ATOM     23  C   UNL     1      -0.704  14.355  21.013  0.00  0.00    +0.000 A 
ATOM     24  C   UNL     1      -0.241  13.042  20.919  0.00  0.00    +0.000 A 
ENDBRANCH  13  18
BRANCH   1  26
ATOM     25  C   UNL     1       6.933   4.299  16.189  0.00  0.00    +0.000 C 
ATOM     26  O   UNL     1       5.549   4.365  15.887  0.00  0.00    +0.000 OA
ENDBRANCH   1  26
TORSDOF 2
ENDMDL
