MODEL 1
REMARK VINA RESULT:      -7.6      0.000      0.000
REMARK  Name = 
REMARK  7 active torsions:
REMARK  status: ('A' for Active; 'I' for Inactive)
REMARK    1  A    between atoms: C_1  and  C_2
REMARK    2  A    between atoms: C_2  and  O_3
REMARK    3  A    between atoms: O_3  and  C_4
REMARK    4  A    between atoms: C_4  and  C_5
REMARK    5  A    between atoms: N_11  and  S_12
REMARK    6  A    between atoms: S_12  and  C_15
REMARK    7  A    between atoms: C_18  and  C_19
REMARK                            x       y       z     vdW  Elec       q    Type
REMARK                         _______ _______ _______ _____ _____    ______ ____
ROOT
ATOM      1  C   UNL     1       6.347   5.234  15.657  0.00  0.00    +0.000 A 
ATOM      2  N   UNL     1       7.215   6.215  16.091  0.00  0.00    +0.000 NA
ATOM      3  C   UNL     1       7.153   6.164  17.407  0.00  0.00    +0.000 A 
ATOM      4  N   UNL     1       6.331   5.171  17.825  0.00  0.00    +0.000 N 
ATOM      5  C   UNL     1       5.796   4.564  16.727  0.00  0.00    +0.000 A 
ATOM      6  C   UNL     1       4.815   3.466  16.803  0.00  0.00    +0.000 C 
ATOM      7  N   UNL     1       4.229   3.337  18.149  0.00  0.00    +0.000 NA
ATOM      8  C   UNL     1       5.043   3.672  19.345  0.00  0.00    +0.000 C 
ATOM      9  C   UNL     1       5.985   4.866  19.181  0.00  0.00    +0.000 C 
ENDROOT
BRANCH   7  10
ATOM     10  S   UNL     1       2.535   3.353  18.236  0.00  0.00    +0.000 S 
ATOM     11  O   UNL     1       2.010   3.387  16.875  0.00  0.00    +0.000 OA
ATOM     12  O   UNL     1       2.113   2.313  19.141  0.00  0.00    +0.000 OA
BRANCH  10  13
ATOM     13  C   UNL     1       2.131   4.918  18.989  0.00  0.00    +0.000 A 
ATOM     14  C   UNL     1       1.596   4.949  20.278  0.00  0.00    +0.000 A 
ATOM     15  C   UNL     1       1.358   6.169  20.914  0.00  0.00    +0.000 A 
ATOM     16  C   UNL     1       1.735   7.370  20.306  0.00  0.00    +0.000 A 
ATOM     17  C   UNL     1       1.581   8.666  21.049  0.00  0.00    +0.000 C 
ATOM     18  C   UNL     1       2.333   7.332  19.037  0.00  0.00    +0.000 A 
ATOM     19  C   UNL     1       2.514   6.116  18.368  0.00  0.00    +0.000 A 
ENDBRANCH  10  13
ENDBRANCH   7  10
BRANCH   1  20
ATOM     20  C   UNL     1       6.099   5.032  14.197  0.00  0.00    +0.000 C 
BRANCH  20  21
ATOM     21  O   UNL     1       6.455   3.702  13.803  0.00  0.00    +0.000 OA
BRANCH  21  23
ATOM     22  C   UNL     1       5.460   2.759  11.849  0.00  0.00    +0.000 C 
ATOM     23  C   UNL     1       6.592   3.609  12.388  0.00  0.00    +0.000 C 
ENDBRANCH  21  23
ENDBRANCH  20  21
ENDBRANCH   1  20
TORSDOF 5
ENDMDL
MODEL 2
REMARK VINA RESULT:      -7.4      0.330      1.059
REMARK  Name = 
REMARK  7 active torsions:
REMARK  status: ('A' for Active; 'I' for Inactive)
REMARK    1  A    between atoms: C_1  and  C_2
REMARK    2  A    between atoms: C_2  and  O_3
REMARK    3  A    between atoms: O_3  and  C_4
REMARK    4  A    between atoms: C_4  and  C_5
REMARK    5  A    between atoms: N_11  and  S_12
REMARK    6  A    between atoms: S_12  and  C_15
REMARK    7  A    between atoms: C_18  and  C_19
REMARK                            x       y       z     vdW  Elec       q    Type
REMARK                         _______ _______ _______ _____ _____    ______ ____
ROOT
ATOM      1  C   UNL     1       6.277   5.232  15.640  0.00  0.00    +0.000 A 
ATOM      2  N   UNL     1       7.245   6.142  16.015  0.00  0.00    +0.000 NA
ATOM      3  C   UNL     1       7.261   6.097  17.333  0.00  0.00    +0.000 A 
ATOM      4  N   UNL     1       6.390   5.172  17.806  0.00  0.00    +0.000 N 
ATOM      5  C   UNL     1       5.742   4.609  16.746  0.00  0.00    +0.000 A 
ATOM      6  C   UNL     1       4.685   3.592  16.889  0.00  0.00    +0.000 C 
ATOM      7  N   UNL     1       4.174   3.511  18.269  0.00  0.00    +0.000 NA
ATOM      8  C   UNL     1       5.084   3.782  19.411  0.00  0.00    +0.000 C 
ATOM      9  C   UNL     1       6.106   4.897  19.182  0.00  0.00    +0.000 C 
ENDROOT
BRANCH   7  10
ATOM     10  S   UNL     1       2.495   3.661  18.461  0.00  0.00    +0.000 S 
ATOM     11  O   UNL     1       1.889   3.703  17.134  0.00  0.00    +0.000 OA
ATOM     12  O   UNL     1       2.054   2.679  19.420  0.00  0.00    +0.000 OA
BRANCH  10  13
ATOM     13  C   UNL     1       2.260   5.271  19.191  0.00  0.00    +0.000 A 
ATOM     14  C   UNL     1       2.497   6.417  18.431  0.00  0.00    +0.000 A 
ATOM     15  C   UNL     1       2.232   7.682  18.962  0.00  0.00    +0.000 A 
ATOM     16  C   UNL     1       1.643   7.812  20.222  0.00  0.00    +0.000 A 
ATOM     17  C   UNL     1       1.256   9.171  20.731  0.00  0.00    +0.000 C 
ATOM     18  C   UNL     1       1.345   6.654  20.957  0.00  0.00    +0.000 A 
ATOM     19  C   UNL     1       1.669   5.387  20.457  0.00  0.00    +0.000 A 
ENDBRANCH  10  13
ENDBRANCH   7  10
BRANCH   1  20
ATOM     20  C   UNL     1       5.924   5.049  14.200  0.00  0.00    +0.000 C 
BRANCH  20  21
ATOM     21  O   UNL     1       6.161   3.698  13.789  0.00  0.00    +0.000 OA
BRANCH  21  23
ATOM     22  C   UNL     1       5.614   2.489  11.805  0.00  0.00    +0.000 C 
ATOM     23  C   UNL     1       6.422   3.629  12.390  0.00  0.00    +0.000 C 
ENDBRANCH  21  23
ENDBRANCH  20  21
ENDBRANCH   1  20
TORSDOF 5
ENDMDL
MODEL 3
REMARK VINA RESULT:      -6.6      2.638      6.838
REMARK  Name = 
REMARK  7 active torsions:
REMARK  status: ('A' for Active; 'I' for Inactive)
REMARK    1  A    between atoms: C_1  and  C_2
REMARK    2  A    between atoms: C_2  and  O_3
REMARK    3  A    between atoms: O_3  and  C_4
REMARK    4  A    between atoms: C_4  and  C_5
REMARK    5  A    between atoms: N_11  and  S_12
REMARK    6  A    between atoms: S_12  and  C_15
REMARK    7  A    between atoms: C_18  and  C_19
REMARK                            x       y       z     vdW  Elec       q    Type
REMARK                         _______ _______ _______ _____ _____    ______ ____
ROOT
ATOM      1  C   UNL     1       2.076   5.712  20.490  0.00  0.00    +0.000 A 
ATOM      2  N   UNL     1       1.430   6.823  20.993  0.00  0.00    +0.000 NA
ATOM      3  C   UNL     1       1.698   7.789  20.137  0.00  0.00    +0.000 A 
ATOM      4  N   UNL     1       2.437   7.335  19.096  0.00  0.00    +0.000 N 
ATOM      5  C   UNL     1       2.700   6.012  19.298  0.00  0.00    +0.000 A 
ATOM      6  C   UNL     1       3.524   5.199  18.386  0.00  0.00    +0.000 C 
ATOM      7  N   UNL     1       4.299   6.031  17.448  0.00  0.00    +0.000 NA
ATOM      8  C   UNL     1       3.743   7.322  16.972  0.00  0.00    +0.000 C 
ATOM      9  C   UNL     1       2.955   8.118  18.014  0.00  0.00    +0.000 C 
ENDROOT
BRANCH   7  10
ATOM     10  S   UNL     1       5.971   5.751  17.399  0.00  0.00    +0.000 S 
ATOM     11  O   UNL     1       6.648   7.043  17.389  0.00  0.00    +0.000 OA
ATOM     12  O   UNL     1       6.303   4.776  18.408  0.00  0.00    +0.000 OA
BRANCH  10  13
ATOM     13  C   UNL     1       6.263   4.998  15.809  0.00  0.00    +0.000 A 
ATOM     14  C   UNL     1       5.285   4.180  15.241  0.00  0.00    +0.000 A 
ATOM     15  C   UNL     1       5.462   3.657  13.958  0.00  0.00    +0.000 A 
ATOM     16  C   UNL     1       6.575   4.017  13.193  0.00  0.00    +0.000 A 
ATOM     17  C   UNL     1       6.693   3.541  11.773  0.00  0.00    +0.000 C 
ATOM     18  C   UNL     1       7.523   4.893  13.742  0.00  0.00    +0.000 A 
ATOM     19  C   UNL     1       7.383   5.369  15.052  0.00  0.00    +0.000 A 
ENDBRANCH  10  13
ENDBRANCH   7  10
BRANCH   1  20
ATOM     20  C   UNL     1       2.055   4.418  21.236  0.00  0.00    +0.000 C 
BRANCH  20  21
ATOM     21  O   UNL     1       0.946   3.612  20.818  0.00  0.00    +0.000 OA
BRANCH  21  23
ATOM     22  C   UNL     1       0.909   2.411  18.755  0.00  0.00    +0.000 C 
ATOM     23  C   UNL     1       1.394   2.415  20.190  0.00  0.00    +0.000 C 
ENDBRANCH  21  23
ENDBRANCH  20  21
ENDBRANCH   1  20
TORSDOF 5
ENDMDL
MODEL 4
REMARK VINA RESULT:      -6.3      2.613      6.942
REMARK  Name = 
REMARK  7 active torsions:
REMARK  status: ('A' for Active; 'I' for Inactive)
REMARK    1  A    between atoms: C_1  and  C_2
REMARK    2  A    between atoms: C_2  and  O_3
REMARK    3  A    between atoms: O_3  and  C_4
REMARK    4  A    between atoms: C_4  and  C_5
REMARK    5  A    between atoms: N_11  and  S_12
REMARK    6  A    between atoms: S_12  and  C_15
REMARK    7  A    between atoms: C_18  and  C_19
REMARK                            x       y       z     vdW  Elec       q    Type
REMARK                         _______ _______ _______ _____ _____    ______ ____
ROOT
ATOM      1  C   UNL     1       2.208   5.663  20.379  0.00  0.00    +0.000 A 
ATOM      2  N   UNL     1       1.574   6.728  20.986  0.00  0.00    +0.000 NA
ATOM      3  C   UNL     1       1.764   7.746  20.170  0.00  0.00    +0.000 A 
ATOM      4  N   UNL     1       2.442   7.368  19.059  0.00  0.00    +0.000 N 
ATOM      5  C   UNL     1       2.745   6.042  19.169  0.00  0.00    +0.000 A 
ATOM      6  C   UNL     1       3.522   5.301  18.160  0.00  0.00    +0.000 C 
ATOM      7  N   UNL     1       4.217   6.202  17.222  0.00  0.00    +0.000 NA
ATOM      8  C   UNL     1       3.604   7.504  16.858  0.00  0.00    +0.000 C 
ATOM      9  C   UNL     1       2.871   8.222  17.992  0.00  0.00    +0.000 C 
ENDROOT
BRANCH   7  10
ATOM     10  S   UNL     1       5.888   5.965  17.049  0.00  0.00    +0.000 S 
ATOM     11  O   UNL     1       6.530   7.274  17.011  0.00  0.00    +0.000 OA
ATOM     12  O   UNL     1       6.315   4.985  18.016  0.00  0.00    +0.000 OA
BRANCH  10  13
ATOM     13  C   UNL     1       6.081   5.242  15.430  0.00  0.00    +0.000 A 
ATOM     14  C   UNL     1       7.262   5.451  14.716  0.00  0.00    +0.000 A 
ATOM     15  C   UNL     1       7.464   4.820  13.486  0.00  0.00    +0.000 A 
ATOM     16  C   UNL     1       6.529   3.902  12.999  0.00  0.00    +0.000 A 
ATOM     17  C   UNL     1       6.813   3.143  11.735  0.00  0.00    +0.000 C 
ATOM     18  C   UNL     1       5.373   3.644  13.752  0.00  0.00    +0.000 A 
ATOM     19  C   UNL     1       5.136   4.323  14.954  0.00  0.00    +0.000 A 
ENDBRANCH  10  13
ENDBRANCH   7  10
BRANCH   1  20
ATOM     20  C   UNL     1       2.262   4.329  21.050  0.00  0.00    +0.000 C 
BRANCH  20  21
ATOM     21  O   UNL     1       1.030   3.620  20.866  0.00  0.00    +0.000 OA
BRANCH  21  23
ATOM     22  C   UNL     1       0.955   2.527  18.746  0.00  0.00    +0.000 C 
ATOM     23  C   UNL     1       1.253   2.369  20.223  0.00  0.00    +0.000 C 
ENDBRANCH  21  23
ENDBRANCH  20  21
ENDBRANCH   1  20
TORSDOF 5
ENDMDL
MODEL 5
REMARK VINA RESULT:      -6.3      2.453      6.661
REMARK  Name = 
REMARK  7 active torsions:
REMARK  status: ('A' for Active; 'I' for Inactive)
REMARK    1  A    between atoms: C_1  and  C_2
REMARK    2  A    between atoms: C_2  and  O_3
REMARK    3  A    between atoms: O_3  and  C_4
REMARK    4  A    between atoms: C_4  and  C_5
REMARK    5  A    between atoms: N_11  and  S_12
REMARK    6  A    between atoms: S_12  and  C_15
REMARK    7  A    between atoms: C_18  and  C_19
REMARK                            x       y       z     vdW  Elec       q    Type
REMARK                         _______ _______ _______ _____ _____    ______ ____
ROOT
ATOM      1  C   UNL     1       2.102   4.445  19.835  0.00  0.00    +0.000 A 
ATOM      2  N   UNL     1       1.449   5.198  20.789  0.00  0.00    +0.000 NA
ATOM      3  C   UNL     1       1.675   6.451  20.446  0.00  0.00    +0.000 A 
ATOM      4  N   UNL     1       2.393   6.527  19.299  0.00  0.00    +0.000 N 
ATOM      5  C   UNL     1       2.686   5.259  18.889  0.00  0.00    +0.000 A 
ATOM      6  C   UNL     1       3.499   4.958  17.697  0.00  0.00    +0.000 C 
ATOM      7  N   UNL     1       4.232   6.142  17.212  0.00  0.00    +0.000 NA
ATOM      8  C   UNL     1       3.639   7.494  17.368  0.00  0.00    +0.000 C 
ATOM      9  C   UNL     1       2.866   7.722  18.668  0.00  0.00    +0.000 C 
ENDROOT
BRANCH   7  10
ATOM     10  S   UNL     1       5.907   5.961  17.016  0.00  0.00    +0.000 S 
ATOM     11  O   UNL     1       6.507   7.290  16.981  0.00  0.00    +0.000 OA
ATOM     12  O   UNL     1       6.378   4.987  17.969  0.00  0.00    +0.000 OA
BRANCH  10  13
ATOM     13  C   UNL     1       6.103   5.258  15.388  0.00  0.00    +0.000 A 
ATOM     14  C   UNL     1       7.278   5.490  14.671  0.00  0.00    +0.000 A 
ATOM     15  C   UNL     1       7.483   4.874  13.435  0.00  0.00    +0.000 A 
ATOM     16  C   UNL     1       6.558   3.949  12.942  0.00  0.00    +0.000 A 
ATOM     17  C   UNL     1       6.846   3.208  11.669  0.00  0.00    +0.000 C 
ATOM     18  C   UNL     1       5.409   3.668  13.697  0.00  0.00    +0.000 A 
ATOM     19  C   UNL     1       5.168   4.332  14.906  0.00  0.00    +0.000 A 
ENDBRANCH  10  13
ENDBRANCH   7  10
BRANCH   1  20
ATOM     20  C   UNL     1       2.125   2.954  19.929  0.00  0.00    +0.000 C 
BRANCH  20  21
ATOM     21  O   UNL     1       3.276   2.511  20.657  0.00  0.00    +0.000 OA
BRANCH  21  23
ATOM     22  C   UNL     1       3.701   1.357  18.612  0.00  0.00    +0.000 C 
ATOM     23  C   UNL     1       4.317   2.112  19.771  0.00  0.00    +0.000 C 
ENDBRANCH  21  23
ENDBRANCH  20  21
ENDBRANCH   1  20
TORSDOF 5
ENDMDL
MODEL 6
REMARK VINA RESULT:      -6.2      6.011      8.699
REMARK  Name = 
REMARK  7 active torsions:
REMARK  status: ('A' for Active; 'I' for Inactive)
REMARK    1  A    between atoms: C_1  and  C_2
REMARK    2  A    between atoms: C_2  and  O_3
REMARK    3  A    between atoms: O_3  and  C_4
REMARK    4  A    between atoms: C_4  and  C_5
REMARK    5  A    between atoms: N_11  and  S_12
REMARK    6  A    between atoms: S_12  and  C_15
REMARK    7  A    between atoms: C_18  and  C_19
REMARK                            x       y       z     vdW  Elec       q    Type
REMARK                         _______ _______ _______ _____ _____    ______ ____
ROOT
ATOM      1  C   UNL     1      -2.688  10.864  18.424  0.00  0.00    +0.000 A 
ATOM      2  N   UNL     1      -3.471  11.959  18.724  0.00  0.00    +0.000 NA
ATOM      3  C   UNL     1      -2.791  12.623  19.637  0.00  0.00    +0.000 A 
ATOM      4  N   UNL     1      -1.598  12.031  19.892  0.00  0.00    +0.000 N 
ATOM      5  C   UNL     1      -1.508  10.899  19.135  0.00  0.00    +0.000 A 
ATOM      6  C   UNL     1      -0.362   9.974  19.191  0.00  0.00    +0.000 C 
ATOM      7  N   UNL     1       0.486  10.212  20.373  0.00  0.00    +0.000 NA
ATOM      8  C   UNL     1       0.632  11.586  20.914  0.00  0.00    +0.000 C 
ATOM      9  C   UNL     1      -0.632  12.446  20.865  0.00  0.00    +0.000 C 
ENDROOT
BRANCH   7  10
ATOM     10  S   UNL     1       0.793   8.867  21.361  0.00  0.00    +0.000 S 
ATOM     11  O   UNL     1       1.714   9.279  22.415  0.00  0.00    +0.000 OA
ATOM     12  O   UNL     1      -0.465   8.256  21.707  0.00  0.00    +0.000 OA
BRANCH  10  13
ATOM     13  C   UNL     1       1.676   7.724  20.315  0.00  0.00    +0.000 A 
ATOM     14  C   UNL     1       1.727   6.371  20.657  0.00  0.00    +0.000 A 
ATOM     15  C   UNL     1       2.339   5.451  19.802  0.00  0.00    +0.000 A 
ATOM     16  C   UNL     1       2.826   5.856  18.556  0.00  0.00    +0.000 A 
ATOM     17  C   UNL     1       3.374   4.837  17.600  0.00  0.00    +0.000 C 
ATOM     18  C   UNL     1       2.713   7.205  18.188  0.00  0.00    +0.000 A 
ATOM     19  C   UNL     1       2.160   8.143  19.068  0.00  0.00    +0.000 A 
ENDBRANCH  10  13
ENDBRANCH   7  10
BRANCH   1  20
ATOM     20  C   UNL     1      -3.167   9.829  17.458  0.00  0.00    +0.000 C 
BRANCH  20  21
ATOM     21  O   UNL     1      -3.827  10.443  16.345  0.00  0.00    +0.000 OA
BRANCH  21  23
ATOM     22  C   UNL     1      -3.358  10.067  14.035  0.00  0.00    +0.000 C 
ATOM     23  C   UNL     1      -2.900  10.748  15.308  0.00  0.00    +0.000 C 
ENDBRANCH  21  23
ENDBRANCH  20  21
ENDBRANCH   1  20
TORSDOF 5
ENDMDL
MODEL 7
REMARK VINA RESULT:      -6.2      2.725      6.095
REMARK  Name = 
REMARK  7 active torsions:
REMARK  status: ('A' for Active; 'I' for Inactive)
REMARK    1  A    between atoms: C_1  and  C_2
REMARK    2  A    between atoms: C_2  and  O_3
REMARK    3  A    between atoms: O_3  and  C_4
REMARK    4  A    between atoms: C_4  and  C_5
REMARK    5  A    between atoms: N_11  and  S_12
REMARK    6  A    between atoms: S_12  and  C_15
REMARK    7  A    between atoms: C_18  and  C_19
REMARK                            x       y       z     vdW  Elec       q    Type
REMARK                         _______ _______ _______ _____ _____    ______ ____
ROOT
ATOM      1  C   UNL     1       1.757   5.006  20.224  0.00  0.00    +0.000 A 
ATOM      2  N   UNL     1       0.644   4.211  20.405  0.00  0.00    +0.000 NA
ATOM      3  C   UNL     1       0.971   3.046  19.883  0.00  0.00    +0.000 A 
ATOM      4  N   UNL     1       2.247   3.049  19.427  0.00  0.00    +0.000 N 
ATOM      5  C   UNL     1       2.772   4.293  19.626  0.00  0.00    +0.000 A 
ATOM      6  C   UNL     1       4.132   4.676  19.206  0.00  0.00    +0.000 C 
ATOM      7  N   UNL     1       4.716   3.707  18.262  0.00  0.00    +0.000 NA
ATOM      8  C   UNL     1       4.365   2.268  18.368  0.00  0.00    +0.000 C 
ATOM      9  C   UNL     1       2.913   1.977  18.751  0.00  0.00    +0.000 C 
ENDROOT
BRANCH   7  10
ATOM     10  S   UNL     1       5.300   4.339  16.800  0.00  0.00    +0.000 S 
ATOM     11  O   UNL     1       6.100   3.308  16.148  0.00  0.00    +0.000 OA
ATOM     12  O   UNL     1       4.202   4.949  16.093  0.00  0.00    +0.000 OA
BRANCH  10  13
ATOM     13  C   UNL     1       6.421   5.641  17.280  0.00  0.00    +0.000 A 
ATOM     14  C   UNL     1       6.249   6.926  16.764  0.00  0.00    +0.000 A 
ATOM     15  C   UNL     1       7.063   7.975  17.199  0.00  0.00    +0.000 A 
ATOM     16  C   UNL     1       7.996   7.771  18.219  0.00  0.00    +0.000 A 
ATOM     17  C   UNL     1       8.782   8.932  18.758  0.00  0.00    +0.000 C 
ATOM     18  C   UNL     1       8.121   6.492  18.782  0.00  0.00    +0.000 A 
ATOM     19  C   UNL     1       7.353   5.423  18.305  0.00  0.00    +0.000 A 
ENDBRANCH  10  13
ENDBRANCH   7  10
BRANCH   1  20
ATOM     20  C   UNL     1       1.741   6.442  20.640  0.00  0.00    +0.000 C 
BRANCH  20  21
ATOM     21  O   UNL     1       2.463   7.248  19.701  0.00  0.00    +0.000 OA
BRANCH  21  23
ATOM     22  C   UNL     1       1.962   8.704  17.878  0.00  0.00    +0.000 C 
ATOM     23  C   UNL     1       1.715   8.406  19.342  0.00  0.00    +0.000 C 
ENDBRANCH  21  23
ENDBRANCH  20  21
ENDBRANCH   1  20
TORSDOF 5
ENDMDL
MODEL 8
REMARK VINA RESULT:      -6.2      2.919      6.830
REMARK  Name = 
REMARK  7 active torsions:
REMARK  status: ('A' for Active; 'I' for Inactive)
REMARK    1  A    between atoms: C_1  and  C_2
REMARK    2  A    between atoms: C_2  and  O_3
REMARK    3  A    between atoms: O_3  and  C_4
REMARK    4  A    between atoms: C_4  and  C_5
REMARK    5  A    between atoms: N_11  and  S_12
REMARK    6  A    between atoms: S_12  and  C_15
REMARK    7  A    between atoms: C_18  and  C_19
REMARK                            x       y       z     vdW  Elec       q    Type
REMARK                         _______ _______ _______ _____ _____    ______ ____
ROOT
ATOM      1  C   UNL     1       1.940   5.641  20.433  0.00  0.00    +0.000 A 
ATOM      2  N   UNL     1       0.851   4.823  20.651  0.00  0.00    +0.000 NA
ATOM      3  C   UNL     1       1.233   3.631  20.237  0.00  0.00    +0.000 A 
ATOM      4  N   UNL     1       2.522   3.644  19.816  0.00  0.00    +0.000 N 
ATOM      5  C   UNL     1       2.996   4.919  19.923  0.00  0.00    +0.000 A 
ATOM      6  C   UNL     1       4.353   5.317  19.507  0.00  0.00    +0.000 C 
ATOM      7  N   UNL     1       4.998   4.295  18.664  0.00  0.00    +0.000 NA
ATOM      8  C   UNL     1       4.695   2.858  18.882  0.00  0.00    +0.000 C 
ATOM      9  C   UNL     1       3.244   2.545  19.250  0.00  0.00    +0.000 C 
ENDROOT
BRANCH   7  10
ATOM     10  S   UNL     1       5.602   4.824  17.169  0.00  0.00    +0.000 S 
ATOM     11  O   UNL     1       6.414   3.752  16.603  0.00  0.00    +0.000 OA
ATOM     12  O   UNL     1       4.512   5.378  16.405  0.00  0.00    +0.000 OA
BRANCH  10  13
ATOM     13  C   UNL     1       6.711   6.161  17.572  0.00  0.00    +0.000 A 
ATOM     14  C   UNL     1       6.503   7.424  17.015  0.00  0.00    +0.000 A 
ATOM     15  C   UNL     1       7.310   8.501  17.390  0.00  0.00    +0.000 A 
ATOM     16  C   UNL     1       8.274   8.350  18.391  0.00  0.00    +0.000 A 
ATOM     17  C   UNL     1       9.053   9.542  18.866  0.00  0.00    +0.000 C 
ATOM     18  C   UNL     1       8.435   7.094  18.995  0.00  0.00    +0.000 A 
ATOM     19  C   UNL     1       7.674   5.996  18.578  0.00  0.00    +0.000 A 
ENDBRANCH  10  13
ENDBRANCH   7  10
BRANCH   1  20
ATOM     20  C   UNL     1       1.861   7.104  20.724  0.00  0.00    +0.000 C 
BRANCH  20  21
ATOM     21  O   UNL     1       0.617   7.427  21.358  0.00  0.00    +0.000 OA
BRANCH  21  23
ATOM     22  C   UNL     1      -0.332   9.250  22.572  0.00  0.00    +0.000 C 
ATOM     23  C   UNL     1       0.360   8.827  21.293  0.00  0.00    +0.000 C 
ENDBRANCH  21  23
ENDBRANCH  20  21
ENDBRANCH   1  20
TORSDOF 5
ENDMDL
MODEL 9
REMARK VINA RESULT:      -6.1      2.448      7.111
REMARK  Name = 
REMARK  7 active torsions:
REMARK  status: ('A' for Active; 'I' for Inactive)
REMARK    1  A    between atoms: C_1  and  C_2
REMARK    2  A    between atoms: C_2  and  O_3
REMARK    3  A    between atoms: O_3  and  C_4
REMARK    4  A    between atoms: C_4  and  C_5
REMARK    5  A    between atoms: N_11  and  S_12
REMARK    6  A    between atoms: S_12  and  C_15
REMARK    7  A    between atoms: C_18  and  C_19
REMARK                            x       y       z     vdW  Elec       q    Type
REMARK                         _______ _______ _______ _____ _____    ______ ____
ROOT
ATOM      1  C   UNL     1       1.774   5.058  20.306  0.00  0.00    +0.000 A 
ATOM      2  N   UNL     1       0.876   4.029  20.116  0.00  0.00    +0.000 NA
ATOM      3  C   UNL     1       1.508   3.163  19.349  0.00  0.00    +0.000 A 
ATOM      4  N   UNL     1       2.775   3.569  19.086  0.00  0.00    +0.000 N 
ATOM      5  C   UNL     1       2.970   4.782  19.680  0.00  0.00    +0.000 A 
ATOM      6  C   UNL     1       4.223   5.550  19.564  0.00  0.00    +0.000 C 
ATOM      7  N   UNL     1       5.086   5.044  18.482  0.00  0.00    +0.000 NA
ATOM      8  C   UNL     1       5.085   3.597  18.150  0.00  0.00    +0.000 C 
ATOM      9  C   UNL     1       3.724   2.906  18.243  0.00  0.00    +0.000 C 
ENDROOT
BRANCH   7  10
ATOM     10  S   UNL     1       5.600   6.183  17.335  0.00  0.00    +0.000 S 
ATOM     11  O   UNL     1       4.478   7.069  17.040  0.00  0.00    +0.000 OA
ATOM     12  O   UNL     1       6.856   6.739  17.771  0.00  0.00    +0.000 OA
BRANCH  10  13
ATOM     13  C   UNL     1       5.915   5.235  15.858  0.00  0.00    +0.000 A 
ATOM     14  C   UNL     1       4.846   4.694  15.141  0.00  0.00    +0.000 A 
ATOM     15  C   UNL     1       5.072   4.026  13.936  0.00  0.00    +0.000 A 
ATOM     16  C   UNL     1       6.357   3.968  13.387  0.00  0.00    +0.000 A 
ATOM     17  C   UNL     1       6.566   3.349  12.035  0.00  0.00    +0.000 C 
ATOM     18  C   UNL     1       7.419   4.570  14.078  0.00  0.00    +0.000 A 
ATOM     19  C   UNL     1       7.208   5.185  15.319  0.00  0.00    +0.000 A 
ENDBRANCH  10  13
ENDBRANCH   7  10
BRANCH   1  20
ATOM     20  C   UNL     1       1.384   6.273  21.084  0.00  0.00    +0.000 C 
BRANCH  20  21
ATOM     21  O   UNL     1       1.622   7.461  20.320  0.00  0.00    +0.000 OA
BRANCH  21  23
ATOM     22  C   UNL     1      -0.143   8.533  21.515  0.00  0.00    +0.000 C 
ATOM     23  C   UNL     1       1.303   8.625  21.076  0.00  0.00    +0.000 C 
ENDBRANCH  21  23
ENDBRANCH  20  21
ENDBRANCH   1  20
TORSDOF 5
ENDMDL
