MODEL 1
REMARK VINA RESULT:      -9.4      0.000      0.000
REMARK  Name = 
REMARK  3 active torsions:
REMARK  status: ('A' for Active; 'I' for Inactive)
REMARK    1  A    between atoms: C_1  and  N_2
REMARK    2  A    between atoms: C_5  and  C_6
REMARK    3  A    between atoms: C_14  and  C_16
REMARK                            x       y       z     vdW  Elec       q    Type
REMARK                         _______ _______ _______ _____ _____    ______ ____
ROOT
ATOM      1  C   UNL     1       2.423   5.371  20.024  0.00  0.00    +0.000 A 
ATOM      2  C   UNL     1       1.800   4.770  21.105  0.00  0.00    +0.000 A 
ATOM      3  N   UNL     1       1.963   3.416  21.003  0.00  0.00    +0.000 N 
ATOM      4  C   UNL     1       2.687   3.112  19.877  0.00  0.00    +0.000 A 
ATOM      5  C   UNL     1       3.113   1.899  19.345  0.00  0.00    +0.000 A 
ATOM      6  C   UNL     1       3.850   1.981  18.157  0.00  0.00    +0.000 A 
ATOM      7  C   UNL     1       4.110   3.225  17.573  0.00  0.00    +0.000 A 
ATOM      8  N   UNL     1       4.858   3.244  16.369  0.00  0.00    +0.000 N 
ATOM      9  C   UNL     1       5.173   4.412  15.698  0.00  0.00    +0.000 C 
ATOM     10  O   UNL     1       4.875   5.554  16.040  0.00  0.00    +0.000 OA
ATOM     11  N   UNL     1       3.684   4.381  18.099  0.00  0.00    +0.000 NA
ATOM     12  C   UNL     1       2.981   4.315  19.248  0.00  0.00    +0.000 A 
ATOM     13  H   UNL     1       1.609   2.738  21.659  0.00  0.00    +0.000 HD
ATOM     14  H   UNL     1       5.203   2.363  16.029  0.00  0.00    +0.000 HD
ENDROOT
BRANCH   1  19
ATOM     15  C   UNL     1       1.270  10.771  18.489  0.00  0.00    +0.000 C 
ATOM     16  N   UNL     1       1.271   9.341  18.799  0.00  0.00    +0.000 NA
ATOM     17  C   UNL     1       2.265   8.643  17.969  0.00  0.00    +0.000 C 
ATOM     18  C   UNL     1       2.257   7.141  18.244  0.00  0.00    +0.000 C 
ATOM     19  C   UNL     1       2.498   6.846  19.731  0.00  0.00    +0.000 C 
ATOM     20  C   UNL     1       1.504   7.644  20.587  0.00  0.00    +0.000 C 
ATOM     21  C   UNL     1       1.536   9.129  20.230  0.00  0.00    +0.000 C 
ENDBRANCH   1  19
BRANCH   9  22
ATOM     22  C   UNL     1       5.955   4.304  14.432  0.00  0.00    +0.000 A 
ATOM     23  C   UNL     1       5.555   3.533  13.332  0.00  0.00    +0.000 A 
ATOM     24  C   UNL     1       6.291   3.581  12.139  0.00  0.00    +0.000 A 
ATOM     25  C   UNL     1       7.423   4.392  12.043  0.00  0.00    +0.000 A 
ATOM     26  C   UNL     1       7.820   5.147  13.138  0.00  0.00    +0.000 A 
ATOM     27  F   UNL     1       8.895   5.939  13.042  0.00  0.00    +0.000 F 
ATOM     28  C   UNL     1       7.101   5.109  14.324  0.00  0.00    +0.000 A 
ENDBRANCH   9  22
TORSDOF 2
ENDMDL
MODEL 2
REMARK VINA RESULT:      -9.2      0.976      1.357
REMARK  Name = 
REMARK  3 active torsions:
REMARK  status: ('A' for Active; 'I' for Inactive)
REMARK    1  A    between atoms: C_1  and  N_2
REMARK    2  A    between atoms: C_5  and  C_6
REMARK    3  A    between atoms: C_14  and  C_16
REMARK                            x       y       z     vdW  Elec       q    Type
REMARK                         _______ _______ _______ _____ _____    ______ ____
ROOT
ATOM      1  C   UNL     1       2.415   5.289  20.085  0.00  0.00    +0.000 A 
ATOM      2  C   UNL     1       1.815   4.637  21.149  0.00  0.00    +0.000 A 
ATOM      3  N   UNL     1       2.007   3.291  20.999  0.00  0.00    +0.000 N 
ATOM      4  C   UNL     1       2.727   3.043  19.856  0.00  0.00    +0.000 A 
ATOM      5  C   UNL     1       3.176   1.859  19.279  0.00  0.00    +0.000 A 
ATOM      6  C   UNL     1       3.899   1.999  18.088  0.00  0.00    +0.000 A 
ATOM      7  C   UNL     1       4.127   3.268  17.547  0.00  0.00    +0.000 A 
ATOM      8  N   UNL     1       4.863   3.346  16.338  0.00  0.00    +0.000 N 
ATOM      9  C   UNL     1       5.146   4.543  15.705  0.00  0.00    +0.000 C 
ATOM     10  O   UNL     1       4.826   5.666  16.090  0.00  0.00    +0.000 OA
ATOM     11  N   UNL     1       3.680   4.395  18.116  0.00  0.00    +0.000 NA
ATOM     12  C   UNL     1       2.989   4.274  19.268  0.00  0.00    +0.000 A 
ATOM     13  H   UNL     1       1.674   2.583  21.634  0.00  0.00    +0.000 HD
ATOM     14  H   UNL     1       5.225   2.485  15.964  0.00  0.00    +0.000 HD
ENDROOT
BRANCH   1  19
ATOM     15  C   UNL     1       1.150  10.702  18.689  0.00  0.00    +0.000 C 
ATOM     16  N   UNL     1       1.184   9.263  18.951  0.00  0.00    +0.000 NA
ATOM     17  C   UNL     1       2.226   8.622  18.134  0.00  0.00    +0.000 C 
ATOM     18  C   UNL     1       2.255   7.112  18.359  0.00  0.00    +0.000 C 
ATOM     19  C   UNL     1       2.454   6.775  19.843  0.00  0.00    +0.000 C 
ATOM     20  C   UNL     1       1.408   7.514  20.690  0.00  0.00    +0.000 C 
ATOM     21  C   UNL     1       1.407   9.011  20.383  0.00  0.00    +0.000 C 
ENDBRANCH   1  19
BRANCH   9  22
ATOM     22  C   UNL     1       5.919   4.497  14.430  0.00  0.00    +0.000 A 
ATOM     23  C   UNL     1       7.098   5.221  14.207  0.00  0.00    +0.000 A 
ATOM     24  C   UNL     1       7.824   5.028  13.022  0.00  0.00    +0.000 A 
ATOM     25  C   UNL     1       7.377   4.120  12.062  0.00  0.00    +0.000 A 
ATOM     26  C   UNL     1       6.204   3.410  12.285  0.00  0.00    +0.000 A 
ATOM     27  F   UNL     1       5.783   2.525  11.373  0.00  0.00    +0.000 F 
ATOM     28  C   UNL     1       5.476   3.591  13.452  0.00  0.00    +0.000 A 
ENDBRANCH   9  22
TORSDOF 2
ENDMDL
MODEL 3
REMARK VINA RESULT:      -8.7      3.936      7.495
REMARK  Name = 
REMARK  3 active torsions:
REMARK  status: ('A' for Active; 'I' for Inactive)
REMARK    1  A    between atoms: C_1  and  N_2
REMARK    2  A    between atoms: C_5  and  C_6
REMARK    3  A    between atoms: C_14  and  C_16
REMARK                            x       y       z     vdW  Elec       q    Type
REMARK                         _______ _______ _______ _____ _____    ______ ____
ROOT
ATOM      1  C   UNL     1       4.143   3.266  18.127  0.00  0.00    +0.000 A 
ATOM      2  C   UNL     1       4.078   1.894  17.956  0.00  0.00    +0.000 A 
ATOM      3  N   UNL     1       2.951   1.431  18.579  0.00  0.00    +0.000 N 
ATOM      4  C   UNL     1       2.270   2.474  19.156  0.00  0.00    +0.000 A 
ATOM      5  C   UNL     1       1.086   2.521  19.885  0.00  0.00    +0.000 A 
ATOM      6  C   UNL     1       0.688   3.792  20.319  0.00  0.00    +0.000 A 
ATOM      7  C   UNL     1       1.467   4.915  20.019  0.00  0.00    +0.000 A 
ATOM      8  N   UNL     1       1.015   6.174  20.487  0.00  0.00    +0.000 N 
ATOM      9  C   UNL     1       1.702   7.352  20.259  0.00  0.00    +0.000 C 
ATOM     10  O   UNL     1       2.752   7.476  19.632  0.00  0.00    +0.000 OA
ATOM     11  N   UNL     1       2.608   4.845  19.320  0.00  0.00    +0.000 NA
ATOM     12  C   UNL     1       2.997   3.629  18.890  0.00  0.00    +0.000 A 
ATOM     13  H   UNL     1       2.660   0.467  18.609  0.00  0.00    +0.000 HD
ATOM     14  H   UNL     1       0.131   6.195  20.966  0.00  0.00    +0.000 HD
ENDROOT
BRANCH   1  19
ATOM     15  C   UNL     1       7.581   7.744  17.135  0.00  0.00    +0.000 C 
ATOM     16  N   UNL     1       6.569   6.790  17.592  0.00  0.00    +0.000 NA
ATOM     17  C   UNL     1       5.702   6.395  16.472  0.00  0.00    +0.000 C 
ATOM     18  C   UNL     1       4.611   5.431  16.932  0.00  0.00    +0.000 C 
ATOM     19  C   UNL     1       5.212   4.191  17.608  0.00  0.00    +0.000 C 
ATOM     20  C   UNL     1       6.177   4.622  18.722  0.00  0.00    +0.000 C 
ATOM     21  C   UNL     1       7.213   5.617  18.201  0.00  0.00    +0.000 C 
ENDBRANCH   1  19
BRANCH   9  22
ATOM     22  C   UNL     1       1.132   8.615  20.813  0.00  0.00    +0.000 A 
ATOM     23  C   UNL     1       0.859   9.751  20.041  0.00  0.00    +0.000 A 
ATOM     24  C   UNL     1       0.215  10.853  20.621  0.00  0.00    +0.000 A 
ATOM     25  C   UNL     1      -0.154  10.826  21.967  0.00  0.00    +0.000 A 
ATOM     26  C   UNL     1       0.126   9.700  22.730  0.00  0.00    +0.000 A 
ATOM     27  F   UNL     1      -0.243   9.664  24.017  0.00  0.00    +0.000 F 
ATOM     28  C   UNL     1       0.763   8.602  22.169  0.00  0.00    +0.000 A 
ENDBRANCH   9  22
TORSDOF 2
ENDMDL
MODEL 4
REMARK VINA RESULT:      -8.5      3.402      7.755
REMARK  Name = 
REMARK  3 active torsions:
REMARK  status: ('A' for Active; 'I' for Inactive)
REMARK    1  A    between atoms: C_1  and  N_2
REMARK    2  A    between atoms: C_5  and  C_6
REMARK    3  A    between atoms: C_14  and  C_16
REMARK                            x       y       z     vdW  Elec       q    Type
REMARK                         _______ _______ _______ _____ _____    ______ ____
ROOT
ATOM      1  C   UNL     1       3.960   3.218  17.814  0.00  0.00    +0.000 A 
ATOM      2  C   UNL     1       4.018   1.835  17.843  0.00  0.00    +0.000 A 
ATOM      3  N   UNL     1       3.191   1.385  18.836  0.00  0.00    +0.000 N 
ATOM      4  C   UNL     1       2.586   2.447  19.461  0.00  0.00    +0.000 A 
ATOM      5  C   UNL     1       1.673   2.512  20.509  0.00  0.00    +0.000 A 
ATOM      6  C   UNL     1       1.266   3.799  20.883  0.00  0.00    +0.000 A 
ATOM      7  C   UNL     1       1.777   4.920  20.221  0.00  0.00    +0.000 A 
ATOM      8  N   UNL     1       1.330   6.196  20.647  0.00  0.00    +0.000 N 
ATOM      9  C   UNL     1       1.768   7.376  20.073  0.00  0.00    +0.000 C 
ATOM     10  O   UNL     1       2.564   7.485  19.142  0.00  0.00    +0.000 OA
ATOM     11  N   UNL     1       2.661   4.835  19.218  0.00  0.00    +0.000 NA
ATOM     12  C   UNL     1       3.053   3.601  18.844  0.00  0.00    +0.000 A 
ATOM     13  H   UNL     1       3.043   0.418  19.074  0.00  0.00    +0.000 HD
ATOM     14  H   UNL     1       0.631   6.221  21.369  0.00  0.00    +0.000 HD
ENDROOT
BRANCH   1  19
ATOM     15  C   UNL     1       7.691   5.493  14.106  0.00  0.00    +0.000 C 
ATOM     16  N   UNL     1       6.916   4.660  15.026  0.00  0.00    +0.000 NA
ATOM     17  C   UNL     1       6.910   5.258  16.370  0.00  0.00    +0.000 C 
ATOM     18  C   UNL     1       6.142   4.386  17.360  0.00  0.00    +0.000 C 
ATOM     19  C   UNL     1       4.706   4.133  16.880  0.00  0.00    +0.000 C 
ATOM     20  C   UNL     1       4.726   3.584  15.446  0.00  0.00    +0.000 C 
ATOM     21  C   UNL     1       5.546   4.483  14.522  0.00  0.00    +0.000 C 
ENDBRANCH   1  19
BRANCH   9  22
ATOM     22  C   UNL     1       1.235   8.660  20.616  0.00  0.00    +0.000 A 
ATOM     23  C   UNL     1       1.030   9.808  19.839  0.00  0.00    +0.000 A 
ATOM     24  C   UNL     1       0.415  10.934  20.405  0.00  0.00    +0.000 A 
ATOM     25  C   UNL     1       0.009  10.919  21.740  0.00  0.00    +0.000 A 
ATOM     26  C   UNL     1       0.221   9.781  22.507  0.00  0.00    +0.000 A 
ATOM     27  F   UNL     1      -0.184   9.758  23.783  0.00  0.00    +0.000 F 
ATOM     28  C   UNL     1       0.829   8.660  21.960  0.00  0.00    +0.000 A 
ENDBRANCH   9  22
TORSDOF 2
ENDMDL
MODEL 5
REMARK VINA RESULT:      -8.4      3.694      7.326
REMARK  Name = 
REMARK  3 active torsions:
REMARK  status: ('A' for Active; 'I' for Inactive)
REMARK    1  A    between atoms: C_1  and  N_2
REMARK    2  A    between atoms: C_5  and  C_6
REMARK    3  A    between atoms: C_14  and  C_16
REMARK                            x       y       z     vdW  Elec       q    Type
REMARK                         _______ _______ _______ _____ _____    ______ ____
ROOT
ATOM      1  C   UNL     1       4.131   3.323  18.095  0.00  0.00    +0.000 A 
ATOM      2  C   UNL     1       4.114   1.955  17.890  0.00  0.00    +0.000 A 
ATOM      3  N   UNL     1       3.015   1.434  18.515  0.00  0.00    +0.000 N 
ATOM      4  C   UNL     1       2.303   2.436  19.128  0.00  0.00    +0.000 A 
ATOM      5  C   UNL     1       1.129   2.420  19.873  0.00  0.00    +0.000 A 
ATOM      6  C   UNL     1       0.690   3.663  20.344  0.00  0.00    +0.000 A 
ATOM      7  C   UNL     1       1.422   4.822  20.063  0.00  0.00    +0.000 A 
ATOM      8  N   UNL     1       0.929   6.051  20.569  0.00  0.00    +0.000 N 
ATOM      9  C   UNL     1       1.568   7.260  20.362  0.00  0.00    +0.000 C 
ATOM     10  O   UNL     1       2.605   7.439  19.725  0.00  0.00    +0.000 OA
ATOM     11  N   UNL     1       2.555   4.813  19.348  0.00  0.00    +0.000 NA
ATOM     12  C   UNL     1       2.982   3.623  18.882  0.00  0.00    +0.000 A 
ATOM     13  H   UNL     1       2.760   0.459  18.525  0.00  0.00    +0.000 HD
ATOM     14  H   UNL     1       0.052   6.027  21.060  0.00  0.00    +0.000 HD
ENDROOT
BRANCH   1  19
ATOM     15  C   UNL     1       7.502   7.888  17.288  0.00  0.00    +0.000 C 
ATOM     16  N   UNL     1       6.527   6.889  17.728  0.00  0.00    +0.000 NA
ATOM     17  C   UNL     1       5.562   6.614  16.653  0.00  0.00    +0.000 C 
ATOM     18  C   UNL     1       4.508   5.604  17.101  0.00  0.00    +0.000 C 
ATOM     19  C   UNL     1       5.157   4.300  17.586  0.00  0.00    +0.000 C 
ATOM     20  C   UNL     1       6.219   4.612  18.651  0.00  0.00    +0.000 C 
ATOM     21  C   UNL     1       7.213   5.659  18.150  0.00  0.00    +0.000 C 
ENDBRANCH   1  19
BRANCH   9  22
ATOM     22  C   UNL     1       0.960   8.486  20.956  0.00  0.00    +0.000 A 
ATOM     23  C   UNL     1       0.427   8.542  22.250  0.00  0.00    +0.000 A 
ATOM     24  C   UNL     1      -0.019   9.766  22.770  0.00  0.00    +0.000 A 
ATOM     25  C   UNL     1       0.062  10.929  22.003  0.00  0.00    +0.000 A 
ATOM     26  C   UNL     1       0.584  10.866  20.718  0.00  0.00    +0.000 A 
ATOM     27  F   UNL     1       0.680  11.984  19.987  0.00  0.00    +0.000 F 
ATOM     28  C   UNL     1       1.029   9.662  20.191  0.00  0.00    +0.000 A 
ENDBRANCH   9  22
TORSDOF 2
ENDMDL
MODEL 6
REMARK VINA RESULT:      -8.1      3.185      7.600
REMARK  Name = 
REMARK  3 active torsions:
REMARK  status: ('A' for Active; 'I' for Inactive)
REMARK    1  A    between atoms: C_1  and  N_2
REMARK    2  A    between atoms: C_5  and  C_6
REMARK    3  A    between atoms: C_14  and  C_16
REMARK                            x       y       z     vdW  Elec       q    Type
REMARK                         _______ _______ _______ _____ _____    ______ ____
ROOT
ATOM      1  C   UNL     1       4.278   4.446  18.216  0.00  0.00    +0.000 A 
ATOM      2  C   UNL     1       4.442   3.204  18.805  0.00  0.00    +0.000 A 
ATOM      3  N   UNL     1       3.673   3.154  19.935  0.00  0.00    +0.000 N 
ATOM      4  C   UNL     1       3.001   4.339  20.101  0.00  0.00    +0.000 A 
ATOM      5  C   UNL     1       2.108   4.774  21.075  0.00  0.00    +0.000 A 
ATOM      6  C   UNL     1       1.612   6.072  20.911  0.00  0.00    +0.000 A 
ATOM      7  C   UNL     1       2.021   6.851  19.823  0.00  0.00    +0.000 A 
ATOM      8  N   UNL     1       1.487   8.159  19.712  0.00  0.00    +0.000 N 
ATOM      9  C   UNL     1       1.821   9.023  18.684  0.00  0.00    +0.000 C 
ATOM     10  O   UNL     1       2.586   8.787  17.751  0.00  0.00    +0.000 OA
ATOM     11  N   UNL     1       2.888   6.415  18.900  0.00  0.00    +0.000 NA
ATOM     12  C   UNL     1       3.366   5.163  19.043  0.00  0.00    +0.000 A 
ATOM     13  H   UNL     1       3.604   2.362  20.555  0.00  0.00    +0.000 HD
ATOM     14  H   UNL     1       0.803   8.436  20.395  0.00  0.00    +0.000 HD
ENDROOT
BRANCH   1  19
ATOM     15  C   UNL     1       7.642   5.114  13.624  0.00  0.00    +0.000 C 
ATOM     16  N   UNL     1       6.958   4.693  14.847  0.00  0.00    +0.000 NA
ATOM     17  C   UNL     1       7.077   5.734  15.879  0.00  0.00    +0.000 C 
ATOM     18  C   UNL     1       6.406   5.302  17.181  0.00  0.00    +0.000 C 
ATOM     19  C   UNL     1       4.932   4.940  16.953  0.00  0.00    +0.000 C 
ATOM     20  C   UNL     1       4.818   3.912  15.817  0.00  0.00    +0.000 C 
ATOM     21  C   UNL     1       5.547   4.391  14.563  0.00  0.00    +0.000 C 
ENDBRANCH   1  19
BRANCH   9  22
ATOM     22  C   UNL     1       1.203  10.381  18.681  0.00  0.00    +0.000 A 
ATOM     23  C   UNL     1       1.933  11.569  18.548  0.00  0.00    +0.000 A 
ATOM     24  C   UNL     1       1.260  12.795  18.437  0.00  0.00    +0.000 A 
ATOM     25  C   UNL     1      -0.134  12.838  18.460  0.00  0.00    +0.000 A 
ATOM     26  C   UNL     1      -0.853  11.658  18.599  0.00  0.00    +0.000 A 
ATOM     27  F   UNL     1      -2.191  11.695  18.603  0.00  0.00    +0.000 F 
ATOM     28  C   UNL     1      -0.201  10.438  18.710  0.00  0.00    +0.000 A 
ENDBRANCH   9  22
TORSDOF 2
ENDMDL
MODEL 7
REMARK VINA RESULT:      -8.1      2.785      7.401
REMARK  Name = 
REMARK  3 active torsions:
REMARK  status: ('A' for Active; 'I' for Inactive)
REMARK    1  A    between atoms: C_1  and  N_2
REMARK    2  A    between atoms: C_5  and  C_6
REMARK    3  A    between atoms: C_14  and  C_16
REMARK                            x       y       z     vdW  Elec       q    Type
REMARK                         _______ _______ _______ _____ _____    ______ ____
ROOT
ATOM      1  C   UNL     1       4.272   4.499  18.124  0.00  0.00    +0.000 A 
ATOM      2  C   UNL     1       4.405   3.266  18.739  0.00  0.00    +0.000 A 
ATOM      3  N   UNL     1       3.637   3.260  19.871  0.00  0.00    +0.000 N 
ATOM      4  C   UNL     1       2.995   4.466  20.012  0.00  0.00    +0.000 A 
ATOM      5  C   UNL     1       2.115   4.943  20.977  0.00  0.00    +0.000 A 
ATOM      6  C   UNL     1       1.652   6.250  20.785  0.00  0.00    +0.000 A 
ATOM      7  C   UNL     1       2.079   6.995  19.681  0.00  0.00    +0.000 A 
ATOM      8  N   UNL     1       1.578   8.313  19.541  0.00  0.00    +0.000 N 
ATOM      9  C   UNL     1       1.933   9.146  18.495  0.00  0.00    +0.000 C 
ATOM     10  O   UNL     1       2.690   8.871  17.567  0.00  0.00    +0.000 OA
ATOM     11  N   UNL     1       2.933   6.517  18.766  0.00  0.00    +0.000 NA
ATOM     12  C   UNL     1       3.380   5.257  18.936  0.00  0.00    +0.000 A 
ATOM     13  H   UNL     1       3.549   2.484  20.508  0.00  0.00    +0.000 HD
ATOM     14  H   UNL     1       0.902   8.622  20.219  0.00  0.00    +0.000 HD
ENDROOT
BRANCH   1  19
ATOM     15  C   UNL     1       7.648   4.984  13.517  0.00  0.00    +0.000 C 
ATOM     16  N   UNL     1       6.954   4.608  14.750  0.00  0.00    +0.000 NA
ATOM     17  C   UNL     1       7.099   5.668  15.758  0.00  0.00    +0.000 C 
ATOM     18  C   UNL     1       6.418   5.282  17.069  0.00  0.00    +0.000 C 
ATOM     19  C   UNL     1       4.936   4.949  16.849  0.00  0.00    +0.000 C 
ATOM     20  C   UNL     1       4.798   3.898  15.738  0.00  0.00    +0.000 C 
ATOM     21  C   UNL     1       5.537   4.332  14.473  0.00  0.00    +0.000 C 
ENDBRANCH   1  19
BRANCH   9  22
ATOM     22  C   UNL     1       1.349  10.519  18.463  0.00  0.00    +0.000 A 
ATOM     23  C   UNL     1       0.019  10.807  18.798  0.00  0.00    +0.000 A 
ATOM     24  C   UNL     1      -0.414  12.140  18.853  0.00  0.00    +0.000 A 
ATOM     25  C   UNL     1       0.471  13.181  18.573  0.00  0.00    +0.000 A 
ATOM     26  C   UNL     1       1.786  12.889  18.234  0.00  0.00    +0.000 A 
ATOM     27  F   UNL     1       2.642  13.887  17.982  0.00  0.00    +0.000 F 
ATOM     28  C   UNL     1       2.228  11.575  18.175  0.00  0.00    +0.000 A 
ENDBRANCH   9  22
TORSDOF 2
ENDMDL
MODEL 8
REMARK VINA RESULT:      -8.0      2.977      7.538
REMARK  Name = 
REMARK  3 active torsions:
REMARK  status: ('A' for Active; 'I' for Inactive)
REMARK    1  A    between atoms: C_1  and  N_2
REMARK    2  A    between atoms: C_5  and  C_6
REMARK    3  A    between atoms: C_14  and  C_16
REMARK                            x       y       z     vdW  Elec       q    Type
REMARK                         _______ _______ _______ _____ _____    ______ ____
ROOT
ATOM      1  C   UNL     1       3.981   3.229  17.859  0.00  0.00    +0.000 A 
ATOM      2  C   UNL     1       4.053   1.848  17.900  0.00  0.00    +0.000 A 
ATOM      3  N   UNL     1       3.212   1.397  18.880  0.00  0.00    +0.000 N 
ATOM      4  C   UNL     1       2.583   2.457  19.486  0.00  0.00    +0.000 A 
ATOM      5  C   UNL     1       1.650   2.520  20.515  0.00  0.00    +0.000 A 
ATOM      6  C   UNL     1       1.221   3.804  20.871  0.00  0.00    +0.000 A 
ATOM      7  C   UNL     1       1.733   4.926  20.210  0.00  0.00    +0.000 A 
ATOM      8  N   UNL     1       1.264   6.200  20.616  0.00  0.00    +0.000 N 
ATOM      9  C   UNL     1       1.700   7.381  20.042  0.00  0.00    +0.000 C 
ATOM     10  O   UNL     1       2.512   7.491  19.126  0.00  0.00    +0.000 OA
ATOM     11  N   UNL     1       2.637   4.843  19.225  0.00  0.00    +0.000 NA
ATOM     12  C   UNL     1       3.050   3.611  18.868  0.00  0.00    +0.000 A 
ATOM     13  H   UNL     1       3.070   0.429  19.123  0.00  0.00    +0.000 HD
ATOM     14  H   UNL     1       0.550   6.223  21.324  0.00  0.00    +0.000 HD
ENDROOT
BRANCH   1  19
ATOM     15  C   UNL     1       7.747   5.510  14.189  0.00  0.00    +0.000 C 
ATOM     16  N   UNL     1       6.963   4.676  15.102  0.00  0.00    +0.000 NA
ATOM     17  C   UNL     1       6.943   5.275  16.445  0.00  0.00    +0.000 C 
ATOM     18  C   UNL     1       6.165   4.402  17.427  0.00  0.00    +0.000 C 
ATOM     19  C   UNL     1       4.735   4.146  16.932  0.00  0.00    +0.000 C 
ATOM     20  C   UNL     1       4.771   3.596  15.499  0.00  0.00    +0.000 C 
ATOM     21  C   UNL     1       5.599   4.496  14.583  0.00  0.00    +0.000 C 
ENDBRANCH   1  19
BRANCH   9  22
ATOM     22  C   UNL     1       1.142   8.662  20.564  0.00  0.00    +0.000 A 
ATOM     23  C   UNL     1       0.795   8.872  21.905  0.00  0.00    +0.000 A 
ATOM     24  C   UNL     1       0.388  10.145  22.331  0.00  0.00    +0.000 A 
ATOM     25  C   UNL     1       0.324  11.204  21.425  0.00  0.00    +0.000 A 
ATOM     26  C   UNL     1       0.662  10.989  20.096  0.00  0.00    +0.000 A 
ATOM     27  F   UNL     1       0.619  12.008  19.229  0.00  0.00    +0.000 F 
ATOM     28  C   UNL     1       1.066   9.735  19.660  0.00  0.00    +0.000 A 
ENDBRANCH   9  22
TORSDOF 2
ENDMDL
MODEL 9
REMARK VINA RESULT:      -7.9      3.804      6.997
REMARK  Name = 
REMARK  3 active torsions:
REMARK  status: ('A' for Active; 'I' for Inactive)
REMARK    1  A    between atoms: C_1  and  N_2
REMARK    2  A    between atoms: C_5  and  C_6
REMARK    3  A    between atoms: C_14  and  C_16
REMARK                            x       y       z     vdW  Elec       q    Type
REMARK                         _______ _______ _______ _____ _____    ______ ____
ROOT
ATOM      1  C   UNL     1       0.224  12.471  20.912  0.00  0.00    +0.000 A 
ATOM      2  C   UNL     1      -0.525  12.954  21.971  0.00  0.00    +0.000 A 
ATOM      3  N   UNL     1      -0.865  11.903  22.778  0.00  0.00    +0.000 N 
ATOM      4  C   UNL     1      -0.350  10.735  22.272  0.00  0.00    +0.000 A 
ATOM      5  C   UNL     1      -0.412   9.420  22.721  0.00  0.00    +0.000 A 
ATOM      6  C   UNL     1       0.250   8.474  21.930  0.00  0.00    +0.000 A 
ATOM      7  C   UNL     1       0.916   8.872  20.765  0.00  0.00    +0.000 A 
ATOM      8  N   UNL     1       1.566   7.868  20.004  0.00  0.00    +0.000 N 
ATOM      9  C   UNL     1       2.250   8.138  18.832  0.00  0.00    +0.000 C 
ATOM     10  O   UNL     1       2.399   9.242  18.311  0.00  0.00    +0.000 OA
ATOM     11  N   UNL     1       0.958  10.143  20.348  0.00  0.00    +0.000 NA
ATOM     12  C   UNL     1       0.330  11.064  21.106  0.00  0.00    +0.000 A 
ATOM     13  H   UNL     1      -1.410  11.972  23.623  0.00  0.00    +0.000 HD
ATOM     14  H   UNL     1       1.556   6.933  20.372  0.00  0.00    +0.000 HD
ENDROOT
BRANCH   1  19
ATOM     15  C   UNL     1       3.000  16.362  17.748  0.00  0.00    +0.000 C 
ATOM     16  N   UNL     1       2.398  15.534  18.794  0.00  0.00    +0.000 NA
ATOM     17  C   UNL     1       0.934  15.538  18.666  0.00  0.00    +0.000 C 
ATOM     18  C   UNL     1       0.279  14.713  19.771  0.00  0.00    +0.000 C 
ATOM     19  C   UNL     1       0.812  13.274  19.782  0.00  0.00    +0.000 C 
ATOM     20  C   UNL     1       2.347  13.288  19.836  0.00  0.00    +0.000 C 
ATOM     21  C   UNL     1       2.930  14.164  18.728  0.00  0.00    +0.000 C 
ENDBRANCH   1  19
BRANCH   9  22
ATOM     22  C   UNL     1       2.885   6.997  18.112  0.00  0.00    +0.000 A 
ATOM     23  C   UNL     1       4.093   7.094  17.409  0.00  0.00    +0.000 A 
ATOM     24  C   UNL     1       4.677   5.943  16.859  0.00  0.00    +0.000 A 
ATOM     25  C   UNL     1       4.059   4.701  17.006  0.00  0.00    +0.000 A 
ATOM     26  C   UNL     1       2.858   4.611  17.696  0.00  0.00    +0.000 A 
ATOM     27  F   UNL     1       2.272   3.418  17.854  0.00  0.00    +0.000 F 
ATOM     28  C   UNL     1       2.268   5.742  18.245  0.00  0.00    +0.000 A 
ENDBRANCH   9  22
TORSDOF 2
ENDMDL
