MODEL 1
REMARK VINA RESULT:      -7.1      0.000      0.000
REMARK  Name = 
REMARK  8 active torsions:
REMARK  status: ('A' for Active; 'I' for Inactive)
REMARK    1  A    between atoms: C_1  and  C_2
REMARK    2  A    between atoms: C_2  and  N_3
REMARK    3  A    between atoms: C_9  and  C_10
REMARK    4  A    between atoms: C_10  and  C_11
REMARK    5  A    between atoms: N_13  and  C_14
REMARK    6  A    between atoms: C_17  and  C_18
REMARK    7  A    between atoms: C_18  and  C_19
REMARK    8  A    between atoms: C_18  and  C_20
REMARK                            x       y       z     vdW  Elec       q    Type
REMARK                         _______ _______ _______ _____ _____    ______ ____
ROOT
ATOM      1  C   UNL     1       7.927   8.329  17.931  0.00  0.00    +0.000 C 
ATOM      2  O   UNL     1       7.274   9.013  17.151  0.00  0.00    +0.000 OA
ATOM      3  N   UNL     1       8.912   8.773  18.798  0.00  0.00    +0.000 N 
ATOM      4  H   UNL     1       9.540   8.079  19.185  0.00  0.00    +0.000 HD
ENDROOT
BRANCH   3   5
ATOM      5  C   UNL     1       9.202  10.109  19.123  0.00  0.00    +0.000 A 
ATOM      6  C   UNL     1       9.291  10.569  20.436  0.00  0.00    +0.000 A 
ATOM      7  C   UNL     1       9.650  11.891  20.695  0.00  0.00    +0.000 A 
ATOM      8  C   UNL     1       9.919  12.782  19.649  0.00  0.00    +0.000 A 
ATOM      9  C   UNL     1       9.797  12.324  18.332  0.00  0.00    +0.000 A 
ATOM     10  C   UNL     1       9.459  10.992  18.069  0.00  0.00    +0.000 A 
BRANCH   8  11
ATOM     11  C   UNL     1      10.379  14.194  19.964  0.00  0.00    +0.000 C 
ATOM     12  C   UNL     1      10.077  14.550  21.421  0.00  0.00    +0.000 C 
ATOM     13  C   UNL     1      11.858  14.400  19.637  0.00  0.00    +0.000 C 
ENDBRANCH   8  11
ENDBRANCH   3   5
BRANCH   1  14
ATOM     14  C   UNL     1       7.823   6.817  17.983  0.00  0.00    +0.000 C 
BRANCH  14  21
ATOM     15  N   UNL     1       5.909   5.647  16.748  0.00  0.00    +0.000 NA
ATOM     16  C   UNL     1       5.051   4.478  16.989  0.00  0.00    +0.000 C 
ATOM     17  C   UNL     1       4.173   4.698  18.215  0.00  0.00    +0.000 C 
ATOM     18  O   UNL     1       4.987   4.775  19.392  0.00  0.00    +0.000 OA
ATOM     19  C   UNL     1       6.205   5.373  19.265  0.00  0.00    +0.000 C 
ATOM     20  O   UNL     1       7.075   5.188  20.113  0.00  0.00    +0.000 OA
ATOM     21  C   UNL     1       6.380   6.290  18.028  0.00  0.00    +0.000 C 
BRANCH  15  23
ATOM     22  C   UNL     1       6.518   4.309  14.724  0.00  0.00    +0.000 C 
ATOM     23  C   UNL     1       6.915   5.402  15.711  0.00  0.00    +0.000 C 
ENDBRANCH  15  23
ENDBRANCH  14  21
ENDBRANCH   1  14
TORSDOF 5
ENDMDL
MODEL 2
REMARK VINA RESULT:      -7.0      6.949      8.269
REMARK  Name = 
REMARK  8 active torsions:
REMARK  status: ('A' for Active; 'I' for Inactive)
REMARK    1  A    between atoms: C_1  and  C_2
REMARK    2  A    between atoms: C_2  and  N_3
REMARK    3  A    between atoms: C_9  and  C_10
REMARK    4  A    between atoms: C_10  and  C_11
REMARK    5  A    between atoms: N_13  and  C_14
REMARK    6  A    between atoms: C_17  and  C_18
REMARK    7  A    between atoms: C_18  and  C_19
REMARK    8  A    between atoms: C_18  and  C_20
REMARK                            x       y       z     vdW  Elec       q    Type
REMARK                         _______ _______ _______ _____ _____    ______ ____
ROOT
ATOM      1  C   UNL     1       2.129   7.417  19.819  0.00  0.00    +0.000 C 
ATOM      2  O   UNL     1       2.209   8.100  18.804  0.00  0.00    +0.000 OA
ATOM      3  N   UNL     1       1.576   7.796  21.031  0.00  0.00    +0.000 N 
ATOM      4  H   UNL     1       1.810   7.239  21.844  0.00  0.00    +0.000 HD
ENDROOT
BRANCH   3   5
ATOM      5  C   UNL     1       0.799   8.941  21.277  0.00  0.00    +0.000 A 
ATOM      6  C   UNL     1       0.331   9.773  20.261  0.00  0.00    +0.000 A 
ATOM      7  C   UNL     1      -0.494  10.856  20.562  0.00  0.00    +0.000 A 
ATOM      8  C   UNL     1      -0.861  11.134  21.886  0.00  0.00    +0.000 A 
ATOM      9  C   UNL     1      -0.362  10.315  22.905  0.00  0.00    +0.000 A 
ATOM     10  C   UNL     1       0.447   9.214  22.602  0.00  0.00    +0.000 A 
BRANCH   8  11
ATOM     11  C   UNL     1      -1.818  12.275  22.175  0.00  0.00    +0.000 C 
ATOM     12  C   UNL     1      -2.624  12.639  20.926  0.00  0.00    +0.000 C 
ATOM     13  C   UNL     1      -2.738  11.965  23.357  0.00  0.00    +0.000 C 
ENDBRANCH   8  11
ENDBRANCH   3   5
BRANCH   1  14
ATOM     14  C   UNL     1       2.748   6.038  19.931  0.00  0.00    +0.000 C 
BRANCH  14  21
ATOM     15  N   UNL     1       2.180   4.318  18.120  0.00  0.00    +0.000 NA
ATOM     16  C   UNL     1       1.984   2.863  18.066  0.00  0.00    +0.000 C 
ATOM     17  C   UNL     1       0.767   2.454  18.887  0.00  0.00    +0.000 C 
ATOM     18  O   UNL     1       1.002   2.716  20.276  0.00  0.00    +0.000 OA
ATOM     19  C   UNL     1       1.733   3.825  20.581  0.00  0.00    +0.000 C 
ATOM     20  O   UNL     1       2.251   3.938  21.690  0.00  0.00    +0.000 OA
ATOM     21  C   UNL     1       1.827   4.899  19.466  0.00  0.00    +0.000 C 
BRANCH  15  23
ATOM     22  C   UNL     1       4.530   3.660  17.571  0.00  0.00    +0.000 C 
ATOM     23  C   UNL     1       3.451   4.738  17.522  0.00  0.00    +0.000 C 
ENDBRANCH  15  23
ENDBRANCH  14  21
ENDBRANCH   1  14
TORSDOF 5
ENDMDL
MODEL 3
REMARK VINA RESULT:      -7.0      6.183      9.171
REMARK  Name = 
REMARK  8 active torsions:
REMARK  status: ('A' for Active; 'I' for Inactive)
REMARK    1  A    between atoms: C_1  and  C_2
REMARK    2  A    between atoms: C_2  and  N_3
REMARK    3  A    between atoms: C_9  and  C_10
REMARK    4  A    between atoms: C_10  and  C_11
REMARK    5  A    between atoms: N_13  and  C_14
REMARK    6  A    between atoms: C_17  and  C_18
REMARK    7  A    between atoms: C_18  and  C_19
REMARK    8  A    between atoms: C_18  and  C_20
REMARK                            x       y       z     vdW  Elec       q    Type
REMARK                         _______ _______ _______ _____ _____    ______ ____
ROOT
ATOM      1  C   UNL     1       1.766   9.000  18.364  0.00  0.00    +0.000 C 
ATOM      2  O   UNL     1       2.006   9.570  17.306  0.00  0.00    +0.000 OA
ATOM      3  N   UNL     1       2.119   7.705  18.707  0.00  0.00    +0.000 N 
ATOM      4  H   UNL     1       1.638   7.283  19.491  0.00  0.00    +0.000 HD
ENDROOT
BRANCH   3   5
ATOM      5  C   UNL     1       3.010   6.869  18.014  0.00  0.00    +0.000 A 
ATOM      6  C   UNL     1       4.127   7.348  17.331  0.00  0.00    +0.000 A 
ATOM      7  C   UNL     1       5.013   6.462  16.721  0.00  0.00    +0.000 A 
ATOM      8  C   UNL     1       4.797   5.078  16.772  0.00  0.00    +0.000 A 
ATOM      9  C   UNL     1       3.657   4.604  17.430  0.00  0.00    +0.000 A 
ATOM     10  C   UNL     1       2.778   5.490  18.064  0.00  0.00    +0.000 A 
BRANCH   8  11
ATOM     11  C   UNL     1       5.816   4.136  16.161  0.00  0.00    +0.000 C 
ATOM     12  C   UNL     1       5.719   4.145  14.634  0.00  0.00    +0.000 C 
ATOM     13  C   UNL     1       7.238   4.450  16.628  0.00  0.00    +0.000 C 
ENDBRANCH   8  11
ENDBRANCH   3   5
BRANCH   1  14
ATOM     14  C   UNL     1       0.916   9.620  19.456  0.00  0.00    +0.000 C 
BRANCH  14  21
ATOM     15  N   UNL     1      -0.728  11.356  18.538  0.00  0.00    +0.000 NA
ATOM     16  C   UNL     1      -1.421  12.540  19.065  0.00  0.00    +0.000 C 
ATOM     17  C   UNL     1      -0.421  13.629  19.434  0.00  0.00    +0.000 C 
ATOM     18  O   UNL     1       0.394  13.194  20.530  0.00  0.00    +0.000 OA
ATOM     19  C   UNL     1       0.725  11.873  20.568  0.00  0.00    +0.000 C 
ATOM     20  O   UNL     1       1.124  11.366  21.615  0.00  0.00    +0.000 OA
ATOM     21  C   UNL     1       0.589  11.104  19.229  0.00  0.00    +0.000 C 
BRANCH  15  23
ATOM     22  C   UNL     1      -2.090  10.015  16.926  0.00  0.00    +0.000 C 
ATOM     23  C   UNL     1      -1.624  10.209  18.365  0.00  0.00    +0.000 C 
ENDBRANCH  15  23
ENDBRANCH  14  21
ENDBRANCH   1  14
TORSDOF 5
ENDMDL
MODEL 4
REMARK VINA RESULT:      -6.9      0.289      1.065
REMARK  Name = 
REMARK  8 active torsions:
REMARK  status: ('A' for Active; 'I' for Inactive)
REMARK    1  A    between atoms: C_1  and  C_2
REMARK    2  A    between atoms: C_2  and  N_3
REMARK    3  A    between atoms: C_9  and  C_10
REMARK    4  A    between atoms: C_10  and  C_11
REMARK    5  A    between atoms: N_13  and  C_14
REMARK    6  A    between atoms: C_17  and  C_18
REMARK    7  A    between atoms: C_18  and  C_19
REMARK    8  A    between atoms: C_18  and  C_20
REMARK                            x       y       z     vdW  Elec       q    Type
REMARK                         _______ _______ _______ _____ _____    ______ ____
ROOT
ATOM      1  C   UNL     1       7.871   8.245  17.908  0.00  0.00    +0.000 C 
ATOM      2  O   UNL     1       7.188   8.934  17.159  0.00  0.00    +0.000 OA
ATOM      3  N   UNL     1       8.888   8.683  18.741  0.00  0.00    +0.000 N 
ATOM      4  H   UNL     1       9.530   7.987  19.099  0.00  0.00    +0.000 HD
ENDROOT
BRANCH   3   5
ATOM      5  C   UNL     1       9.189  10.017  19.065  0.00  0.00    +0.000 A 
ATOM      6  C   UNL     1       9.370  11.010  18.104  0.00  0.00    +0.000 A 
ATOM      7  C   UNL     1       9.598  12.330  18.490  0.00  0.00    +0.000 A 
ATOM      8  C   UNL     1       9.658  12.683  19.845  0.00  0.00    +0.000 A 
ATOM      9  C   UNL     1       9.508  11.677  20.806  0.00  0.00    +0.000 A 
ATOM     10  C   UNL     1       9.256  10.356  20.421  0.00  0.00    +0.000 A 
BRANCH   8  11
ATOM     11  C   UNL     1       9.835  14.139  20.234  0.00  0.00    +0.000 C 
ATOM     12  C   UNL     1       9.531  14.346  21.719  0.00  0.00    +0.000 C 
ATOM     13  C   UNL     1      11.227  14.662  19.875  0.00  0.00    +0.000 C 
ENDBRANCH   8  11
ENDBRANCH   3   5
BRANCH   1  14
ATOM     14  C   UNL     1       7.770   6.733  17.953  0.00  0.00    +0.000 C 
BRANCH  14  21
ATOM     15  N   UNL     1       5.897   5.515  16.700  0.00  0.00    +0.000 NA
ATOM     16  C   UNL     1       5.036   4.351  16.954  0.00  0.00    +0.000 C 
ATOM     17  C   UNL     1       4.120   4.609  18.145  0.00  0.00    +0.000 C 
ATOM     18  O   UNL     1       4.898   4.728  19.343  0.00  0.00    +0.000 OA
ATOM     19  C   UNL     1       6.118   5.325  19.233  0.00  0.00    +0.000 C 
ATOM     20  O   UNL     1       6.962   5.172  20.112  0.00  0.00    +0.000 OA
ATOM     21  C   UNL     1       6.327   6.202  17.971  0.00  0.00    +0.000 C 
BRANCH  15  23
ATOM     22  C   UNL     1       6.487   4.276  14.609  0.00  0.00    +0.000 C 
ATOM     23  C   UNL     1       6.935   5.240  15.703  0.00  0.00    +0.000 C 
ENDBRANCH  15  23
ENDBRANCH  14  21
ENDBRANCH   1  14
TORSDOF 5
ENDMDL
MODEL 5
REMARK VINA RESULT:      -6.9      6.752      7.812
REMARK  Name = 
REMARK  8 active torsions:
REMARK  status: ('A' for Active; 'I' for Inactive)
REMARK    1  A    between atoms: C_1  and  C_2
REMARK    2  A    between atoms: C_2  and  N_3
REMARK    3  A    between atoms: C_9  and  C_10
REMARK    4  A    between atoms: C_10  and  C_11
REMARK    5  A    between atoms: N_13  and  C_14
REMARK    6  A    between atoms: C_17  and  C_18
REMARK    7  A    between atoms: C_18  and  C_19
REMARK    8  A    between atoms: C_18  and  C_20
REMARK                            x       y       z     vdW  Elec       q    Type
REMARK                         _______ _______ _______ _____ _____    ______ ____
ROOT
ATOM      1  C   UNL     1       2.434   7.237  19.271  0.00  0.00    +0.000 C 
ATOM      2  O   UNL     1       2.364   7.956  18.282  0.00  0.00    +0.000 OA
ATOM      3  N   UNL     1       1.974   7.533  20.544  0.00  0.00    +0.000 N 
ATOM      4  H   UNL     1       2.327   6.970  21.310  0.00  0.00    +0.000 HD
ENDROOT
BRANCH   3   5
ATOM      5  C   UNL     1       1.141   8.605  20.907  0.00  0.00    +0.000 A 
ATOM      6  C   UNL     1       0.689   8.809  22.209  0.00  0.00    +0.000 A 
ATOM      7  C   UNL     1      -0.079   9.929  22.520  0.00  0.00    +0.000 A 
ATOM      8  C   UNL     1      -0.419  10.866  21.534  0.00  0.00    +0.000 A 
ATOM      9  C   UNL     1       0.010  10.639  20.221  0.00  0.00    +0.000 A 
ATOM     10  C   UNL     1       0.801   9.527  19.911  0.00  0.00    +0.000 A 
BRANCH   8  11
ATOM     11  C   UNL     1      -1.194  12.112  21.917  0.00  0.00    +0.000 C 
ATOM     12  C   UNL     1      -1.978  12.654  20.720  0.00  0.00    +0.000 C 
ATOM     13  C   UNL     1      -2.109  11.870  23.117  0.00  0.00    +0.000 C 
ENDBRANCH   8  11
ENDBRANCH   3   5
BRANCH   1  14
ATOM     14  C   UNL     1       3.163   5.908  19.271  0.00  0.00    +0.000 C 
BRANCH  14  21
ATOM     15  N   UNL     1       2.970   3.724  17.947  0.00  0.00    +0.000 NA
ATOM     16  C   UNL     1       2.594   2.335  18.244  0.00  0.00    +0.000 C 
ATOM     17  C   UNL     1       1.131   2.252  18.664  0.00  0.00    +0.000 C 
ATOM     18  O   UNL     1       0.940   2.933  19.911  0.00  0.00    +0.000 OA
ATOM     19  C   UNL     1       1.685   4.054  20.124  0.00  0.00    +0.000 C 
ATOM     20  O   UNL     1       1.826   4.494  21.263  0.00  0.00    +0.000 OA
ATOM     21  C   UNL     1       2.288   4.714  18.857  0.00  0.00    +0.000 C 
BRANCH  15  23
ATOM     22  C   UNL     1       4.789   4.205  16.299  0.00  0.00    +0.000 C 
ATOM     23  C   UNL     1       4.412   3.885  17.742  0.00  0.00    +0.000 C 
ENDBRANCH  15  23
ENDBRANCH  14  21
ENDBRANCH   1  14
TORSDOF 5
ENDMDL
MODEL 6
REMARK VINA RESULT:      -6.8      6.913      8.082
REMARK  Name = 
REMARK  8 active torsions:
REMARK  status: ('A' for Active; 'I' for Inactive)
REMARK    1  A    between atoms: C_1  and  C_2
REMARK    2  A    between atoms: C_2  and  N_3
REMARK    3  A    between atoms: C_9  and  C_10
REMARK    4  A    between atoms: C_10  and  C_11
REMARK    5  A    between atoms: N_13  and  C_14
REMARK    6  A    between atoms: C_17  and  C_18
REMARK    7  A    between atoms: C_18  and  C_19
REMARK    8  A    between atoms: C_18  and  C_20
REMARK                            x       y       z     vdW  Elec       q    Type
REMARK                         _______ _______ _______ _____ _____    ______ ____
ROOT
ATOM      1  C   UNL     1       1.962   7.595  19.822  0.00  0.00    +0.000 C 
ATOM      2  O   UNL     1       1.893   8.295  18.818  0.00  0.00    +0.000 OA
ATOM      3  N   UNL     1       1.489   7.910  21.085  0.00  0.00    +0.000 N 
ATOM      4  H   UNL     1       1.841   7.366  21.864  0.00  0.00    +0.000 HD
ENDROOT
BRANCH   3   5
ATOM      5  C   UNL     1       0.642   8.980  21.421  0.00  0.00    +0.000 A 
ATOM      6  C   UNL     1       0.042   9.110  22.672  0.00  0.00    +0.000 A 
ATOM      7  C   UNL     1      -0.733  10.230  22.968  0.00  0.00    +0.000 A 
ATOM      8  C   UNL     1      -0.931  11.240  22.016  0.00  0.00    +0.000 A 
ATOM      9  C   UNL     1      -0.354  11.089  20.751  0.00  0.00    +0.000 A 
ATOM     10  C   UNL     1       0.444   9.976  20.459  0.00  0.00    +0.000 A 
BRANCH   8  11
ATOM     11  C   UNL     1      -1.719  12.481  22.392  0.00  0.00    +0.000 C 
ATOM     12  C   UNL     1      -2.818  12.142  23.402  0.00  0.00    +0.000 C 
ATOM     13  C   UNL     1      -0.813  13.598  22.911  0.00  0.00    +0.000 C 
ENDBRANCH   8  11
ENDBRANCH   3   5
BRANCH   1  14
ATOM     14  C   UNL     1       2.704   6.274  19.852  0.00  0.00    +0.000 C 
BRANCH  14  21
ATOM     15  N   UNL     1       2.297   4.528  18.023  0.00  0.00    +0.000 NA
ATOM     16  C   UNL     1       2.200   3.063  17.960  0.00  0.00    +0.000 C 
ATOM     17  C   UNL     1       0.993   2.570  18.750  0.00  0.00    +0.000 C 
ATOM     18  O   UNL     1       1.177   2.842  20.145  0.00  0.00    +0.000 OA
ATOM     19  C   UNL     1       1.825   3.995  20.470  0.00  0.00    +0.000 C 
ATOM     20  O   UNL     1       2.306   4.138  21.592  0.00  0.00    +0.000 OA
ATOM     21  C   UNL     1       1.874   5.078  19.361  0.00  0.00    +0.000 C 
BRANCH  15  23
ATOM     22  C   UNL     1       4.691   4.020  17.506  0.00  0.00    +0.000 C 
ATOM     23  C   UNL     1       3.552   5.034  17.458  0.00  0.00    +0.000 C 
ENDBRANCH  15  23
ENDBRANCH  14  21
ENDBRANCH   1  14
TORSDOF 5
ENDMDL
MODEL 7
REMARK VINA RESULT:      -6.8      6.471      8.281
REMARK  Name = 
REMARK  8 active torsions:
REMARK  status: ('A' for Active; 'I' for Inactive)
REMARK    1  A    between atoms: C_1  and  C_2
REMARK    2  A    between atoms: C_2  and  N_3
REMARK    3  A    between atoms: C_9  and  C_10
REMARK    4  A    between atoms: C_10  and  C_11
REMARK    5  A    between atoms: N_13  and  C_14
REMARK    6  A    between atoms: C_17  and  C_18
REMARK    7  A    between atoms: C_18  and  C_19
REMARK    8  A    between atoms: C_18  and  C_20
REMARK                            x       y       z     vdW  Elec       q    Type
REMARK                         _______ _______ _______ _____ _____    ______ ____
ROOT
ATOM      1  C   UNL     1       1.799   7.341  20.253  0.00  0.00    +0.000 C 
ATOM      2  O   UNL     1       2.127   8.068  19.322  0.00  0.00    +0.000 OA
ATOM      3  N   UNL     1       1.105   7.716  21.392  0.00  0.00    +0.000 N 
ATOM      4  H   UNL     1       1.132   7.084  22.183  0.00  0.00    +0.000 HD
ENDROOT
BRANCH   3   5
ATOM      5  C   UNL     1       0.443   8.937  21.606  0.00  0.00    +0.000 A 
ATOM      6  C   UNL     1       0.115   9.814  20.574  0.00  0.00    +0.000 A 
ATOM      7  C   UNL     1      -0.604  10.978  20.841  0.00  0.00    +0.000 A 
ATOM      8  C   UNL     1      -1.002  11.294  22.147  0.00  0.00    +0.000 A 
ATOM      9  C   UNL     1      -0.642  10.426  23.184  0.00  0.00    +0.000 A 
ATOM     10  C   UNL     1       0.059   9.245  22.915  0.00  0.00    +0.000 A 
BRANCH   8  11
ATOM     11  C   UNL     1      -1.846  12.530  22.397  0.00  0.00    +0.000 C 
ATOM     12  C   UNL     1      -3.010  12.213  23.338  0.00  0.00    +0.000 C 
ATOM     13  C   UNL     1      -1.009  13.697  22.923  0.00  0.00    +0.000 C 
ENDBRANCH   8  11
ENDBRANCH   3   5
BRANCH   1  14
ATOM     14  C   UNL     1       2.219   5.888  20.347  0.00  0.00    +0.000 C 
BRANCH  14  21
ATOM     15  N   UNL     1       3.691   4.923  18.486  0.00  0.00    +0.000 NA
ATOM     16  C   UNL     1       3.825   3.628  17.806  0.00  0.00    +0.000 C 
ATOM     17  C   UNL     1       2.559   3.295  17.026  0.00  0.00    +0.000 C 
ATOM     18  O   UNL     1       1.465   3.096  17.931  0.00  0.00    +0.000 OA
ATOM     19  C   UNL     1       1.436   3.876  19.048  0.00  0.00    +0.000 C 
ATOM     20  O   UNL     1       0.743   3.551  20.010  0.00  0.00    +0.000 OA
ATOM     21  C   UNL     1       2.292   5.168  18.991  0.00  0.00    +0.000 C 
BRANCH  15  23
ATOM     22  C   UNL     1       6.144   5.354  18.721  0.00  0.00    +0.000 C 
ATOM     23  C   UNL     1       4.794   5.190  19.413  0.00  0.00    +0.000 C 
ENDBRANCH  15  23
ENDBRANCH  14  21
ENDBRANCH   1  14
TORSDOF 5
ENDMDL
MODEL 8
REMARK VINA RESULT:      -6.8      5.091      7.138
REMARK  Name = 
REMARK  8 active torsions:
REMARK  status: ('A' for Active; 'I' for Inactive)
REMARK    1  A    between atoms: C_1  and  C_2
REMARK    2  A    between atoms: C_2  and  N_3
REMARK    3  A    between atoms: C_9  and  C_10
REMARK    4  A    between atoms: C_10  and  C_11
REMARK    5  A    between atoms: N_13  and  C_14
REMARK    6  A    between atoms: C_17  and  C_18
REMARK    7  A    between atoms: C_18  and  C_19
REMARK    8  A    between atoms: C_18  and  C_20
REMARK                            x       y       z     vdW  Elec       q    Type
REMARK                         _______ _______ _______ _____ _____    ______ ____
ROOT
ATOM      1  C   UNL     1       2.749   5.487  19.780  0.00  0.00    +0.000 C 
ATOM      2  O   UNL     1       1.866   5.161  20.565  0.00  0.00    +0.000 OA
ATOM      3  N   UNL     1       2.834   6.677  19.075  0.00  0.00    +0.000 N 
ATOM      4  H   UNL     1       3.461   6.704  18.280  0.00  0.00    +0.000 HD
ENDROOT
BRANCH   3   5
ATOM      5  C   UNL     1       2.062   7.832  19.284  0.00  0.00    +0.000 A 
ATOM      6  C   UNL     1       1.548   8.186  20.531  0.00  0.00    +0.000 A 
ATOM      7  C   UNL     1       0.847   9.380  20.689  0.00  0.00    +0.000 A 
ATOM      8  C   UNL     1       0.638  10.242  19.603  0.00  0.00    +0.000 A 
ATOM      9  C   UNL     1       1.127   9.865  18.347  0.00  0.00    +0.000 A 
ATOM     10  C   UNL     1       1.851   8.678  18.191  0.00  0.00    +0.000 A 
BRANCH   8  11
ATOM     11  C   UNL     1      -0.065  11.568  19.822  0.00  0.00    +0.000 C 
ATOM     12  C   UNL     1      -1.515  11.502  19.335  0.00  0.00    +0.000 C 
ATOM     13  C   UNL     1       0.011  12.022  21.280  0.00  0.00    +0.000 C 
ENDBRANCH   8  11
ENDBRANCH   3   5
BRANCH   1  14
ATOM     14  C   UNL     1       3.866   4.549  19.366  0.00  0.00    +0.000 C 
BRANCH  14  21
ATOM     15  N   UNL     1       5.851   5.483  18.043  0.00  0.00    +0.000 NA
ATOM     16  C   UNL     1       6.722   5.004  16.961  0.00  0.00    +0.000 C 
ATOM     17  C   UNL     1       5.922   4.791  15.681  0.00  0.00    +0.000 C 
ATOM     18  O   UNL     1       4.983   3.724  15.863  0.00  0.00    +0.000 OA
ATOM     19  C   UNL     1       4.411   3.606  17.094  0.00  0.00    +0.000 C 
ATOM     20  O   UNL     1       3.869   2.554  17.425  0.00  0.00    +0.000 OA
ATOM     21  C   UNL     1       4.475   4.869  17.991  0.00  0.00    +0.000 C 
BRANCH  15  23
ATOM     22  C   UNL     1       8.007   5.861  19.252  0.00  0.00    +0.000 C 
ATOM     23  C   UNL     1       6.527   5.504  19.343  0.00  0.00    +0.000 C 
ENDBRANCH  15  23
ENDBRANCH  14  21
ENDBRANCH   1  14
TORSDOF 5
ENDMDL
MODEL 9
REMARK VINA RESULT:      -6.8      6.116      9.182
REMARK  Name = 
REMARK  8 active torsions:
REMARK  status: ('A' for Active; 'I' for Inactive)
REMARK    1  A    between atoms: C_1  and  C_2
REMARK    2  A    between atoms: C_2  and  N_3
REMARK    3  A    between atoms: C_9  and  C_10
REMARK    4  A    between atoms: C_10  and  C_11
REMARK    5  A    between atoms: N_13  and  C_14
REMARK    6  A    between atoms: C_17  and  C_18
REMARK    7  A    between atoms: C_18  and  C_19
REMARK    8  A    between atoms: C_18  and  C_20
REMARK                            x       y       z     vdW  Elec       q    Type
REMARK                         _______ _______ _______ _____ _____    ______ ____
ROOT
ATOM      1  C   UNL     1       1.788   8.866  18.407  0.00  0.00    +0.000 C 
ATOM      2  O   UNL     1       2.016   9.361  17.309  0.00  0.00    +0.000 OA
ATOM      3  N   UNL     1       2.145   7.598  18.834  0.00  0.00    +0.000 N 
ATOM      4  H   UNL     1       1.672   7.230  19.651  0.00  0.00    +0.000 HD
ENDROOT
BRANCH   3   5
ATOM      5  C   UNL     1       3.029   6.715  18.191  0.00  0.00    +0.000 A 
ATOM      6  C   UNL     1       2.752   5.361  18.009  0.00  0.00    +0.000 A 
ATOM      7  C   UNL     1       3.637   4.550  17.302  0.00  0.00    +0.000 A 
ATOM      8  C   UNL     1       4.823   5.073  16.768  0.00  0.00    +0.000 A 
ATOM      9  C   UNL     1       5.112   6.425  16.981  0.00  0.00    +0.000 A 
ATOM     10  C   UNL     1       4.213   7.247  17.671  0.00  0.00    +0.000 A 
BRANCH   8  11
ATOM     11  C   UNL     1       5.731   4.183  15.941  0.00  0.00    +0.000 C 
ATOM     12  C   UNL     1       5.497   4.407  14.445  0.00  0.00    +0.000 C 
ATOM     13  C   UNL     1       7.203   4.371  16.306  0.00  0.00    +0.000 C 
ENDBRANCH   8  11
ENDBRANCH   3   5
BRANCH   1  14
ATOM     14  C   UNL     1       0.950   9.560  19.463  0.00  0.00    +0.000 C 
BRANCH  14  21
ATOM     15  N   UNL     1      -0.684  11.236  18.422  0.00  0.00    +0.000 NA
ATOM     16  C   UNL     1      -1.382  12.450  18.867  0.00  0.00    +0.000 C 
ATOM     17  C   UNL     1      -0.385  13.560  19.178  0.00  0.00    +0.000 C 
ATOM     18  O   UNL     1       0.419  13.194  20.307  0.00  0.00    +0.000 OA
ATOM     19  C   UNL     1       0.749  11.878  20.431  0.00  0.00    +0.000 C 
ATOM     20  O   UNL     1       1.138  11.438  21.510  0.00  0.00    +0.000 OA
ATOM     21  C   UNL     1       0.625  11.027  19.140  0.00  0.00    +0.000 C 
BRANCH  15  23
ATOM     22  C   UNL     1      -2.870  10.381  17.557  0.00  0.00    +0.000 C 
ATOM     23  C   UNL     1      -1.579  10.080  18.312  0.00  0.00    +0.000 C 
ENDBRANCH  15  23
ENDBRANCH  14  21
ENDBRANCH   1  14
TORSDOF 5
ENDMDL
