MODEL 1
REMARK VINA RESULT:      -8.1      0.000      0.000
REMARK  Name = 
REMARK  6 active torsions:
REMARK  status: ('A' for Active; 'I' for Inactive)
REMARK    1  A    between atoms: C_1  and  O_2
REMARK    2  A    between atoms: O_2  and  C_3
REMARK    3  A    between atoms: C_6  and  C_7
REMARK    4  A    between atoms: C_10  and  C_11
REMARK    5  A    between atoms: N_12  and  C_13
REMARK    6  A    between atoms: N_22  and  C_23
REMARK                            x       y       z     vdW  Elec       q    Type
REMARK                         _______ _______ _______ _____ _____    ______ ____
ROOT
ATOM      1  C   UNL     1       3.807   5.930  18.690  0.00  0.00    +0.000 C 
ATOM      2  N   UNL     1       4.496   6.557  17.540  0.00  0.00    +0.000 N 
ATOM      3  C   UNL     1       3.817   7.513  16.664  0.00  0.00    +0.000 C 
ATOM      4  C   UNL     1       5.298   5.695  16.782  0.00  0.00    +0.000 A 
ATOM      5  C   UNL     1       6.401   6.193  16.068  0.00  0.00    +0.000 A 
ATOM      6  C   UNL     1       7.109   5.385  15.176  0.00  0.00    +0.000 A 
ATOM      7  C   UNL     1       6.727   4.060  14.993  0.00  0.00    +0.000 A 
ATOM      8  C   UNL     1       5.654   3.543  15.718  0.00  0.00    +0.000 A 
ATOM      9  C   UNL     1       4.945   4.361  16.612  0.00  0.00    +0.000 A 
ATOM     10  C   UNL     1       3.776   3.830  17.340  0.00  0.00    +0.000 C 
ATOM     11  O   UNL     1       3.400   2.699  17.030  0.00  0.00    +0.000 OA
ATOM     12  N   UNL     1       3.210   4.620  18.361  0.00  0.00    +0.000 N 
ENDROOT
BRANCH  12  13
ATOM     13  C   UNL     1       2.532   3.867  19.403  0.00  0.00    +0.000 A 
ATOM     14  C   UNL     1       1.134   3.723  19.429  0.00  0.00    +0.000 A 
ATOM     15  C   UNL     1       0.493   3.100  20.508  0.00  0.00    +0.000 A 
ATOM     16  C   UNL     1       1.235   2.592  21.570  0.00  0.00    +0.000 A 
ATOM     17  C   UNL     1       2.621   2.705  21.554  0.00  0.00    +0.000 A 
ATOM     18  C   UNL     1       3.260   3.338  20.482  0.00  0.00    +0.000 A 
ENDBRANCH  12  13
BRANCH   1  22
ATOM     19  C   UNL     1       1.213   8.734  19.871  0.00  0.00    +0.000 A 
ATOM     20  C   UNL     1       1.355   7.864  20.939  0.00  0.00    +0.000 A 
ATOM     21  C   UNL     1       2.286   6.813  20.677  0.00  0.00    +0.000 A 
ATOM     22  C   UNL     1       2.798   6.856  19.391  0.00  0.00    +0.000 A 
ATOM     23  S   UNL     1       2.097   8.157  18.513  0.00  0.00    +0.000 S 
BRANCH  19  27
ATOM     24  C   UNL     1      -0.585  12.634  19.620  0.00  0.00    +0.000 A 
ATOM     25  C   UNL     1       0.262  12.305  20.676  0.00  0.00    +0.000 A 
ATOM     26  C   UNL     1       0.808  11.020  20.769  0.00  0.00    +0.000 A 
ATOM     27  C   UNL     1       0.511  10.034  19.816  0.00  0.00    +0.000 A 
ATOM     28  C   UNL     1      -0.403  10.364  18.802  0.00  0.00    +0.000 A 
ATOM     29  C   UNL     1      -0.942  11.656  18.697  0.00  0.00    +0.000 A 
BRANCH  24  31
ATOM     30  C   UNL     1      -0.175  14.856  18.925  0.00  0.00    +0.000 C 
ATOM     31  O   UNL     1      -1.026  13.933  19.599  0.00  0.00    +0.000 OA
ENDBRANCH  24  31
ENDBRANCH  19  27
ENDBRANCH   1  22
TORSDOF 4
ENDMDL
MODEL 2
REMARK VINA RESULT:      -8.1      0.577      1.127
REMARK  Name = 
REMARK  6 active torsions:
REMARK  status: ('A' for Active; 'I' for Inactive)
REMARK    1  A    between atoms: C_1  and  O_2
REMARK    2  A    between atoms: O_2  and  C_3
REMARK    3  A    between atoms: C_6  and  C_7
REMARK    4  A    between atoms: C_10  and  C_11
REMARK    5  A    between atoms: N_12  and  C_13
REMARK    6  A    between atoms: N_22  and  C_23
REMARK                            x       y       z     vdW  Elec       q    Type
REMARK                         _______ _______ _______ _____ _____    ______ ____
ROOT
ATOM      1  C   UNL     1       3.787   5.920  18.728  0.00  0.00    +0.000 C 
ATOM      2  N   UNL     1       4.460   6.566  17.580  0.00  0.00    +0.000 N 
ATOM      3  C   UNL     1       3.765   7.528  16.723  0.00  0.00    +0.000 C 
ATOM      4  C   UNL     1       5.259   5.719  16.802  0.00  0.00    +0.000 A 
ATOM      5  C   UNL     1       6.351   6.234  16.083  0.00  0.00    +0.000 A 
ATOM      6  C   UNL     1       7.054   5.442  15.173  0.00  0.00    +0.000 A 
ATOM      7  C   UNL     1       6.680   4.117  14.977  0.00  0.00    +0.000 A 
ATOM      8  C   UNL     1       5.618   3.583  15.707  0.00  0.00    +0.000 A 
ATOM      9  C   UNL     1       4.914   4.385  16.619  0.00  0.00    +0.000 A 
ATOM     10  C   UNL     1       3.755   3.837  17.353  0.00  0.00    +0.000 C 
ATOM     11  O   UNL     1       3.384   2.707  17.032  0.00  0.00    +0.000 OA
ATOM     12  N   UNL     1       3.195   4.610  18.389  0.00  0.00    +0.000 N 
ENDROOT
BRANCH  12  13
ATOM     13  C   UNL     1       2.533   3.839  19.428  0.00  0.00    +0.000 A 
ATOM     14  C   UNL     1       1.138   3.671  19.457  0.00  0.00    +0.000 A 
ATOM     15  C   UNL     1       0.511   3.030  20.535  0.00  0.00    +0.000 A 
ATOM     16  C   UNL     1       1.265   2.529  21.592  0.00  0.00    +0.000 A 
ATOM     17  C   UNL     1       2.649   2.667  21.573  0.00  0.00    +0.000 A 
ATOM     18  C   UNL     1       3.274   3.317  20.503  0.00  0.00    +0.000 A 
ENDBRANCH  12  13
BRANCH   1  22
ATOM     19  C   UNL     1       1.203   8.702  19.981  0.00  0.00    +0.000 A 
ATOM     20  C   UNL     1       1.334   7.798  21.022  0.00  0.00    +0.000 A 
ATOM     21  C   UNL     1       2.259   6.750  20.734  0.00  0.00    +0.000 A 
ATOM     22  C   UNL     1       2.780   6.830  19.452  0.00  0.00    +0.000 A 
ATOM     23  S   UNL     1       2.092   8.162  18.611  0.00  0.00    +0.000 S 
BRANCH  19  27
ATOM     24  C   UNL     1      -1.051  12.367  20.011  0.00  0.00    +0.000 A 
ATOM     25  C   UNL     1      -1.195  11.448  18.973  0.00  0.00    +0.000 A 
ATOM     26  C   UNL     1      -0.427  10.279  18.953  0.00  0.00    +0.000 A 
ATOM     27  C   UNL     1       0.510  10.007  19.963  0.00  0.00    +0.000 A 
ATOM     28  C   UNL     1       0.693  10.981  20.959  0.00  0.00    +0.000 A 
ATOM     29  C   UNL     1      -0.086  12.148  20.990  0.00  0.00    +0.000 A 
BRANCH  24  31
ATOM     30  C   UNL     1      -3.151  13.284  20.589  0.00  0.00    +0.000 C 
ATOM     31  O   UNL     1      -1.885  13.454  19.958  0.00  0.00    +0.000 OA
ENDBRANCH  24  31
ENDBRANCH  19  27
ENDBRANCH   1  22
TORSDOF 4
ENDMDL
MODEL 3
REMARK VINA RESULT:      -8.0      3.460      9.806
REMARK  Name = 
REMARK  6 active torsions:
REMARK  status: ('A' for Active; 'I' for Inactive)
REMARK    1  A    between atoms: C_1  and  O_2
REMARK    2  A    between atoms: O_2  and  C_3
REMARK    3  A    between atoms: C_6  and  C_7
REMARK    4  A    between atoms: C_10  and  C_11
REMARK    5  A    between atoms: N_12  and  C_13
REMARK    6  A    between atoms: N_22  and  C_23
REMARK                            x       y       z     vdW  Elec       q    Type
REMARK                         _______ _______ _______ _____ _____    ______ ____
ROOT
ATOM      1  C   UNL     1      -1.033  11.976  20.447  0.00  0.00    +0.000 C 
ATOM      2  N   UNL     1      -1.050  12.709  21.732  0.00  0.00    +0.000 N 
ATOM      3  C   UNL     1      -1.137  12.010  23.015  0.00  0.00    +0.000 C 
ATOM      4  C   UNL     1      -1.851  13.857  21.754  0.00  0.00    +0.000 A 
ATOM      5  C   UNL     1      -1.551  14.918  22.625  0.00  0.00    +0.000 A 
ATOM      6  C   UNL     1      -2.428  15.992  22.783  0.00  0.00    +0.000 A 
ATOM      7  C   UNL     1      -3.617  16.026  22.061  0.00  0.00    +0.000 A 
ATOM      8  C   UNL     1      -3.912  14.996  21.168  0.00  0.00    +0.000 A 
ATOM      9  C   UNL     1      -3.027  13.918  21.015  0.00  0.00    +0.000 A 
ATOM     10  C   UNL     1      -3.364  12.800  20.110  0.00  0.00    +0.000 C 
ATOM     11  O   UNL     1      -4.490  12.816  19.610  0.00  0.00    +0.000 OA
ATOM     12  N   UNL     1      -2.373  11.835  19.843  0.00  0.00    +0.000 N 
ENDROOT
BRANCH  12  13
ATOM     13  C   UNL     1      -2.508  11.169  18.559  0.00  0.00    +0.000 A 
ATOM     14  C   UNL     1      -2.092  11.772  17.359  0.00  0.00    +0.000 A 
ATOM     15  C   UNL     1      -2.345  11.166  16.121  0.00  0.00    +0.000 A 
ATOM     16  C   UNL     1      -2.999   9.938  16.059  0.00  0.00    +0.000 A 
ATOM     17  C   UNL     1      -3.400   9.315  17.235  0.00  0.00    +0.000 A 
ATOM     18  C   UNL     1      -3.159   9.927  18.470  0.00  0.00    +0.000 A 
ENDBRANCH  12  13
BRANCH   1  22
ATOM     19  C   UNL     1       1.235   8.715  19.982  0.00  0.00    +0.000 A 
ATOM     20  C   UNL     1       0.460   8.491  21.107  0.00  0.00    +0.000 A 
ATOM     21  C   UNL     1      -0.435   9.567  21.387  0.00  0.00    +0.000 A 
ATOM     22  C   UNL     1      -0.292  10.628  20.509  0.00  0.00    +0.000 A 
ATOM     23  S   UNL     1       0.968  10.307  19.384  0.00  0.00    +0.000 S 
BRANCH  19  27
ATOM     24  C   UNL     1       4.037   6.157  17.952  0.00  0.00    +0.000 A 
ATOM     25  C   UNL     1       3.634   7.366  17.387  0.00  0.00    +0.000 A 
ATOM     26  C   UNL     1       2.691   8.170  18.037  0.00  0.00    +0.000 A 
ATOM     27  C   UNL     1       2.123   7.779  19.259  0.00  0.00    +0.000 A 
ATOM     28  C   UNL     1       2.487   6.524  19.775  0.00  0.00    +0.000 A 
ATOM     29  C   UNL     1       3.442   5.721  19.133  0.00  0.00    +0.000 A 
BRANCH  24  31
ATOM     30  C   UNL     1       5.406   6.067  16.028  0.00  0.00    +0.000 C 
ATOM     31  O   UNL     1       4.999   5.472  17.256  0.00  0.00    +0.000 OA
ENDBRANCH  24  31
ENDBRANCH  19  27
ENDBRANCH   1  22
TORSDOF 4
ENDMDL
MODEL 4
REMARK VINA RESULT:      -7.9      0.550      1.043
REMARK  Name = 
REMARK  6 active torsions:
REMARK  status: ('A' for Active; 'I' for Inactive)
REMARK    1  A    between atoms: C_1  and  O_2
REMARK    2  A    between atoms: O_2  and  C_3
REMARK    3  A    between atoms: C_6  and  C_7
REMARK    4  A    between atoms: C_10  and  C_11
REMARK    5  A    between atoms: N_12  and  C_13
REMARK    6  A    between atoms: N_22  and  C_23
REMARK                            x       y       z     vdW  Elec       q    Type
REMARK                         _______ _______ _______ _____ _____    ______ ____
ROOT
ATOM      1  C   UNL     1       3.770   6.071  18.696  0.00  0.00    +0.000 C 
ATOM      2  N   UNL     1       4.451   6.632  17.508  0.00  0.00    +0.000 N 
ATOM      3  C   UNL     1       3.765   7.535  16.583  0.00  0.00    +0.000 C 
ATOM      4  C   UNL     1       5.250   5.729  16.795  0.00  0.00    +0.000 A 
ATOM      5  C   UNL     1       6.348   6.186  16.048  0.00  0.00    +0.000 A 
ATOM      6  C   UNL     1       7.051   5.329  15.199  0.00  0.00    +0.000 A 
ATOM      7  C   UNL     1       6.670   3.995  15.094  0.00  0.00    +0.000 A 
ATOM      8  C   UNL     1       5.602   3.520  15.855  0.00  0.00    +0.000 A 
ATOM      9  C   UNL     1       4.898   4.387  16.704  0.00  0.00    +0.000 A 
ATOM     10  C   UNL     1       3.733   3.897  17.469  0.00  0.00    +0.000 C 
ATOM     11  O   UNL     1       3.357   2.749  17.227  0.00  0.00    +0.000 OA
ATOM     12  N   UNL     1       3.172   4.743  18.446  0.00  0.00    +0.000 N 
ENDROOT
BRANCH  12  13
ATOM     13  C   UNL     1       2.501   4.050  19.534  0.00  0.00    +0.000 A 
ATOM     14  C   UNL     1       3.205   3.532  20.634  0.00  0.00    +0.000 A 
ATOM     15  C   UNL     1       2.556   2.760  21.607  0.00  0.00    +0.000 A 
ATOM     16  C   UNL     1       1.190   2.509  21.511  0.00  0.00    +0.000 A 
ATOM     17  C   UNL     1       0.471   3.030  20.440  0.00  0.00    +0.000 A 
ATOM     18  C   UNL     1       1.122   3.790  19.462  0.00  0.00    +0.000 A 
ENDBRANCH  12  13
BRANCH   1  22
ATOM     19  C   UNL     1       1.209   8.957  19.745  0.00  0.00    +0.000 A 
ATOM     20  C   UNL     1       1.303   8.108  20.835  0.00  0.00    +0.000 A 
ATOM     21  C   UNL     1       2.216   7.031  20.621  0.00  0.00    +0.000 A 
ATOM     22  C   UNL     1       2.764   7.035  19.349  0.00  0.00    +0.000 A 
ATOM     23  S   UNL     1       2.117   8.331  18.424  0.00  0.00    +0.000 S 
BRANCH  19  27
ATOM     24  C   UNL     1      -0.611  12.855  19.693  0.00  0.00    +0.000 A 
ATOM     25  C   UNL     1      -1.090  11.854  20.536  0.00  0.00    +0.000 A 
ATOM     26  C   UNL     1      -0.517  10.578  20.515  0.00  0.00    +0.000 A 
ATOM     27  C   UNL     1       0.540  10.271  19.643  0.00  0.00    +0.000 A 
ATOM     28  C   UNL     1       0.958  11.272  18.751  0.00  0.00    +0.000 A 
ATOM     29  C   UNL     1       0.395  12.557  18.779  0.00  0.00    +0.000 A 
BRANCH  24  31
ATOM     30  C   UNL     1      -0.421  15.196  19.436  0.00  0.00    +0.000 C 
ATOM     31  O   UNL     1      -1.213  14.080  19.829  0.00  0.00    +0.000 OA
ENDBRANCH  24  31
ENDBRANCH  19  27
ENDBRANCH   1  22
TORSDOF 4
ENDMDL
MODEL 5
REMARK VINA RESULT:      -7.8      3.235     10.133
REMARK  Name = 
REMARK  6 active torsions:
REMARK  status: ('A' for Active; 'I' for Inactive)
REMARK    1  A    between atoms: C_1  and  O_2
REMARK    2  A    between atoms: O_2  and  C_3
REMARK    3  A    between atoms: C_6  and  C_7
REMARK    4  A    between atoms: C_10  and  C_11
REMARK    5  A    between atoms: N_12  and  C_13
REMARK    6  A    between atoms: N_22  and  C_23
REMARK                            x       y       z     vdW  Elec       q    Type
REMARK                         _______ _______ _______ _____ _____    ______ ____
ROOT
ATOM      1  C   UNL     1      -0.085  12.023  20.139  0.00  0.00    +0.000 C 
ATOM      2  N   UNL     1      -1.552  11.832  20.135  0.00  0.00    +0.000 N 
ATOM      3  C   UNL     1      -2.251  11.265  18.980  0.00  0.00    +0.000 C 
ATOM      4  C   UNL     1      -2.294  12.891  20.673  0.00  0.00    +0.000 A 
ATOM      5  C   UNL     1      -3.555  12.658  21.246  0.00  0.00    +0.000 A 
ATOM      6  C   UNL     1      -4.380  13.716  21.633  0.00  0.00    +0.000 A 
ATOM      7  C   UNL     1      -3.948  15.027  21.460  0.00  0.00    +0.000 A 
ATOM      8  C   UNL     1      -2.685  15.273  20.922  0.00  0.00    +0.000 A 
ATOM      9  C   UNL     1      -1.862  14.205  20.533  0.00  0.00    +0.000 A 
ATOM     10  C   UNL     1      -0.547  14.466  19.914  0.00  0.00    +0.000 C 
ATOM     11  O   UNL     1      -0.282  15.641  19.656  0.00  0.00    +0.000 OA
ATOM     12  N   UNL     1       0.323  13.377  19.710  0.00  0.00    +0.000 N 
ENDROOT
BRANCH  12  13
ATOM     13  C   UNL     1       1.735  13.723  19.701  0.00  0.00    +0.000 A 
ATOM     14  C   UNL     1       2.484  13.827  20.885  0.00  0.00    +0.000 A 
ATOM     15  C   UNL     1       3.810  14.283  20.862  0.00  0.00    +0.000 A 
ATOM     16  C   UNL     1       4.416  14.626  19.657  0.00  0.00    +0.000 A 
ATOM     17  C   UNL     1       3.698  14.511  18.471  0.00  0.00    +0.000 A 
ATOM     18  C   UNL     1       2.371  14.066  18.496  0.00  0.00    +0.000 A 
ENDBRANCH  12  13
BRANCH   1  22
ATOM     19  C   UNL     1       1.821   8.774  18.798  0.00  0.00    +0.000 A 
ATOM     20  C   UNL     1       1.899   9.714  17.785  0.00  0.00    +0.000 A 
ATOM     21  C   UNL     1       1.282  10.954  18.131  0.00  0.00    +0.000 A 
ATOM     22  C   UNL     1       0.687  10.929  19.382  0.00  0.00    +0.000 A 
ATOM     23  S   UNL     1       0.855   9.372  20.091  0.00  0.00    +0.000 S 
BRANCH  19  27
ATOM     24  C   UNL     1       3.538   4.836  19.040  0.00  0.00    +0.000 A 
ATOM     25  C   UNL     1       2.705   5.315  20.049  0.00  0.00    +0.000 A 
ATOM     26  C   UNL     1       2.185   6.612  19.980  0.00  0.00    +0.000 A 
ATOM     27  C   UNL     1       2.496   7.463  18.907  0.00  0.00    +0.000 A 
ATOM     28  C   UNL     1       3.396   6.988  17.939  0.00  0.00    +0.000 A 
ATOM     29  C   UNL     1       3.909   5.682  17.998  0.00  0.00    +0.000 A 
BRANCH  24  31
ATOM     30  C   UNL     1       3.335   2.599  18.307  0.00  0.00    +0.000 C 
ATOM     31  O   UNL     1       3.953   3.537  19.183  0.00  0.00    +0.000 OA
ENDBRANCH  24  31
ENDBRANCH  19  27
ENDBRANCH   1  22
TORSDOF 4
ENDMDL
MODEL 6
REMARK VINA RESULT:      -7.8      3.205      9.309
REMARK  Name = 
REMARK  6 active torsions:
REMARK  status: ('A' for Active; 'I' for Inactive)
REMARK    1  A    between atoms: C_1  and  O_2
REMARK    2  A    between atoms: O_2  and  C_3
REMARK    3  A    between atoms: C_6  and  C_7
REMARK    4  A    between atoms: C_10  and  C_11
REMARK    5  A    between atoms: N_12  and  C_13
REMARK    6  A    between atoms: N_22  and  C_23
REMARK                            x       y       z     vdW  Elec       q    Type
REMARK                         _______ _______ _______ _____ _____    ______ ____
ROOT
ATOM      1  C   UNL     1       0.952  12.635  18.825  0.00  0.00    +0.000 C 
ATOM      2  N   UNL     1       2.153  13.476  19.029  0.00  0.00    +0.000 N 
ATOM      3  C   UNL     1       2.938  13.408  20.262  0.00  0.00    +0.000 C 
ATOM      4  C   UNL     1       2.029  14.806  18.610  0.00  0.00    +0.000 A 
ATOM      5  C   UNL     1       3.162  15.535  18.213  0.00  0.00    +0.000 A 
ATOM      6  C   UNL     1       3.086  16.905  17.955  0.00  0.00    +0.000 A 
ATOM      7  C   UNL     1       1.867  17.565  18.081  0.00  0.00    +0.000 A 
ATOM      8  C   UNL     1       0.727  16.847  18.443  0.00  0.00    +0.000 A 
ATOM      9  C   UNL     1       0.812  15.471  18.703  0.00  0.00    +0.000 A 
ATOM     10  C   UNL     1      -0.383  14.721  19.139  0.00  0.00    +0.000 C 
ATOM     11  O   UNL     1      -1.396  15.383  19.370  0.00  0.00    +0.000 OA
ATOM     12  N   UNL     1      -0.302  13.316  19.208  0.00  0.00    +0.000 N 
ENDROOT
BRANCH  12  13
ATOM     13  C   UNL     1      -1.568  12.627  19.027  0.00  0.00    +0.000 A 
ATOM     14  C   UNL     1      -1.878  11.936  17.843  0.00  0.00    +0.000 A 
ATOM     15  C   UNL     1      -3.152  11.385  17.642  0.00  0.00    +0.000 A 
ATOM     16  C   UNL     1      -4.131  11.496  18.625  0.00  0.00    +0.000 A 
ATOM     17  C   UNL     1      -3.838  12.158  19.812  0.00  0.00    +0.000 A 
ATOM     18  C   UNL     1      -2.570  12.718  20.008  0.00  0.00    +0.000 A 
ENDBRANCH  12  13
BRANCH   1  22
ATOM     19  C   UNL     1       1.553   8.809  19.816  0.00  0.00    +0.000 A 
ATOM     20  C   UNL     1       0.907   9.391  20.893  0.00  0.00    +0.000 A 
ATOM     21  C   UNL     1       0.593  10.766  20.675  0.00  0.00    +0.000 A 
ATOM     22  C   UNL     1       1.057  11.236  19.457  0.00  0.00    +0.000 A 
ATOM     23  S   UNL     1       1.907   9.997  18.623  0.00  0.00    +0.000 S 
BRANCH  19  27
ATOM     24  C   UNL     1       2.170   4.611  19.100  0.00  0.00    +0.000 A 
ATOM     25  C   UNL     1       1.784   5.072  20.357  0.00  0.00    +0.000 A 
ATOM     26  C   UNL     1       1.627   6.443  20.589  0.00  0.00    +0.000 A 
ATOM     27  C   UNL     1       1.862   7.383  19.574  0.00  0.00    +0.000 A 
ATOM     28  C   UNL     1       2.321   6.903  18.336  0.00  0.00    +0.000 A 
ATOM     29  C   UNL     1       2.468   5.528  18.096  0.00  0.00    +0.000 A 
BRANCH  24  31
ATOM     30  C   UNL     1       1.001   2.572  18.864  0.00  0.00    +0.000 C 
ATOM     31  O   UNL     1       2.249   3.249  18.969  0.00  0.00    +0.000 OA
ENDBRANCH  24  31
ENDBRANCH  19  27
ENDBRANCH   1  22
TORSDOF 4
ENDMDL
MODEL 7
REMARK VINA RESULT:      -7.8      3.115      9.421
REMARK  Name = 
REMARK  6 active torsions:
REMARK  status: ('A' for Active; 'I' for Inactive)
REMARK    1  A    between atoms: C_1  and  O_2
REMARK    2  A    between atoms: O_2  and  C_3
REMARK    3  A    between atoms: C_6  and  C_7
REMARK    4  A    between atoms: C_10  and  C_11
REMARK    5  A    between atoms: N_12  and  C_13
REMARK    6  A    between atoms: N_22  and  C_23
REMARK                            x       y       z     vdW  Elec       q    Type
REMARK                         _______ _______ _______ _____ _____    ______ ____
ROOT
ATOM      1  C   UNL     1       0.112  11.867  19.300  0.00  0.00    +0.000 C 
ATOM      2  N   UNL     1       0.569  12.489  20.562  0.00  0.00    +0.000 N 
ATOM      3  C   UNL     1       1.057  11.685  21.684  0.00  0.00    +0.000 C 
ATOM      4  C   UNL     1      -0.228  13.540  21.033  0.00  0.00    +0.000 A 
ATOM      5  C   UNL     1       0.329  14.553  21.831  0.00  0.00    +0.000 A 
ATOM      6  C   UNL     1      -0.478  15.511  22.448  0.00  0.00    +0.000 A 
ATOM      7  C   UNL     1      -1.857  15.474  22.267  0.00  0.00    +0.000 A 
ATOM      8  C   UNL     1      -2.420  14.493  21.451  0.00  0.00    +0.000 A 
ATOM      9  C   UNL     1      -1.604  13.532  20.835  0.00  0.00    +0.000 A 
ATOM     10  C   UNL     1      -2.205  12.461  20.015  0.00  0.00    +0.000 C 
ATOM     11  O   UNL     1      -3.435  12.395  20.008  0.00  0.00    +0.000 OA
ATOM     12  N   UNL     1      -1.346  11.631  19.266  0.00  0.00    +0.000 N 
ENDROOT
BRANCH  12  13
ATOM     13  C   UNL     1      -1.946  11.060  18.073  0.00  0.00    +0.000 A 
ATOM     14  C   UNL     1      -2.009  11.765  16.859  0.00  0.00    +0.000 A 
ATOM     15  C   UNL     1      -2.702  11.244  15.757  0.00  0.00    +0.000 A 
ATOM     16  C   UNL     1      -3.327  10.004  15.841  0.00  0.00    +0.000 A 
ATOM     17  C   UNL     1      -3.259   9.280  17.026  0.00  0.00    +0.000 A 
ATOM     18  C   UNL     1      -2.578   9.805  18.130  0.00  0.00    +0.000 A 
ENDBRANCH  12  13
BRANCH   1  22
ATOM     19  C   UNL     1       1.868   8.297  18.903  0.00  0.00    +0.000 A 
ATOM     20  C   UNL     1       2.300   9.062  17.833  0.00  0.00    +0.000 A 
ATOM     21  C   UNL     1       1.776  10.390  17.853  0.00  0.00    +0.000 A 
ATOM     22  C   UNL     1       0.902  10.606  18.906  0.00  0.00    +0.000 A 
ATOM     23  S   UNL     1       0.703   9.167  19.823  0.00  0.00    +0.000 S 
BRANCH  19  27
ATOM     24  C   UNL     1       2.969   4.309  20.085  0.00  0.00    +0.000 A 
ATOM     25  C   UNL     1       2.066   5.054  20.840  0.00  0.00    +0.000 A 
ATOM     26  C   UNL     1       1.747   6.365  20.469  0.00  0.00    +0.000 A 
ATOM     27  C   UNL     1       2.331   6.963  19.342  0.00  0.00    +0.000 A 
ATOM     28  C   UNL     1       3.294   6.222  18.638  0.00  0.00    +0.000 A 
ATOM     29  C   UNL     1       3.607   4.902  19.000  0.00  0.00    +0.000 A 
BRANCH  24  31
ATOM     30  C   UNL     1       2.380   2.611  21.620  0.00  0.00    +0.000 C 
ATOM     31  O   UNL     1       3.174   3.022  20.511  0.00  0.00    +0.000 OA
ENDBRANCH  24  31
ENDBRANCH  19  27
ENDBRANCH   1  22
TORSDOF 4
ENDMDL
MODEL 8
REMARK VINA RESULT:      -7.8      3.524      9.923
REMARK  Name = 
REMARK  6 active torsions:
REMARK  status: ('A' for Active; 'I' for Inactive)
REMARK    1  A    between atoms: C_1  and  O_2
REMARK    2  A    between atoms: O_2  and  C_3
REMARK    3  A    between atoms: C_6  and  C_7
REMARK    4  A    between atoms: C_10  and  C_11
REMARK    5  A    between atoms: N_12  and  C_13
REMARK    6  A    between atoms: N_22  and  C_23
REMARK                            x       y       z     vdW  Elec       q    Type
REMARK                         _______ _______ _______ _____ _____    ______ ____
ROOT
ATOM      1  C   UNL     1      -1.166  12.217  20.394  0.00  0.00    +0.000 C 
ATOM      2  N   UNL     1      -1.124  13.000  21.648  0.00  0.00    +0.000 N 
ATOM      3  C   UNL     1      -1.139  12.352  22.961  0.00  0.00    +0.000 C 
ATOM      4  C   UNL     1      -1.934  14.143  21.667  0.00  0.00    +0.000 A 
ATOM      5  C   UNL     1      -1.599  15.239  22.480  0.00  0.00    +0.000 A 
ATOM      6  C   UNL     1      -2.477  16.312  22.641  0.00  0.00    +0.000 A 
ATOM      7  C   UNL     1      -3.701  16.309  21.980  0.00  0.00    +0.000 A 
ATOM      8  C   UNL     1      -4.032  15.243  21.144  0.00  0.00    +0.000 A 
ATOM      9  C   UNL     1      -3.147  14.165  20.989  0.00  0.00    +0.000 A 
ATOM     10  C   UNL     1      -3.519  13.011  20.146  0.00  0.00    +0.000 C 
ATOM     11  O   UNL     1      -4.669  12.999  19.705  0.00  0.00    +0.000 OA
ATOM     12  N   UNL     1      -2.535  12.043  19.866  0.00  0.00    +0.000 N 
ENDROOT
BRANCH  12  13
ATOM     13  C   UNL     1      -2.729  11.326  18.617  0.00  0.00    +0.000 A 
ATOM     14  C   UNL     1      -3.400  10.092  18.562  0.00  0.00    +0.000 A 
ATOM     15  C   UNL     1      -3.467   9.360  17.369  0.00  0.00    +0.000 A 
ATOM     16  C   UNL     1      -2.883   9.854  16.206  0.00  0.00    +0.000 A 
ATOM     17  C   UNL     1      -2.232  11.082  16.234  0.00  0.00    +0.000 A 
ATOM     18  C   UNL     1      -2.155  11.808  17.428  0.00  0.00    +0.000 A 
ENDBRANCH  12  13
BRANCH   1  22
ATOM     19  C   UNL     1       1.149   8.984  19.972  0.00  0.00    +0.000 A 
ATOM     20  C   UNL     1       0.355   8.749  21.082  0.00  0.00    +0.000 A 
ATOM     21  C   UNL     1      -0.559   9.815  21.345  0.00  0.00    +0.000 A 
ATOM     22  C   UNL     1      -0.410  10.878  20.470  0.00  0.00    +0.000 A 
ATOM     23  S   UNL     1       0.874  10.572  19.370  0.00  0.00    +0.000 S 
BRANCH  19  27
ATOM     24  C   UNL     1       3.575   6.136  17.848  0.00  0.00    +0.000 A 
ATOM     25  C   UNL     1       3.067   5.840  19.111  0.00  0.00    +0.000 A 
ATOM     26  C   UNL     1       2.314   6.789  19.810  0.00  0.00    +0.000 A 
ATOM     27  C   UNL     1       2.061   8.059  19.267  0.00  0.00    +0.000 A 
ATOM     28  C   UNL     1       2.645   8.363  18.026  0.00  0.00    +0.000 A 
ATOM     29  C   UNL     1       3.390   7.409  17.316  0.00  0.00    +0.000 A 
BRANCH  24  31
ATOM     30  C   UNL     1       4.592   4.014  18.067  0.00  0.00    +0.000 C 
ATOM     31  O   UNL     1       4.259   5.119  17.232  0.00  0.00    +0.000 OA
ENDBRANCH  24  31
ENDBRANCH  19  27
ENDBRANCH   1  22
TORSDOF 4
ENDMDL
MODEL 9
REMARK VINA RESULT:      -7.7      3.530      9.880
REMARK  Name = 
REMARK  6 active torsions:
REMARK  status: ('A' for Active; 'I' for Inactive)
REMARK    1  A    between atoms: C_1  and  O_2
REMARK    2  A    between atoms: O_2  and  C_3
REMARK    3  A    between atoms: C_6  and  C_7
REMARK    4  A    between atoms: C_10  and  C_11
REMARK    5  A    between atoms: N_12  and  C_13
REMARK    6  A    between atoms: N_22  and  C_23
REMARK                            x       y       z     vdW  Elec       q    Type
REMARK                         _______ _______ _______ _____ _____    ______ ____
ROOT
ATOM      1  C   UNL     1      -0.329  13.769  19.363  0.00  0.00    +0.000 C 
ATOM      2  N   UNL     1       0.658  14.621  18.664  0.00  0.00    +0.000 N 
ATOM      3  C   UNL     1       2.026  14.164  18.410  0.00  0.00    +0.000 C 
ATOM      4  C   UNL     1       0.665  15.967  19.050  0.00  0.00    +0.000 A 
ATOM      5  C   UNL     1       1.088  16.963  18.153  0.00  0.00    +0.000 A 
ATOM      6  C   UNL     1       1.262  18.283  18.571  0.00  0.00    +0.000 A 
ATOM      7  C   UNL     1       1.004  18.630  19.893  0.00  0.00    +0.000 A 
ATOM      8  C   UNL     1       0.553  17.658  20.786  0.00  0.00    +0.000 A 
ATOM      9  C   UNL     1       0.382  16.332  20.361  0.00  0.00    +0.000 A 
ATOM     10  C   UNL     1      -0.045  15.292  21.319  0.00  0.00    +0.000 C 
ATOM     11  O   UNL     1      -0.118  15.628  22.502  0.00  0.00    +0.000 OA
ATOM     12  N   UNL     1      -0.384  14.020  20.817  0.00  0.00    +0.000 N 
ENDROOT
BRANCH  12  13
ATOM     13  C   UNL     1      -1.336  13.283  21.630  0.00  0.00    +0.000 A 
ATOM     14  C   UNL     1      -2.708  13.585  21.630  0.00  0.00    +0.000 A 
ATOM     15  C   UNL     1      -3.588  12.945  22.513  0.00  0.00    +0.000 A 
ATOM     16  C   UNL     1      -3.119  11.979  23.399  0.00  0.00    +0.000 A 
ATOM     17  C   UNL     1      -1.768  11.651  23.401  0.00  0.00    +0.000 A 
ATOM     18  C   UNL     1      -0.887  12.298  22.527  0.00  0.00    +0.000 A 
ENDBRANCH  12  13
BRANCH   1  22
ATOM     19  C   UNL     1       0.703   9.934  18.890  0.00  0.00    +0.000 A 
ATOM     20  C   UNL     1      -0.536  10.079  18.288  0.00  0.00    +0.000 A 
ATOM     21  C   UNL     1      -1.028  11.418  18.348  0.00  0.00    +0.000 A 
ATOM     22  C   UNL     1      -0.189  12.269  19.048  0.00  0.00    +0.000 A 
ATOM     23  S   UNL     1       1.165  11.403  19.658  0.00  0.00    +0.000 S 
BRANCH  19  27
ATOM     24  C   UNL     1       3.148   6.396  18.775  0.00  0.00    +0.000 A 
ATOM     25  C   UNL     1       2.393   6.706  19.904  0.00  0.00    +0.000 A 
ATOM     26  C   UNL     1       1.633   7.881  19.946  0.00  0.00    +0.000 A 
ATOM     27  C   UNL     1       1.621   8.776  18.865  0.00  0.00    +0.000 A 
ATOM     28  C   UNL     1       2.446   8.482  17.768  0.00  0.00    +0.000 A 
ATOM     29  C   UNL     1       3.199   7.298  17.717  0.00  0.00    +0.000 A 
BRANCH  24  31
ATOM     30  C   UNL     1       3.592   4.332  17.715  0.00  0.00    +0.000 C 
ATOM     31  O   UNL     1       3.816   5.200  18.822  0.00  0.00    +0.000 OA
ENDBRANCH  24  31
ENDBRANCH  19  27
ENDBRANCH   1  22
TORSDOF 4
ENDMDL
