MODEL 1
REMARK VINA RESULT:      -9.0      0.000      0.000
REMARK  Name = 
REMARK  8 active torsions:
REMARK  status: ('A' for Active; 'I' for Inactive)
REMARK    1  A    between atoms: C_1  and  O_2
REMARK    2  A    between atoms: O_2  and  C_3
REMARK    3  A    between atoms: C_7  and  C_8
REMARK    4  A    between atoms: C_8  and  C_9
REMARK    5  A    between atoms: C_9  and  N_10
REMARK    6  A    between atoms: C_13  and  N_14
REMARK    7  A    between atoms: N_23  and  C_24
REMARK    8  A    between atoms: C_24  and  C_25
REMARK                            x       y       z     vdW  Elec       q    Type
REMARK                         _______ _______ _______ _____ _____    ______ ____
ROOT
ATOM      1  N   UNL     1       5.182   6.004  18.503  0.00  0.00    +0.000 N 
ATOM      2  C   UNL     1       4.133   5.056  18.619  0.00  0.00    +0.000 A 
ATOM      3  N   UNL     1       4.177   3.849  17.995  0.00  0.00    +0.000 NA
ATOM      4  C   UNL     1       3.031   3.253  18.351  0.00  0.00    +0.000 A 
ATOM      5  C   UNL     1       2.626   1.961  18.038  0.00  0.00    +0.000 A 
ATOM      6  C   UNL     1       1.369   1.541  18.502  0.00  0.00    +0.000 A 
ATOM      7  C   UNL     1       0.557   2.422  19.250  0.00  0.00    +0.000 A 
ATOM      8  C   UNL     1       1.019   3.712  19.591  0.00  0.00    +0.000 A 
ATOM      9  C   UNL     1       2.286   4.097  19.131  0.00  0.00    +0.000 A 
ATOM     10  N   UNL     1       3.003   5.225  19.352  0.00  0.00    +0.000 N 
ATOM     11  H   UNL     1       5.084   6.908  18.988  0.00  0.00    +0.000 HD
ENDROOT
BRANCH   1  15
ATOM     12  N   UNL     1       8.319   7.820  18.205  0.00  0.00    +0.000 NA
ATOM     13  C   UNL     1       8.067   6.693  19.131  0.00  0.00    +0.000 C 
ATOM     14  C   UNL     1       7.603   5.473  18.341  0.00  0.00    +0.000 C 
ATOM     15  C   UNL     1       6.298   5.787  17.587  0.00  0.00    +0.000 C 
ATOM     16  C   UNL     1       6.536   7.018  16.695  0.00  0.00    +0.000 C 
ATOM     17  C   UNL     1       7.064   8.202  17.520  0.00  0.00    +0.000 C 
BRANCH  12  18
ATOM     18  C   UNL     1       8.916   8.987  18.891  0.00  0.00    +0.000 C 
BRANCH  18  19
ATOM     19  C   UNL     1       8.844  10.271  18.034  0.00  0.00    +0.000 C 
BRANCH  19  24
ATOM     20  C   UNL     1      11.369  13.156  17.910  0.00  0.00    +0.000 A 
ATOM     21  C   UNL     1      11.898  13.084  19.213  0.00  0.00    +0.000 A 
ATOM     22  C   UNL     1      11.435  12.124  20.110  0.00  0.00    +0.000 A 
ATOM     23  C   UNL     1      10.445  11.223  19.725  0.00  0.00    +0.000 A 
ATOM     24  C   UNL     1       9.910  11.265  18.430  0.00  0.00    +0.000 A 
ATOM     25  C   UNL     1      10.380  12.235  17.522  0.00  0.00    +0.000 A 
BRANCH  20  27
ATOM     26  C   UNL     1      11.382  15.422  17.024  0.00  0.00    +0.000 C 
ATOM     27  O   UNL     1      11.777  14.098  17.016  0.00  0.00    +0.000 OA
ENDBRANCH  20  27
ENDBRANCH  19  24
ENDBRANCH  18  19
ENDBRANCH  12  18
ENDBRANCH   1  15
BRANCH  10  28
ATOM     28  C   UNL     1       2.700   6.304  20.324  0.00  0.00    +0.000 C 
BRANCH  28  29
ATOM     29  C   UNL     1       2.007   7.577  19.874  0.00  0.00    +0.000 A 
ATOM     30  C   UNL     1       1.217   8.409  20.688  0.00  0.00    +0.000 A 
ATOM     31  C   UNL     1       0.627   9.564  20.145  0.00  0.00    +0.000 A 
ATOM     32  C   UNL     1       0.808   9.892  18.795  0.00  0.00    +0.000 A 
ATOM     33  F   UNL     1       0.233  11.005  18.273  0.00  0.00    +0.000 F 
ATOM     34  C   UNL     1       1.585   9.070  17.982  0.00  0.00    +0.000 A 
ATOM     35  C   UNL     1       2.181   7.929  18.518  0.00  0.00    +0.000 A 
ENDBRANCH  28  29
ENDBRANCH  10  28
TORSDOF 7
ENDMDL
MODEL 2
REMARK VINA RESULT:      -8.9      1.054      1.404
REMARK  Name = 
REMARK  8 active torsions:
REMARK  status: ('A' for Active; 'I' for Inactive)
REMARK    1  A    between atoms: C_1  and  O_2
REMARK    2  A    between atoms: O_2  and  C_3
REMARK    3  A    between atoms: C_7  and  C_8
REMARK    4  A    between atoms: C_8  and  C_9
REMARK    5  A    between atoms: C_9  and  N_10
REMARK    6  A    between atoms: C_13  and  N_14
REMARK    7  A    between atoms: N_23  and  C_24
REMARK    8  A    between atoms: C_24  and  C_25
REMARK                            x       y       z     vdW  Elec       q    Type
REMARK                         _______ _______ _______ _____ _____    ______ ____
ROOT
ATOM      1  N   UNL     1       5.537   5.752  18.911  0.00  0.00    +0.000 N 
ATOM      2  C   UNL     1       4.432   4.864  18.908  0.00  0.00    +0.000 A 
ATOM      3  N   UNL     1       4.504   3.621  18.363  0.00  0.00    +0.000 NA
ATOM      4  C   UNL     1       3.285   3.103  18.563  0.00  0.00    +0.000 A 
ATOM      5  C   UNL     1       2.861   1.814  18.257  0.00  0.00    +0.000 A 
ATOM      6  C   UNL     1       1.525   1.484  18.537  0.00  0.00    +0.000 A 
ATOM      7  C   UNL     1       0.657   2.446  19.100  0.00  0.00    +0.000 A 
ATOM      8  C   UNL     1       1.133   3.731  19.442  0.00  0.00    +0.000 A 
ATOM      9  C   UNL     1       2.476   4.026  19.169  0.00  0.00    +0.000 A 
ATOM     10  N   UNL     1       3.212   5.131  19.443  0.00  0.00    +0.000 N 
ATOM     11  H   UNL     1       5.417   6.687  19.326  0.00  0.00    +0.000 HD
ENDROOT
BRANCH   1  15
ATOM     12  N   UNL     1       8.206   7.949  17.776  0.00  0.00    +0.000 NA
ATOM     13  C   UNL     1       8.109   7.344  19.124  0.00  0.00    +0.000 C 
ATOM     14  C   UNL     1       8.019   5.826  19.001  0.00  0.00    +0.000 C 
ATOM     15  C   UNL     1       6.768   5.427  18.197  0.00  0.00    +0.000 C 
ATOM     16  C   UNL     1       6.825   6.131  16.830  0.00  0.00    +0.000 C 
ATOM     17  C   UNL     1       6.981   7.651  17.000  0.00  0.00    +0.000 C 
BRANCH  12  18
ATOM     18  C   UNL     1       8.447   9.407  17.832  0.00  0.00    +0.000 C 
BRANCH  18  19
ATOM     19  C   UNL     1       9.170   9.832  19.130  0.00  0.00    +0.000 C 
BRANCH  19  24
ATOM     20  C   UNL     1       9.631  13.565  18.376  0.00  0.00    +0.000 A 
ATOM     21  C   UNL     1      10.970  13.739  18.774  0.00  0.00    +0.000 A 
ATOM     22  C   UNL     1      11.699  12.667  19.284  0.00  0.00    +0.000 A 
ATOM     23  C   UNL     1      11.110  11.410  19.402  0.00  0.00    +0.000 A 
ATOM     24  C   UNL     1       9.783  11.207  19.000  0.00  0.00    +0.000 A 
ATOM     25  C   UNL     1       9.046  12.291  18.483  0.00  0.00    +0.000 A 
BRANCH  20  27
ATOM     26  C   UNL     1       7.498  14.635  17.897  0.00  0.00    +0.000 C 
ATOM     27  O   UNL     1       8.879  14.595  17.899  0.00  0.00    +0.000 OA
ENDBRANCH  20  27
ENDBRANCH  19  24
ENDBRANCH  18  19
ENDBRANCH  12  18
ENDBRANCH   1  15
BRANCH  10  28
ATOM     28  C   UNL     1       2.824   6.280  20.295  0.00  0.00    +0.000 C 
BRANCH  28  29
ATOM     29  C   UNL     1       2.181   7.513  19.686  0.00  0.00    +0.000 A 
ATOM     30  C   UNL     1       2.315   7.927  18.348  0.00  0.00    +0.000 A 
ATOM     31  C   UNL     1       1.666   9.095  17.909  0.00  0.00    +0.000 A 
ATOM     32  C   UNL     1       0.893   9.858  18.793  0.00  0.00    +0.000 A 
ATOM     33  F   UNL     1       0.271  10.987  18.367  0.00  0.00    +0.000 F 
ATOM     34  C   UNL     1       0.760   9.456  20.120  0.00  0.00    +0.000 A 
ATOM     35  C   UNL     1       1.394   8.293  20.558  0.00  0.00    +0.000 A 
ENDBRANCH  28  29
ENDBRANCH  10  28
TORSDOF 7
ENDMDL
MODEL 3
REMARK VINA RESULT:      -8.7      1.097      1.649
REMARK  Name = 
REMARK  8 active torsions:
REMARK  status: ('A' for Active; 'I' for Inactive)
REMARK    1  A    between atoms: C_1  and  O_2
REMARK    2  A    between atoms: O_2  and  C_3
REMARK    3  A    between atoms: C_7  and  C_8
REMARK    4  A    between atoms: C_8  and  C_9
REMARK    5  A    between atoms: C_9  and  N_10
REMARK    6  A    between atoms: C_13  and  N_14
REMARK    7  A    between atoms: N_23  and  C_24
REMARK    8  A    between atoms: C_24  and  C_25
REMARK                            x       y       z     vdW  Elec       q    Type
REMARK                         _______ _______ _______ _____ _____    ______ ____
ROOT
ATOM      1  N   UNL     1       5.203   6.038  18.475  0.00  0.00    +0.000 N 
ATOM      2  C   UNL     1       4.164   5.081  18.605  0.00  0.00    +0.000 A 
ATOM      3  N   UNL     1       4.252   3.840  18.057  0.00  0.00    +0.000 NA
ATOM      4  C   UNL     1       3.100   3.248  18.401  0.00  0.00    +0.000 A 
ATOM      5  C   UNL     1       2.727   1.932  18.151  0.00  0.00    +0.000 A 
ATOM      6  C   UNL     1       1.457   1.521  18.587  0.00  0.00    +0.000 A 
ATOM      7  C   UNL     1       0.601   2.431  19.246  0.00  0.00    +0.000 A 
ATOM      8  C   UNL     1       1.031   3.747  19.527  0.00  0.00    +0.000 A 
ATOM      9  C   UNL     1       2.310   4.124  19.096  0.00  0.00    +0.000 A 
ATOM     10  N   UNL     1       3.002   5.276  19.279  0.00  0.00    +0.000 N 
ATOM     11  H   UNL     1       5.073   6.967  18.899  0.00  0.00    +0.000 HD
ENDROOT
BRANCH   1  15
ATOM     12  N   UNL     1       8.356   7.839  18.250  0.00  0.00    +0.000 NA
ATOM     13  C   UNL     1       8.058   6.749  19.207  0.00  0.00    +0.000 C 
ATOM     14  C   UNL     1       7.629   5.499  18.445  0.00  0.00    +0.000 C 
ATOM     15  C   UNL     1       6.360   5.784  17.621  0.00  0.00    +0.000 C 
ATOM     16  C   UNL     1       6.643   6.978  16.692  0.00  0.00    +0.000 C 
ATOM     17  C   UNL     1       7.134   8.194  17.493  0.00  0.00    +0.000 C 
BRANCH  12  18
ATOM     18  C   UNL     1       8.922   9.032  18.917  0.00  0.00    +0.000 C 
BRANCH  18  19
ATOM     19  C   UNL     1       8.989  10.254  17.975  0.00  0.00    +0.000 C 
BRANCH  19  24
ATOM     20  C   UNL     1      10.341  13.004  20.282  0.00  0.00    +0.000 A 
ATOM     21  C   UNL     1      11.488  13.393  19.565  0.00  0.00    +0.000 A 
ATOM     22  C   UNL     1      11.816  12.767  18.364  0.00  0.00    +0.000 A 
ATOM     23  C   UNL     1      11.008  11.750  17.860  0.00  0.00    +0.000 A 
ATOM     24  C   UNL     1       9.853  11.352  18.547  0.00  0.00    +0.000 A 
ATOM     25  C   UNL     1       9.521  11.988  19.761  0.00  0.00    +0.000 A 
BRANCH  20  27
ATOM     26  C   UNL     1      10.283  14.879  21.833  0.00  0.00    +0.000 C 
ATOM     27  O   UNL     1      10.005  13.574  21.472  0.00  0.00    +0.000 OA
ENDBRANCH  20  27
ENDBRANCH  19  24
ENDBRANCH  18  19
ENDBRANCH  12  18
ENDBRANCH   1  15
BRANCH  10  28
ATOM     28  C   UNL     1       2.643   6.406  20.168  0.00  0.00    +0.000 C 
BRANCH  28  29
ATOM     29  C   UNL     1       2.029   7.673  19.600  0.00  0.00    +0.000 A 
ATOM     30  C   UNL     1       2.165   8.123  18.275  0.00  0.00    +0.000 A 
ATOM     31  C   UNL     1       1.544   9.320  17.875  0.00  0.00    +0.000 A 
ATOM     32  C   UNL     1       0.796  10.076  18.787  0.00  0.00    +0.000 A 
ATOM     33  F   UNL     1       0.201  11.232  18.399  0.00  0.00    +0.000 F 
ATOM     34  C   UNL     1       0.661   9.638  20.102  0.00  0.00    +0.000 A 
ATOM     35  C   UNL     1       1.267   8.447  20.501  0.00  0.00    +0.000 A 
ENDBRANCH  28  29
ENDBRANCH  10  28
TORSDOF 7
ENDMDL
MODEL 4
REMARK VINA RESULT:      -8.3      5.472      9.152
REMARK  Name = 
REMARK  8 active torsions:
REMARK  status: ('A' for Active; 'I' for Inactive)
REMARK    1  A    between atoms: C_1  and  O_2
REMARK    2  A    between atoms: O_2  and  C_3
REMARK    3  A    between atoms: C_7  and  C_8
REMARK    4  A    between atoms: C_8  and  C_9
REMARK    5  A    between atoms: C_9  and  N_10
REMARK    6  A    between atoms: C_13  and  N_14
REMARK    7  A    between atoms: N_23  and  C_24
REMARK    8  A    between atoms: C_24  and  C_25
REMARK                            x       y       z     vdW  Elec       q    Type
REMARK                         _______ _______ _______ _____ _____    ______ ____
ROOT
ATOM      1  N   UNL     1       1.887   7.877  20.517  0.00  0.00    +0.000 N 
ATOM      2  C   UNL     1       2.001   6.521  20.121  0.00  0.00    +0.000 A 
ATOM      3  N   UNL     1       1.278   5.532  20.711  0.00  0.00    +0.000 NA
ATOM      4  C   UNL     1       1.654   4.420  20.065  0.00  0.00    +0.000 A 
ATOM      5  C   UNL     1       1.146   3.137  20.239  0.00  0.00    +0.000 A 
ATOM      6  C   UNL     1       1.701   2.106  19.465  0.00  0.00    +0.000 A 
ATOM      7  C   UNL     1       2.745   2.383  18.553  0.00  0.00    +0.000 A 
ATOM      8  C   UNL     1       3.204   3.705  18.367  0.00  0.00    +0.000 A 
ATOM      9  C   UNL     1       2.619   4.717  19.140  0.00  0.00    +0.000 A 
ATOM     10  N   UNL     1       2.807   6.060  19.130  0.00  0.00    +0.000 N 
ATOM     11  H   UNL     1       2.472   8.580  20.042  0.00  0.00    +0.000 HD
ENDROOT
BRANCH   1  15
ATOM     12  N   UNL     1      -0.313  10.737  20.980  0.00  0.00    +0.000 NA
ATOM     13  C   UNL     1      -0.705   9.443  20.376  0.00  0.00    +0.000 C 
ATOM     14  C   UNL     1      -0.412   8.310  21.355  0.00  0.00    +0.000 C 
ATOM     15  C   UNL     1       1.093   8.260  21.680  0.00  0.00    +0.000 C 
ATOM     16  C   UNL     1       1.518   9.636  22.221  0.00  0.00    +0.000 C 
ATOM     17  C   UNL     1       1.145  10.754  21.234  0.00  0.00    +0.000 C 
BRANCH  12  18
ATOM     18  C   UNL     1      -0.711  11.890  20.143  0.00  0.00    +0.000 C 
BRANCH  18  19
ATOM     19  C   UNL     1      -0.746  11.537  18.639  0.00  0.00    +0.000 C 
BRANCH  19  24
ATOM     20  C   UNL     1      -3.774  10.772  16.411  0.00  0.00    +0.000 A 
ATOM     21  C   UNL     1      -4.811  11.295  17.206  0.00  0.00    +0.000 A 
ATOM     22  C   UNL     1      -4.528  11.874  18.442  0.00  0.00    +0.000 A 
ATOM     23  C   UNL     1      -3.215  11.943  18.901  0.00  0.00    +0.000 A 
ATOM     24  C   UNL     1      -2.163  11.442  18.123  0.00  0.00    +0.000 A 
ATOM     25  C   UNL     1      -2.449  10.858  16.872  0.00  0.00    +0.000 A 
BRANCH  20  27
ATOM     26  C   UNL     1      -3.165  10.211  14.123  0.00  0.00    +0.000 C 
ATOM     27  O   UNL     1      -4.015  10.175  15.212  0.00  0.00    +0.000 OA
ENDBRANCH  20  27
ENDBRANCH  19  24
ENDBRANCH  18  19
ENDBRANCH  12  18
ENDBRANCH   1  15
BRANCH  10  28
ATOM     28  C   UNL     1       3.572   6.851  18.136  0.00  0.00    +0.000 C 
BRANCH  28  29
ATOM     29  C   UNL     1       4.794   6.263  17.456  0.00  0.00    +0.000 A 
ATOM     30  C   UNL     1       6.027   5.995  18.079  0.00  0.00    +0.000 A 
ATOM     31  C   UNL     1       7.085   5.448  17.331  0.00  0.00    +0.000 A 
ATOM     32  C   UNL     1       6.929   5.175  15.966  0.00  0.00    +0.000 A 
ATOM     33  F   UNL     1       7.953   4.652  15.247  0.00  0.00    +0.000 F 
ATOM     34  C   UNL     1       5.713   5.442  15.342  0.00  0.00    +0.000 A 
ATOM     35  C   UNL     1       4.657   5.975  16.081  0.00  0.00    +0.000 A 
ENDBRANCH  28  29
ENDBRANCH  10  28
TORSDOF 7
ENDMDL
MODEL 5
REMARK VINA RESULT:      -8.3      1.401      1.583
REMARK  Name = 
REMARK  8 active torsions:
REMARK  status: ('A' for Active; 'I' for Inactive)
REMARK    1  A    between atoms: C_1  and  O_2
REMARK    2  A    between atoms: O_2  and  C_3
REMARK    3  A    between atoms: C_7  and  C_8
REMARK    4  A    between atoms: C_8  and  C_9
REMARK    5  A    between atoms: C_9  and  N_10
REMARK    6  A    between atoms: C_13  and  N_14
REMARK    7  A    between atoms: N_23  and  C_24
REMARK    8  A    between atoms: C_24  and  C_25
REMARK                            x       y       z     vdW  Elec       q    Type
REMARK                         _______ _______ _______ _____ _____    ______ ____
ROOT
ATOM      1  N   UNL     1       4.996   5.354  17.359  0.00  0.00    +0.000 N 
ATOM      2  C   UNL     1       4.128   4.731  18.291  0.00  0.00    +0.000 A 
ATOM      3  N   UNL     1       4.551   3.747  19.128  0.00  0.00    +0.000 NA
ATOM      4  C   UNL     1       3.462   3.431  19.842  0.00  0.00    +0.000 A 
ATOM      5  C   UNL     1       3.383   2.528  20.896  0.00  0.00    +0.000 A 
ATOM      6  C   UNL     1       2.129   2.335  21.496  0.00  0.00    +0.000 A 
ATOM      7  C   UNL     1       0.998   3.038  21.024  0.00  0.00    +0.000 A 
ATOM      8  C   UNL     1       1.123   3.984  19.983  0.00  0.00    +0.000 A 
ATOM      9  C   UNL     1       2.391   4.170  19.415  0.00  0.00    +0.000 A 
ATOM     10  N   UNL     1       2.817   5.039  18.466  0.00  0.00    +0.000 N 
ATOM     11  H   UNL     1       4.614   6.084  16.741  0.00  0.00    +0.000 HD
ENDROOT
BRANCH   1  15
ATOM     12  N   UNL     1       8.169   6.886  18.265  0.00  0.00    +0.000 NA
ATOM     13  C   UNL     1       7.346   6.031  19.151  0.00  0.00    +0.000 C 
ATOM     14  C   UNL     1       7.107   4.680  18.484  0.00  0.00    +0.000 C 
ATOM     15  C   UNL     1       6.357   4.866  17.152  0.00  0.00    +0.000 C 
ATOM     16  C   UNL     1       7.168   5.830  16.268  0.00  0.00    +0.000 C 
ATOM     17  C   UNL     1       7.442   7.152  17.003  0.00  0.00    +0.000 C 
BRANCH  12  18
ATOM     18  C   UNL     1       8.563   8.154  18.918  0.00  0.00    +0.000 C 
BRANCH  18  19
ATOM     19  C   UNL     1       8.379   9.374  17.987  0.00  0.00    +0.000 C 
BRANCH  19  24
ATOM     20  C   UNL     1       9.519  13.005  18.462  0.00  0.00    +0.000 A 
ATOM     21  C   UNL     1      10.214  12.894  19.681  0.00  0.00    +0.000 A 
ATOM     22  C   UNL     1      10.299  11.666  20.335  0.00  0.00    +0.000 A 
ATOM     23  C   UNL     1       9.699  10.536  19.785  0.00  0.00    +0.000 A 
ATOM     24  C   UNL     1       9.013  10.616  18.567  0.00  0.00    +0.000 A 
ATOM     25  C   UNL     1       8.928  11.858  17.905  0.00  0.00    +0.000 A 
BRANCH  20  27
ATOM     26  C   UNL     1       9.535  15.438  18.392  0.00  0.00    +0.000 C 
ATOM     27  O   UNL     1       9.391  14.193  17.810  0.00  0.00    +0.000 OA
ENDBRANCH  20  27
ENDBRANCH  19  24
ENDBRANCH  18  19
ENDBRANCH  12  18
ENDBRANCH   1  15
BRANCH  10  28
ATOM     28  C   UNL     1       2.066   6.183  17.895  0.00  0.00    +0.000 C 
BRANCH  28  29
ATOM     29  C   UNL     1       1.798   7.424  18.727  0.00  0.00    +0.000 A 
ATOM     30  C   UNL     1       1.723   7.466  20.131  0.00  0.00    +0.000 A 
ATOM     31  C   UNL     1       1.466   8.686  20.782  0.00  0.00    +0.000 A 
ATOM     32  C   UNL     1       1.274   9.862  20.045  0.00  0.00    +0.000 A 
ATOM     33  F   UNL     1       1.022  11.037  20.676  0.00  0.00    +0.000 F 
ATOM     34  C   UNL     1       1.343   9.826  18.655  0.00  0.00    +0.000 A 
ATOM     35  C   UNL     1       1.607   8.621  18.005  0.00  0.00    +0.000 A 
ENDBRANCH  28  29
ENDBRANCH  10  28
TORSDOF 7
ENDMDL
MODEL 6
REMARK VINA RESULT:      -8.2      4.327      8.437
REMARK  Name = 
REMARK  8 active torsions:
REMARK  status: ('A' for Active; 'I' for Inactive)
REMARK    1  A    between atoms: C_1  and  O_2
REMARK    2  A    between atoms: O_2  and  C_3
REMARK    3  A    between atoms: C_7  and  C_8
REMARK    4  A    between atoms: C_8  and  C_9
REMARK    5  A    between atoms: C_9  and  N_10
REMARK    6  A    between atoms: C_13  and  N_14
REMARK    7  A    between atoms: N_23  and  C_24
REMARK    8  A    between atoms: C_24  and  C_25
REMARK                            x       y       z     vdW  Elec       q    Type
REMARK                         _______ _______ _______ _____ _____    ______ ____
ROOT
ATOM      1  N   UNL     1       4.217   3.333  17.101  0.00  0.00    +0.000 N 
ATOM      2  C   UNL     1       5.195   4.300  17.447  0.00  0.00    +0.000 A 
ATOM      3  N   UNL     1       5.882   4.246  18.619  0.00  0.00    +0.000 NA
ATOM      4  C   UNL     1       6.701   5.306  18.569  0.00  0.00    +0.000 A 
ATOM      5  C   UNL     1       7.673   5.658  19.498  0.00  0.00    +0.000 A 
ATOM      6  C   UNL     1       8.411   6.828  19.256  0.00  0.00    +0.000 A 
ATOM      7  C   UNL     1       8.152   7.609  18.109  0.00  0.00    +0.000 A 
ATOM      8  C   UNL     1       7.189   7.197  17.160  0.00  0.00    +0.000 A 
ATOM      9  C   UNL     1       6.481   6.015  17.418  0.00  0.00    +0.000 A 
ATOM     10  N   UNL     1       5.564   5.352  16.672  0.00  0.00    +0.000 N 
ATOM     11  H   UNL     1       3.718   3.435  16.205  0.00  0.00    +0.000 HD
ENDROOT
BRANCH   1  15
ATOM     12  N   UNL     1       1.879   3.581  19.877  0.00  0.00    +0.000 NA
ATOM     13  C   UNL     1       1.513   3.288  18.473  0.00  0.00    +0.000 C 
ATOM     14  C   UNL     1       2.277   2.059  17.989  0.00  0.00    +0.000 C 
ATOM     15  C   UNL     1       3.795   2.312  18.055  0.00  0.00    +0.000 C 
ATOM     16  C   UNL     1       4.159   2.708  19.497  0.00  0.00    +0.000 C 
ATOM     17  C   UNL     1       3.320   3.907  19.966  0.00  0.00    +0.000 C 
BRANCH  12  18
ATOM     18  C   UNL     1       1.060   4.670  20.454  0.00  0.00    +0.000 C 
BRANCH  18  19
ATOM     19  C   UNL     1       1.925   5.837  20.980  0.00  0.00    +0.000 C 
BRANCH  19  24
ATOM     20  C   UNL     1       1.147   9.346  19.638  0.00  0.00    +0.000 A 
ATOM     21  C   UNL     1       1.707   9.254  18.350  0.00  0.00    +0.000 A 
ATOM     22  C   UNL     1       2.331   8.079  17.935  0.00  0.00    +0.000 A 
ATOM     23  C   UNL     1       2.403   6.982  18.791  0.00  0.00    +0.000 A 
ATOM     24  C   UNL     1       1.842   7.043  20.074  0.00  0.00    +0.000 A 
ATOM     25  C   UNL     1       1.209   8.231  20.492  0.00  0.00    +0.000 A 
BRANCH  20  27
ATOM     26  C   UNL     1      -0.215  11.337  19.317  0.00  0.00    +0.000 C 
ATOM     27  O   UNL     1       0.555  10.486  20.087  0.00  0.00    +0.000 OA
ENDBRANCH  20  27
ENDBRANCH  19  24
ENDBRANCH  18  19
ENDBRANCH  12  18
ENDBRANCH   1  15
BRANCH  10  28
ATOM     28  C   UNL     1       5.195   5.616  15.260  0.00  0.00    +0.000 C 
BRANCH  28  29
ATOM     29  C   UNL     1       5.909   4.900  14.128  0.00  0.00    +0.000 A 
ATOM     30  C   UNL     1       7.218   5.168  13.688  0.00  0.00    +0.000 A 
ATOM     31  C   UNL     1       7.763   4.429  12.623  0.00  0.00    +0.000 A 
ATOM     32  C   UNL     1       7.012   3.433  11.986  0.00  0.00    +0.000 A 
ATOM     33  F   UNL     1       7.540   2.725  10.956  0.00  0.00    +0.000 F 
ATOM     34  C   UNL     1       5.714   3.165  12.414  0.00  0.00    +0.000 A 
ATOM     35  C   UNL     1       5.172   3.888  13.477  0.00  0.00    +0.000 A 
ENDBRANCH  28  29
ENDBRANCH  10  28
TORSDOF 7
ENDMDL
MODEL 7
REMARK VINA RESULT:      -8.1      7.292     12.103
REMARK  Name = 
REMARK  8 active torsions:
REMARK  status: ('A' for Active; 'I' for Inactive)
REMARK    1  A    between atoms: C_1  and  O_2
REMARK    2  A    between atoms: O_2  and  C_3
REMARK    3  A    between atoms: C_7  and  C_8
REMARK    4  A    between atoms: C_8  and  C_9
REMARK    5  A    between atoms: C_9  and  N_10
REMARK    6  A    between atoms: C_13  and  N_14
REMARK    7  A    between atoms: N_23  and  C_24
REMARK    8  A    between atoms: C_24  and  C_25
REMARK                            x       y       z     vdW  Elec       q    Type
REMARK                         _______ _______ _______ _____ _____    ______ ____
ROOT
ATOM      1  N   UNL     1      -0.710  12.362  21.214  0.00  0.00    +0.000 N 
ATOM      2  C   UNL     1      -0.045  11.287  20.571  0.00  0.00    +0.000 A 
ATOM      3  N   UNL     1       0.540  10.278  21.269  0.00  0.00    +0.000 NA
ATOM      4  C   UNL     1       1.043   9.472  20.323  0.00  0.00    +0.000 A 
ATOM      5  C   UNL     1       1.676   8.249  20.513  0.00  0.00    +0.000 A 
ATOM      6  C   UNL     1       2.145   7.575  19.374  0.00  0.00    +0.000 A 
ATOM      7  C   UNL     1       1.978   8.142  18.091  0.00  0.00    +0.000 A 
ATOM      8  C   UNL     1       1.288   9.364  17.930  0.00  0.00    +0.000 A 
ATOM      9  C   UNL     1       0.814  10.005  19.082  0.00  0.00    +0.000 A 
ATOM     10  N   UNL     1       0.074  11.132  19.227  0.00  0.00    +0.000 N 
ATOM     11  H   UNL     1      -1.121  13.106  20.632  0.00  0.00    +0.000 HD
ENDROOT
BRANCH   1  15
ATOM     12  N   UNL     1      -3.260  13.630  23.477  0.00  0.00    +0.000 NA
ATOM     13  C   UNL     1      -3.150  12.230  23.009  0.00  0.00    +0.000 C 
ATOM     14  C   UNL     1      -1.769  11.680  23.355  0.00  0.00    +0.000 C 
ATOM     15  C   UNL     1      -0.673  12.512  22.666  0.00  0.00    +0.000 C 
ATOM     16  C   UNL     1      -0.847  13.984  23.080  0.00  0.00    +0.000 C 
ATOM     17  C   UNL     1      -2.270  14.477  22.774  0.00  0.00    +0.000 C 
BRANCH  12  18
ATOM     18  C   UNL     1      -4.626  14.172  23.306  0.00  0.00    +0.000 C 
BRANCH  18  19
ATOM     19  C   UNL     1      -4.868  14.712  21.879  0.00  0.00    +0.000 C 
BRANCH  19  24
ATOM     20  C   UNL     1      -7.241  11.865  20.889  0.00  0.00    +0.000 A 
ATOM     21  C   UNL     1      -7.830  12.417  19.736  0.00  0.00    +0.000 A 
ATOM     22  C   UNL     1      -7.468  13.690  19.300  0.00  0.00    +0.000 A 
ATOM     23  C   UNL     1      -6.516  14.428  19.999  0.00  0.00    +0.000 A 
ATOM     24  C   UNL     1      -5.904  13.896  21.143  0.00  0.00    +0.000 A 
ATOM     25  C   UNL     1      -6.270  12.608  21.583  0.00  0.00    +0.000 A 
BRANCH  20  27
ATOM     26  C   UNL     1      -7.656   9.485  20.600  0.00  0.00    +0.000 C 
ATOM     27  O   UNL     1      -7.590  10.637  21.361  0.00  0.00    +0.000 OA
ENDBRANCH  20  27
ENDBRANCH  19  24
ENDBRANCH  18  19
ENDBRANCH  12  18
ENDBRANCH   1  15
BRANCH  10  28
ATOM     28  C   UNL     1      -0.604  11.904  18.158  0.00  0.00    +0.000 C 
BRANCH  28  29
ATOM     29  C   UNL     1      -2.058  11.635  17.815  0.00  0.00    +0.000 A 
ATOM     30  C   UNL     1      -2.528  11.123  16.591  0.00  0.00    +0.000 A 
ATOM     31  C   UNL     1      -3.906  10.922  16.400  0.00  0.00    +0.000 A 
ATOM     32  C   UNL     1      -4.822  11.234  17.414  0.00  0.00    +0.000 A 
ATOM     33  F   UNL     1      -6.152  11.042  17.225  0.00  0.00    +0.000 F 
ATOM     34  C   UNL     1      -4.364  11.745  18.626  0.00  0.00    +0.000 A 
ATOM     35  C   UNL     1      -2.996  11.938  18.824  0.00  0.00    +0.000 A 
ENDBRANCH  28  29
ENDBRANCH  10  28
TORSDOF 7
ENDMDL
MODEL 8
REMARK VINA RESULT:      -8.1      1.266      1.597
REMARK  Name = 
REMARK  8 active torsions:
REMARK  status: ('A' for Active; 'I' for Inactive)
REMARK    1  A    between atoms: C_1  and  O_2
REMARK    2  A    between atoms: O_2  and  C_3
REMARK    3  A    between atoms: C_7  and  C_8
REMARK    4  A    between atoms: C_8  and  C_9
REMARK    5  A    between atoms: C_9  and  N_10
REMARK    6  A    between atoms: C_13  and  N_14
REMARK    7  A    between atoms: N_23  and  C_24
REMARK    8  A    between atoms: C_24  and  C_25
REMARK                            x       y       z     vdW  Elec       q    Type
REMARK                         _______ _______ _______ _____ _____    ______ ____
ROOT
ATOM      1  N   UNL     1       5.083   5.618  17.404  0.00  0.00    +0.000 N 
ATOM      2  C   UNL     1       4.205   4.946  18.291  0.00  0.00    +0.000 A 
ATOM      3  N   UNL     1       4.620   3.920  19.081  0.00  0.00    +0.000 NA
ATOM      4  C   UNL     1       3.523   3.566  19.764  0.00  0.00    +0.000 A 
ATOM      5  C   UNL     1       3.433   2.609  20.768  0.00  0.00    +0.000 A 
ATOM      6  C   UNL     1       2.172   2.383  21.342  0.00  0.00    +0.000 A 
ATOM      7  C   UNL     1       1.045   3.107  20.893  0.00  0.00    +0.000 A 
ATOM      8  C   UNL     1       1.181   4.106  19.904  0.00  0.00    +0.000 A 
ATOM      9  C   UNL     1       2.455   4.323  19.362  0.00  0.00    +0.000 A 
ATOM     10  N   UNL     1       2.891   5.241  18.465  0.00  0.00    +0.000 N 
ATOM     11  H   UNL     1       4.707   6.378  16.819  0.00  0.00    +0.000 HD
ENDROOT
BRANCH   1  15
ATOM     12  N   UNL     1       8.240   7.104  18.433  0.00  0.00    +0.000 NA
ATOM     13  C   UNL     1       7.408   6.201  19.261  0.00  0.00    +0.000 C 
ATOM     14  C   UNL     1       7.180   4.888  18.519  0.00  0.00    +0.000 C 
ATOM     15  C   UNL     1       6.447   5.144  17.189  0.00  0.00    +0.000 C 
ATOM     16  C   UNL     1       7.268   6.155  16.369  0.00  0.00    +0.000 C 
ATOM     17  C   UNL     1       7.530   7.436  17.177  0.00  0.00    +0.000 C 
BRANCH  12  18
ATOM     18  C   UNL     1       8.623   8.335  19.158  0.00  0.00    +0.000 C 
BRANCH  18  19
ATOM     19  C   UNL     1       8.627   9.578  18.240  0.00  0.00    +0.000 C 
BRANCH  19  24
ATOM     20  C   UNL     1      11.132  12.475  18.459  0.00  0.00    +0.000 A 
ATOM     21  C   UNL     1      11.157  12.682  19.852  0.00  0.00    +0.000 A 
ATOM     22  C   UNL     1      10.368  11.902  20.695  0.00  0.00    +0.000 A 
ATOM     23  C   UNL     1       9.549  10.905  20.167  0.00  0.00    +0.000 A 
ATOM     24  C   UNL     1       9.516  10.670  18.786  0.00  0.00    +0.000 A 
ATOM     25  C   UNL     1      10.315  11.459  17.934  0.00  0.00    +0.000 A 
BRANCH  20  27
ATOM     26  C   UNL     1      11.343  14.099  16.659  0.00  0.00    +0.000 C 
ATOM     27  O   UNL     1      11.867  13.237  17.603  0.00  0.00    +0.000 OA
ENDBRANCH  20  27
ENDBRANCH  19  24
ENDBRANCH  18  19
ENDBRANCH  12  18
ENDBRANCH   1  15
BRANCH  10  28
ATOM     28  C   UNL     1       2.145   6.412  17.945  0.00  0.00    +0.000 C 
BRANCH  28  29
ATOM     29  C   UNL     1       1.798   7.575  18.856  0.00  0.00    +0.000 A 
ATOM     30  C   UNL     1       1.506   8.885  18.434  0.00  0.00    +0.000 A 
ATOM     31  C   UNL     1       1.200   9.875  19.385  0.00  0.00    +0.000 A 
ATOM     32  C   UNL     1       1.193   9.573  20.753  0.00  0.00    +0.000 A 
ATOM     33  F   UNL     1       0.902  10.532  21.668  0.00  0.00    +0.000 F 
ATOM     34  C   UNL     1       1.486   8.280  21.178  0.00  0.00    +0.000 A 
ATOM     35  C   UNL     1       1.780   7.292  20.238  0.00  0.00    +0.000 A 
ENDBRANCH  28  29
ENDBRANCH  10  28
TORSDOF 7
ENDMDL
MODEL 9
REMARK VINA RESULT:      -8.1      6.498     10.685
REMARK  Name = 
REMARK  8 active torsions:
REMARK  status: ('A' for Active; 'I' for Inactive)
REMARK    1  A    between atoms: C_1  and  O_2
REMARK    2  A    between atoms: O_2  and  C_3
REMARK    3  A    between atoms: C_7  and  C_8
REMARK    4  A    between atoms: C_8  and  C_9
REMARK    5  A    between atoms: C_9  and  N_10
REMARK    6  A    between atoms: C_13  and  N_14
REMARK    7  A    between atoms: N_23  and  C_24
REMARK    8  A    between atoms: C_24  and  C_25
REMARK                            x       y       z     vdW  Elec       q    Type
REMARK                         _______ _______ _______ _____ _____    ______ ____
ROOT
ATOM      1  N   UNL     1      -2.094  12.832  21.157  0.00  0.00    +0.000 N 
ATOM      2  C   UNL     1      -3.432  12.767  21.622  0.00  0.00    +0.000 A 
ATOM      3  N   UNL     1      -3.738  12.755  22.947  0.00  0.00    +0.000 NA
ATOM      4  C   UNL     1      -5.076  12.698  22.975  0.00  0.00    +0.000 A 
ATOM      5  C   UNL     1      -5.894  12.742  24.099  0.00  0.00    +0.000 A 
ATOM      6  C   UNL     1      -7.280  12.648  23.900  0.00  0.00    +0.000 A 
ATOM      7  C   UNL     1      -7.804  12.504  22.596  0.00  0.00    +0.000 A 
ATOM      8  C   UNL     1      -6.948  12.511  21.472  0.00  0.00    +0.000 A 
ATOM      9  C   UNL     1      -5.570  12.625  21.700  0.00  0.00    +0.000 A 
ATOM     10  N   UNL     1      -4.535  12.725  20.830  0.00  0.00    +0.000 N 
ATOM     11  H   UNL     1      -1.925  12.823  20.141  0.00  0.00    +0.000 HD
ENDROOT
BRANCH   1  15
ATOM     12  N   UNL     1       0.735  10.546  21.147  0.00  0.00    +0.000 NA
ATOM     13  C   UNL     1       0.663  11.823  20.401  0.00  0.00    +0.000 C 
ATOM     14  C   UNL     1       0.378  12.968  21.369  0.00  0.00    +0.000 C 
ATOM     15  C   UNL     1      -0.968  12.743  22.082  0.00  0.00    +0.000 C 
ATOM     16  C   UNL     1      -0.925  11.372  22.780  0.00  0.00    +0.000 C 
ATOM     17  C   UNL     1      -0.570  10.258  21.782  0.00  0.00    +0.000 C 
BRANCH  12  18
ATOM     18  C   UNL     1       1.159   9.419  20.288  0.00  0.00    +0.000 C 
BRANCH  18  19
ATOM     19  C   UNL     1       1.345   8.110  21.089  0.00  0.00    +0.000 C 
BRANCH  19  24
ATOM     20  C   UNL     1       2.179   4.603  19.778  0.00  0.00    +0.000 A 
ATOM     21  C   UNL     1       2.762   4.928  18.539  0.00  0.00    +0.000 A 
ATOM     22  C   UNL     1       2.870   6.259  18.139  0.00  0.00    +0.000 A 
ATOM     23  C   UNL     1       2.405   7.280  18.964  0.00  0.00    +0.000 A 
ATOM     24  C   UNL     1       1.833   6.984  20.208  0.00  0.00    +0.000 A 
ATOM     25  C   UNL     1       1.726   5.638  20.614  0.00  0.00    +0.000 A 
BRANCH  20  27
ATOM     26  C   UNL     1       1.808   2.919  21.495  0.00  0.00    +0.000 C 
ATOM     27  O   UNL     1       2.032   3.314  20.190  0.00  0.00    +0.000 OA
ENDBRANCH  20  27
ENDBRANCH  19  24
ENDBRANCH  18  19
ENDBRANCH  12  18
ENDBRANCH   1  15
BRANCH  10  28
ATOM     28  C   UNL     1      -4.611  12.931  19.364  0.00  0.00    +0.000 C 
BRANCH  28  29
ATOM     29  C   UNL     1      -4.005  11.919  18.408  0.00  0.00    +0.000 A 
ATOM     30  C   UNL     1      -2.839  11.168  18.646  0.00  0.00    +0.000 A 
ATOM     31  C   UNL     1      -2.380  10.262  17.673  0.00  0.00    +0.000 A 
ATOM     32  C   UNL     1      -3.068  10.104  16.462  0.00  0.00    +0.000 A 
ATOM     33  F   UNL     1      -2.620   9.232  15.524  0.00  0.00    +0.000 F 
ATOM     34  C   UNL     1      -4.220  10.848  16.220  0.00  0.00    +0.000 A 
ATOM     35  C   UNL     1      -4.685  11.741  17.185  0.00  0.00    +0.000 A 
ENDBRANCH  28  29
ENDBRANCH  10  28
TORSDOF 7
ENDMDL
