MODEL 1
REMARK VINA RESULT:      -8.7      0.000      0.000
REMARK  Name = 
REMARK  6 active torsions:
REMARK  status: ('A' for Active; 'I' for Inactive)
REMARK    1  A    between atoms: C_1  and  O_2
REMARK    2  A    between atoms: O_2  and  C_3
REMARK    3  A    between atoms: C_6  and  C_7
REMARK    4  A    between atoms: C_10  and  C_11
REMARK    5  A    between atoms: N_14  and  C_15
REMARK    6  A    between atoms: C_15  and  C_16
REMARK                            x       y       z     vdW  Elec       q    Type
REMARK                         _______ _______ _______ _____ _____    ______ ____
ROOT
ATOM      1  C   UNL     1       4.744   6.336  16.833  0.00  0.00    +0.000 C 
ATOM      2  C   UNL     1       6.073   5.662  17.331  0.00  0.00    +0.000 C 
ATOM      3  C   UNL     1       5.980   4.650  18.503  0.00  0.00    +0.000 C 
ATOM      4  N   UNL     1       5.095   3.522  18.190  0.00  0.00    +0.000 NA
ATOM      5  C   UNL     1       4.118   3.785  17.137  0.00  0.00    +0.000 C 
ATOM      6  C   UNL     1       4.562   4.926  16.185  0.00  0.00    +0.000 C 
ATOM      7  N   UNL     1       6.075   4.935  15.989  0.00  0.00    +0.000 NA
ATOM      8  H   UNL     1       6.385   5.522  15.216  0.00  0.00    +0.000 HD
ENDROOT
BRANCH   1  12
ATOM      9  C   UNL     1       1.768   8.209  19.610  0.00  0.00    +0.000 A 
ATOM     10  C   UNL     1       2.090   8.771  18.365  0.00  0.00    +0.000 A 
ATOM     11  C   UNL     1       3.018   8.170  17.501  0.00  0.00    +0.000 A 
ATOM     12  C   UNL     1       3.681   6.975  17.825  0.00  0.00    +0.000 A 
ATOM     13  C   UNL     1       3.277   6.368  19.025  0.00  0.00    +0.000 A 
ATOM     14  C   UNL     1       2.358   6.974  19.904  0.00  0.00    +0.000 A 
BRANCH   9  18
ATOM     15  C   UNL     1      -0.527  10.479  22.483  0.00  0.00    +0.000 A 
ATOM     16  C   UNL     1      -0.628  10.761  21.125  0.00  0.00    +0.000 A 
ATOM     17  C   UNL     1       0.067   9.987  20.183  0.00  0.00    +0.000 A 
ATOM     18  C   UNL     1       0.908   8.932  20.580  0.00  0.00    +0.000 A 
ATOM     19  C   UNL     1       0.967   8.651  21.955  0.00  0.00    +0.000 A 
ATOM     20  C   UNL     1       0.266   9.417  22.900  0.00  0.00    +0.000 A 
BRANCH  15  22
ATOM     21  C   UNL     1      -1.222  12.699  22.895  0.00  0.00    +0.000 C 
ATOM     22  O   UNL     1      -1.200  11.338  23.311  0.00  0.00    +0.000 OA
ENDBRANCH  15  22
ENDBRANCH   9  18
ENDBRANCH   1  12
BRANCH   4  23
ATOM     23  C   UNL     1       4.623   2.740  19.336  0.00  0.00    +0.000 C 
BRANCH  23  24
ATOM     24  C   UNL     1       3.141   2.839  19.672  0.00  0.00    +0.000 A 
ATOM     25  C   UNL     1       2.178   2.363  18.785  0.00  0.00    +0.000 A 
ATOM     26  C   UNL     1       0.831   2.520  19.103  0.00  0.00    +0.000 A 
ATOM     27  C   UNL     1       0.478   3.142  20.293  0.00  0.00    +0.000 A 
ATOM     28  C   UNL     1       1.493   3.558  21.135  0.00  0.00    +0.000 A 
ATOM     29  N   UNL     1       2.806   3.416  20.857  0.00  0.00    +0.000 NA
ENDBRANCH  23  24
ENDBRANCH   4  23
TORSDOF 5
ENDMDL
MODEL 2
REMARK VINA RESULT:      -8.7      1.085      1.342
REMARK  Name = 
REMARK  6 active torsions:
REMARK  status: ('A' for Active; 'I' for Inactive)
REMARK    1  A    between atoms: C_1  and  O_2
REMARK    2  A    between atoms: O_2  and  C_3
REMARK    3  A    between atoms: C_6  and  C_7
REMARK    4  A    between atoms: C_10  and  C_11
REMARK    5  A    between atoms: N_14  and  C_15
REMARK    6  A    between atoms: C_15  and  C_16
REMARK                            x       y       z     vdW  Elec       q    Type
REMARK                         _______ _______ _______ _____ _____    ______ ____
ROOT
ATOM      1  C   UNL     1       5.478   5.860  17.325  0.00  0.00    +0.000 C 
ATOM      2  C   UNL     1       6.113   4.608  18.032  0.00  0.00    +0.000 C 
ATOM      3  C   UNL     1       5.156   3.496  18.539  0.00  0.00    +0.000 C 
ATOM      4  N   UNL     1       4.344   2.929  17.456  0.00  0.00    +0.000 NA
ATOM      5  C   UNL     1       4.195   3.793  16.287  0.00  0.00    +0.000 C 
ATOM      6  C   UNL     1       5.345   4.826  16.161  0.00  0.00    +0.000 C 
ATOM      7  N   UNL     1       6.669   4.254  16.655  0.00  0.00    +0.000 NA
ATOM      8  H   UNL     1       7.480   4.813  16.396  0.00  0.00    +0.000 HD
ENDROOT
BRANCH   1  12
ATOM      9  C   UNL     1       2.007   8.149  18.995  0.00  0.00    +0.000 A 
ATOM     10  C   UNL     1       2.608   8.484  17.772  0.00  0.00    +0.000 A 
ATOM     11  C   UNL     1       3.689   7.753  17.257  0.00  0.00    +0.000 A 
ATOM     12  C   UNL     1       4.237   6.648  17.927  0.00  0.00    +0.000 A 
ATOM     13  C   UNL     1       3.565   6.259  19.097  0.00  0.00    +0.000 A 
ATOM     14  C   UNL     1       2.489   6.996  19.628  0.00  0.00    +0.000 A 
BRANCH   9  18
ATOM     15  C   UNL     1      -0.811  10.850  20.849  0.00  0.00    +0.000 A 
ATOM     16  C   UNL     1      -0.560  10.927  19.483  0.00  0.00    +0.000 A 
ATOM     17  C   UNL     1       0.307  10.013  18.865  0.00  0.00    +0.000 A 
ATOM     18  C   UNL     1       0.970   9.019  19.605  0.00  0.00    +0.000 A 
ATOM     19  C   UNL     1       0.675   8.946  20.976  0.00  0.00    +0.000 A 
ATOM     20  C   UNL     1      -0.199   9.852  21.597  0.00  0.00    +0.000 A 
BRANCH  15  22
ATOM     21  C   UNL     1      -1.974  12.865  20.437  0.00  0.00    +0.000 C 
ATOM     22  O   UNL     1      -1.625  11.831  21.350  0.00  0.00    +0.000 OA
ENDBRANCH  15  22
ENDBRANCH   9  18
ENDBRANCH   1  12
BRANCH   4  23
ATOM     23  C   UNL     1       3.153   2.184  17.870  0.00  0.00    +0.000 C 
BRANCH  23  24
ATOM     24  C   UNL     1       2.482   2.623  19.165  0.00  0.00    +0.000 A 
ATOM     25  C   UNL     1       1.336   3.416  19.138  0.00  0.00    +0.000 A 
ATOM     26  C   UNL     1       0.783   3.842  20.343  0.00  0.00    +0.000 A 
ATOM     27  C   UNL     1       1.380   3.468  21.540  0.00  0.00    +0.000 A 
ATOM     28  C   UNL     1       2.496   2.654  21.483  0.00  0.00    +0.000 A 
ATOM     29  N   UNL     1       3.053   2.221  20.332  0.00  0.00    +0.000 NA
ENDBRANCH  23  24
ENDBRANCH   4  23
TORSDOF 5
ENDMDL
MODEL 3
REMARK VINA RESULT:      -8.6      2.206      4.766
REMARK  Name = 
REMARK  6 active torsions:
REMARK  status: ('A' for Active; 'I' for Inactive)
REMARK    1  A    between atoms: C_1  and  O_2
REMARK    2  A    between atoms: O_2  and  C_3
REMARK    3  A    between atoms: C_6  and  C_7
REMARK    4  A    between atoms: C_10  and  C_11
REMARK    5  A    between atoms: N_14  and  C_15
REMARK    6  A    between atoms: C_15  and  C_16
REMARK                            x       y       z     vdW  Elec       q    Type
REMARK                         _______ _______ _______ _____ _____    ______ ____
ROOT
ATOM      1  C   UNL     1       3.135   3.955  19.122  0.00  0.00    +0.000 C 
ATOM      2  C   UNL     1       3.310   3.204  17.753  0.00  0.00    +0.000 C 
ATOM      3  C   UNL     1       4.075   3.934  16.617  0.00  0.00    +0.000 C 
ATOM      4  N   UNL     1       5.442   4.293  17.012  0.00  0.00    +0.000 NA
ATOM      5  C   UNL     1       5.658   4.378  18.455  0.00  0.00    +0.000 C 
ATOM      6  C   UNL     1       4.634   3.538  19.260  0.00  0.00    +0.000 C 
ATOM      7  N   UNL     1       4.243   2.266  18.515  0.00  0.00    +0.000 NA
ATOM      8  H   UNL     1       3.745   1.589  19.091  0.00  0.00    +0.000 HD
ENDROOT
BRANCH   1  12
ATOM      9  C   UNL     1       1.694   8.186  19.441  0.00  0.00    +0.000 A 
ATOM     10  C   UNL     1       1.641   7.292  20.521  0.00  0.00    +0.000 A 
ATOM     11  C   UNL     1       2.103   5.972  20.410  0.00  0.00    +0.000 A 
ATOM     12  C   UNL     1       2.644   5.462  19.218  0.00  0.00    +0.000 A 
ATOM     13  C   UNL     1       2.787   6.392  18.176  0.00  0.00    +0.000 A 
ATOM     14  C   UNL     1       2.312   7.714  18.275  0.00  0.00    +0.000 A 
BRANCH   9  18
ATOM     15  C   UNL     1      -0.310  12.014  19.468  0.00  0.00    +0.000 A 
ATOM     16  C   UNL     1      -0.706  11.008  20.343  0.00  0.00    +0.000 A 
ATOM     17  C   UNL     1      -0.019   9.786  20.382  0.00  0.00    +0.000 A 
ATOM     18  C   UNL     1       1.061   9.526  19.521  0.00  0.00    +0.000 A 
ATOM     19  C   UNL     1       1.458  10.570  18.669  0.00  0.00    +0.000 A 
ATOM     20  C   UNL     1       0.780  11.798  18.634  0.00  0.00    +0.000 A 
BRANCH  15  22
ATOM     21  C   UNL     1      -2.268  13.062  20.274  0.00  0.00    +0.000 C 
ATOM     22  O   UNL     1      -1.092  13.138  19.477  0.00  0.00    +0.000 OA
ENDBRANCH  15  22
ENDBRANCH   9  18
ENDBRANCH   1  12
BRANCH   4  23
ATOM     23  C   UNL     1       6.099   5.315  16.194  0.00  0.00    +0.000 C 
BRANCH  23  24
ATOM     24  C   UNL     1       6.452   4.928  14.764  0.00  0.00    +0.000 A 
ATOM     25  C   UNL     1       5.669   4.015  14.061  0.00  0.00    +0.000 A 
ATOM     26  C   UNL     1       6.054   3.644  12.774  0.00  0.00    +0.000 A 
ATOM     27  C   UNL     1       7.204   4.193  12.221  0.00  0.00    +0.000 A 
ATOM     28  C   UNL     1       7.910   5.116  12.971  0.00  0.00    +0.000 A 
ATOM     29  N   UNL     1       7.559   5.498  14.217  0.00  0.00    +0.000 NA
ENDBRANCH  23  24
ENDBRANCH   4  23
TORSDOF 5
ENDMDL
MODEL 4
REMARK VINA RESULT:      -8.5      0.845      1.124
REMARK  Name = 
REMARK  6 active torsions:
REMARK  status: ('A' for Active; 'I' for Inactive)
REMARK    1  A    between atoms: C_1  and  O_2
REMARK    2  A    between atoms: O_2  and  C_3
REMARK    3  A    between atoms: C_6  and  C_7
REMARK    4  A    between atoms: C_10  and  C_11
REMARK    5  A    between atoms: N_14  and  C_15
REMARK    6  A    between atoms: C_15  and  C_16
REMARK                            x       y       z     vdW  Elec       q    Type
REMARK                         _______ _______ _______ _____ _____    ______ ____
ROOT
ATOM      1  C   UNL     1       5.262   6.049  17.165  0.00  0.00    +0.000 C 
ATOM      2  C   UNL     1       6.086   4.824  17.704  0.00  0.00    +0.000 C 
ATOM      3  C   UNL     1       5.300   3.624  18.297  0.00  0.00    +0.000 C 
ATOM      4  N   UNL     1       4.369   3.038  17.325  0.00  0.00    +0.000 NA
ATOM      5  C   UNL     1       3.980   3.930  16.236  0.00  0.00    +0.000 C 
ATOM      6  C   UNL     1       5.021   5.053  15.986  0.00  0.00    +0.000 C 
ATOM      7  N   UNL     1       6.443   4.565  16.243  0.00  0.00    +0.000 NA
ATOM      8  H   UNL     1       7.163   5.194  15.890  0.00  0.00    +0.000 HD
ENDROOT
BRANCH   1  12
ATOM      9  C   UNL     1       1.947   8.003  19.460  0.00  0.00    +0.000 A 
ATOM     10  C   UNL     1       2.363   8.465  18.202  0.00  0.00    +0.000 A 
ATOM     11  C   UNL     1       3.397   7.839  17.491  0.00  0.00    +0.000 A 
ATOM     12  C   UNL     1       4.079   6.717  17.988  0.00  0.00    +0.000 A 
ATOM     13  C   UNL     1       3.588   6.201  19.198  0.00  0.00    +0.000 A 
ATOM     14  C   UNL     1       2.561   6.833  19.925  0.00  0.00    +0.000 A 
BRANCH   9  18
ATOM     15  C   UNL     1      -0.708  10.354  21.930  0.00  0.00    +0.000 A 
ATOM     16  C   UNL     1      -0.469  10.721  20.610  0.00  0.00    +0.000 A 
ATOM     17  C   UNL     1       0.343   9.927  19.786  0.00  0.00    +0.000 A 
ATOM     18  C   UNL     1       0.963   8.763  20.272  0.00  0.00    +0.000 A 
ATOM     19  C   UNL     1       0.681   8.401  21.598  0.00  0.00    +0.000 A 
ATOM     20  C   UNL     1      -0.138   9.187  22.425  0.00  0.00    +0.000 A 
BRANCH  15  22
ATOM     21  C   UNL     1      -0.995  12.580  22.667  0.00  0.00    +0.000 C 
ATOM     22  O   UNL     1      -1.464  11.236  22.655  0.00  0.00    +0.000 OA
ENDBRANCH  15  22
ENDBRANCH   9  18
ENDBRANCH   1  12
BRANCH   4  23
ATOM     23  C   UNL     1       3.313   2.188  17.880  0.00  0.00    +0.000 C 
BRANCH  23  24
ATOM     24  C   UNL     1       2.625   2.684  19.145  0.00  0.00    +0.000 A 
ATOM     25  C   UNL     1       3.203   2.478  20.396  0.00  0.00    +0.000 A 
ATOM     26  C   UNL     1       2.519   2.897  21.534  0.00  0.00    +0.000 A 
ATOM     27  C   UNL     1       1.281   3.512  21.398  0.00  0.00    +0.000 A 
ATOM     28  C   UNL     1       0.789   3.709  20.121  0.00  0.00    +0.000 A 
ATOM     29  N   UNL     1       1.431   3.318  18.999  0.00  0.00    +0.000 NA
ENDBRANCH  23  24
ENDBRANCH   4  23
TORSDOF 5
ENDMDL
MODEL 5
REMARK VINA RESULT:      -8.5      2.342      4.804
REMARK  Name = 
REMARK  6 active torsions:
REMARK  status: ('A' for Active; 'I' for Inactive)
REMARK    1  A    between atoms: C_1  and  O_2
REMARK    2  A    between atoms: O_2  and  C_3
REMARK    3  A    between atoms: C_6  and  C_7
REMARK    4  A    between atoms: C_10  and  C_11
REMARK    5  A    between atoms: N_14  and  C_15
REMARK    6  A    between atoms: C_15  and  C_16
REMARK                            x       y       z     vdW  Elec       q    Type
REMARK                         _______ _______ _______ _____ _____    ______ ____
ROOT
ATOM      1  C   UNL     1       3.126   4.118  19.013  0.00  0.00    +0.000 C 
ATOM      2  C   UNL     1       3.363   3.303  17.691  0.00  0.00    +0.000 C 
ATOM      3  C   UNL     1       4.219   3.960  16.575  0.00  0.00    +0.000 C 
ATOM      4  N   UNL     1       5.568   4.299  17.041  0.00  0.00    +0.000 NA
ATOM      5  C   UNL     1       5.698   4.442  18.489  0.00  0.00    +0.000 C 
ATOM      6  C   UNL     1       4.600   3.667  19.263  0.00  0.00    +0.000 C 
ATOM      7  N   UNL     1       4.218   2.375  18.549  0.00  0.00    +0.000 NA
ATOM      8  H   UNL     1       3.665   1.738  19.120  0.00  0.00    +0.000 HD
ENDROOT
BRANCH   1  12
ATOM      9  C   UNL     1       1.804   8.399  19.069  0.00  0.00    +0.000 A 
ATOM     10  C   UNL     1       1.823   7.604  20.225  0.00  0.00    +0.000 A 
ATOM     11  C   UNL     1       2.247   6.267  20.195  0.00  0.00    +0.000 A 
ATOM     12  C   UNL     1       2.676   5.641  19.014  0.00  0.00    +0.000 A 
ATOM     13  C   UNL     1       2.751   6.473  17.885  0.00  0.00    +0.000 A 
ATOM     14  C   UNL     1       2.313   7.811  17.904  0.00  0.00    +0.000 A 
BRANCH   9  18
ATOM     15  C   UNL     1       0.186  12.397  19.343  0.00  0.00    +0.000 A 
ATOM     16  C   UNL     1       1.361  12.162  18.636  0.00  0.00    +0.000 A 
ATOM     17  C   UNL     1       1.857  10.858  18.492  0.00  0.00    +0.000 A 
ATOM     18  C   UNL     1       1.208   9.759  19.081  0.00  0.00    +0.000 A 
ATOM     19  C   UNL     1       0.009  10.021  19.763  0.00  0.00    +0.000 A 
ATOM     20  C   UNL     1      -0.496  11.323  19.902  0.00  0.00    +0.000 A 
BRANCH  15  22
ATOM     21  C   UNL     1       0.682  14.500  20.299  0.00  0.00    +0.000 C 
ATOM     22  O   UNL     1      -0.167  13.714  19.470  0.00  0.00    +0.000 OA
ENDBRANCH  15  22
ENDBRANCH   9  18
ENDBRANCH   1  12
BRANCH   4  23
ATOM     23  C   UNL     1       6.306   5.265  16.222  0.00  0.00    +0.000 C 
BRANCH  23  24
ATOM     24  C   UNL     1       6.584   4.872  14.778  0.00  0.00    +0.000 A 
ATOM     25  C   UNL     1       5.807   3.906  14.142  0.00  0.00    +0.000 A 
ATOM     26  C   UNL     1       6.125   3.534  12.838  0.00  0.00    +0.000 A 
ATOM     27  C   UNL     1       7.205   4.133  12.202  0.00  0.00    +0.000 A 
ATOM     28  C   UNL     1       7.908   5.105  12.889  0.00  0.00    +0.000 A 
ATOM     29  N   UNL     1       7.620   5.490  14.151  0.00  0.00    +0.000 NA
ENDBRANCH  23  24
ENDBRANCH   4  23
TORSDOF 5
ENDMDL
MODEL 6
REMARK VINA RESULT:      -8.4      2.233      4.536
REMARK  Name = 
REMARK  6 active torsions:
REMARK  status: ('A' for Active; 'I' for Inactive)
REMARK    1  A    between atoms: C_1  and  O_2
REMARK    2  A    between atoms: O_2  and  C_3
REMARK    3  A    between atoms: C_6  and  C_7
REMARK    4  A    between atoms: C_10  and  C_11
REMARK    5  A    between atoms: N_14  and  C_15
REMARK    6  A    between atoms: C_15  and  C_16
REMARK                            x       y       z     vdW  Elec       q    Type
REMARK                         _______ _______ _______ _____ _____    ______ ____
ROOT
ATOM      1  C   UNL     1       1.902   3.953  19.662  0.00  0.00    +0.000 C 
ATOM      2  C   UNL     1       1.831   2.967  18.440  0.00  0.00    +0.000 C 
ATOM      3  C   UNL     1       2.781   3.227  17.241  0.00  0.00    +0.000 C 
ATOM      4  N   UNL     1       4.194   3.211  17.640  0.00  0.00    +0.000 NA
ATOM      5  C   UNL     1       4.430   3.465  19.059  0.00  0.00    +0.000 C 
ATOM      6  C   UNL     1       3.198   3.126  19.938  0.00  0.00    +0.000 C 
ATOM      7  N   UNL     1       2.429   1.930  19.386  0.00  0.00    +0.000 NA
ATOM      8  H   UNL     1       1.748   1.544  20.038  0.00  0.00    +0.000 HD
ENDROOT
BRANCH   1  12
ATOM      9  C   UNL     1       1.848   8.413  19.233  0.00  0.00    +0.000 A 
ATOM     10  C   UNL     1       1.550   7.772  20.445  0.00  0.00    +0.000 A 
ATOM     11  C   UNL     1       1.578   6.374  20.568  0.00  0.00    +0.000 A 
ATOM     12  C   UNL     1       1.904   5.532  19.493  0.00  0.00    +0.000 A 
ATOM     13  C   UNL     1       2.300   6.185  18.315  0.00  0.00    +0.000 A 
ATOM     14  C   UNL     1       2.259   7.587  18.179  0.00  0.00    +0.000 A 
BRANCH   9  18
ATOM     15  C   UNL     1       1.513  12.711  18.938  0.00  0.00    +0.000 A 
ATOM     16  C   UNL     1       2.240  11.997  17.991  0.00  0.00    +0.000 A 
ATOM     17  C   UNL     1       2.300  10.597  18.047  0.00  0.00    +0.000 A 
ATOM     18  C   UNL     1       1.663   9.877  19.072  0.00  0.00    +0.000 A 
ATOM     19  C   UNL     1       0.912  10.621  19.997  0.00  0.00    +0.000 A 
ATOM     20  C   UNL     1       0.841  12.022  19.940  0.00  0.00    +0.000 A 
BRANCH  15  22
ATOM     21  C   UNL     1       2.789  14.587  18.277  0.00  0.00    +0.000 C 
ATOM     22  O   UNL     1       1.577  14.074  18.819  0.00  0.00    +0.000 OA
ENDBRANCH  15  22
ENDBRANCH   9  18
ENDBRANCH   1  12
BRANCH   4  23
ATOM     23  C   UNL     1       5.133   3.831  16.702  0.00  0.00    +0.000 C 
BRANCH  23  24
ATOM     24  C   UNL     1       6.022   4.939  17.250  0.00  0.00    +0.000 A 
ATOM     25  C   UNL     1       5.796   6.269  16.902  0.00  0.00    +0.000 A 
ATOM     26  C   UNL     1       6.663   7.249  17.380  0.00  0.00    +0.000 A 
ATOM     27  C   UNL     1       7.729   6.881  18.191  0.00  0.00    +0.000 A 
ATOM     28  C   UNL     1       7.867   5.544  18.516  0.00  0.00    +0.000 A 
ATOM     29  N   UNL     1       7.041   4.573  18.073  0.00  0.00    +0.000 NA
ENDBRANCH  23  24
ENDBRANCH   4  23
TORSDOF 5
ENDMDL
MODEL 7
REMARK VINA RESULT:      -8.3      2.358      4.886
REMARK  Name = 
REMARK  6 active torsions:
REMARK  status: ('A' for Active; 'I' for Inactive)
REMARK    1  A    between atoms: C_1  and  O_2
REMARK    2  A    between atoms: O_2  and  C_3
REMARK    3  A    between atoms: C_6  and  C_7
REMARK    4  A    between atoms: C_10  and  C_11
REMARK    5  A    between atoms: N_14  and  C_15
REMARK    6  A    between atoms: C_15  and  C_16
REMARK                            x       y       z     vdW  Elec       q    Type
REMARK                         _______ _______ _______ _____ _____    ______ ____
ROOT
ATOM      1  C   UNL     1       3.983   4.789  19.533  0.00  0.00    +0.000 C 
ATOM      2  C   UNL     1       3.986   3.688  18.412  0.00  0.00    +0.000 C 
ATOM      3  C   UNL     1       4.142   4.152  16.939  0.00  0.00    +0.000 C 
ATOM      4  N   UNL     1       5.389   4.895  16.722  0.00  0.00    +0.000 NA
ATOM      5  C   UNL     1       5.965   5.486  17.927  0.00  0.00    +0.000 C 
ATOM      6  C   UNL     1       5.513   4.760  19.221  0.00  0.00    +0.000 C 
ATOM      7  N   UNL     1       5.333   3.263  18.989  0.00  0.00    +0.000 NA
ATOM      8  H   UNL     1       5.248   2.722  19.848  0.00  0.00    +0.000 HD
ENDROOT
BRANCH   1  12
ATOM      9  C   UNL     1       1.459   8.484  19.312  0.00  0.00    +0.000 A 
ATOM     10  C   UNL     1       1.575   7.724  20.486  0.00  0.00    +0.000 A 
ATOM     11  C   UNL     1       2.375   6.573  20.543  0.00  0.00    +0.000 A 
ATOM     12  C   UNL     1       3.107   6.110  19.438  0.00  0.00    +0.000 A 
ATOM     13  C   UNL     1       3.065   6.933  18.301  0.00  0.00    +0.000 A 
ATOM     14  C   UNL     1       2.252   8.081  18.231  0.00  0.00    +0.000 A 
BRANCH   9  18
ATOM     15  C   UNL     1      -1.557  11.572  19.097  0.00  0.00    +0.000 A 
ATOM     16  C   UNL     1      -0.802  11.408  20.254  0.00  0.00    +0.000 A 
ATOM     17  C   UNL     1       0.220  10.448  20.308  0.00  0.00    +0.000 A 
ATOM     18  C   UNL     1       0.490   9.605  19.216  0.00  0.00    +0.000 A 
ATOM     19  C   UNL     1      -0.267   9.814  18.051  0.00  0.00    +0.000 A 
ATOM     20  C   UNL     1      -1.284  10.779  17.990  0.00  0.00    +0.000 A 
BRANCH  15  22
ATOM     21  C   UNL     1      -3.869  12.010  18.880  0.00  0.00    +0.000 C 
ATOM     22  O   UNL     1      -2.565  12.495  19.183  0.00  0.00    +0.000 OA
ENDBRANCH  15  22
ENDBRANCH   9  18
ENDBRANCH   1  12
BRANCH   4  23
ATOM     23  C   UNL     1       5.448   5.708  15.505  0.00  0.00    +0.000 C 
BRANCH  23  24
ATOM     24  C   UNL     1       6.030   5.047  14.264  0.00  0.00    +0.000 A 
ATOM     25  C   UNL     1       5.360   3.999  13.635  0.00  0.00    +0.000 A 
ATOM     26  C   UNL     1       5.951   3.384  12.534  0.00  0.00    +0.000 A 
ATOM     27  C   UNL     1       7.188   3.827  12.086  0.00  0.00    +0.000 A 
ATOM     28  C   UNL     1       7.775   4.892  12.744  0.00  0.00    +0.000 A 
ATOM     29  N   UNL     1       7.225   5.512  13.811  0.00  0.00    +0.000 NA
ENDBRANCH  23  24
ENDBRANCH   4  23
TORSDOF 5
ENDMDL
MODEL 8
REMARK VINA RESULT:      -8.3      2.290      4.686
REMARK  Name = 
REMARK  6 active torsions:
REMARK  status: ('A' for Active; 'I' for Inactive)
REMARK    1  A    between atoms: C_1  and  O_2
REMARK    2  A    between atoms: O_2  and  C_3
REMARK    3  A    between atoms: C_6  and  C_7
REMARK    4  A    between atoms: C_10  and  C_11
REMARK    5  A    between atoms: N_14  and  C_15
REMARK    6  A    between atoms: C_15  and  C_16
REMARK                            x       y       z     vdW  Elec       q    Type
REMARK                         _______ _______ _______ _____ _____    ______ ____
ROOT
ATOM      1  C   UNL     1       3.270   3.812  19.296  0.00  0.00    +0.000 C 
ATOM      2  C   UNL     1       3.397   3.053  17.926  0.00  0.00    +0.000 C 
ATOM      3  C   UNL     1       4.010   3.820  16.724  0.00  0.00    +0.000 C 
ATOM      4  N   UNL     1       5.371   4.293  17.005  0.00  0.00    +0.000 NA
ATOM      5  C   UNL     1       5.692   4.421  18.425  0.00  0.00    +0.000 C 
ATOM      6  C   UNL     1       4.804   3.517  19.319  0.00  0.00    +0.000 C 
ATOM      7  N   UNL     1       4.458   2.205  18.622  0.00  0.00    +0.000 NA
ATOM      8  H   UNL     1       4.063   1.501  19.243  0.00  0.00    +0.000 HD
ENDROOT
BRANCH   1  12
ATOM      9  C   UNL     1       1.632   7.973  19.583  0.00  0.00    +0.000 A 
ATOM     10  C   UNL     1       2.256   7.490  18.422  0.00  0.00    +0.000 A 
ATOM     11  C   UNL     1       2.757   6.182  18.343  0.00  0.00    +0.000 A 
ATOM     12  C   UNL     1       2.669   5.277  19.413  0.00  0.00    +0.000 A 
ATOM     13  C   UNL     1       1.954   5.735  20.531  0.00  0.00    +0.000 A 
ATOM     14  C   UNL     1       1.461   7.052  20.624  0.00  0.00    +0.000 A 
BRANCH   9  18
ATOM     15  C   UNL     1       0.767  12.182  20.039  0.00  0.00    +0.000 A 
ATOM     16  C   UNL     1       1.108  11.667  18.793  0.00  0.00    +0.000 A 
ATOM     17  C   UNL     1       1.329  10.291  18.627  0.00  0.00    +0.000 A 
ATOM     18  C   UNL     1       1.248   9.401  19.711  0.00  0.00    +0.000 A 
ATOM     19  C   UNL     1       0.873   9.944  20.951  0.00  0.00    +0.000 A 
ATOM     20  C   UNL     1       0.642  11.318  21.120  0.00  0.00    +0.000 A 
BRANCH  15  22
ATOM     21  C   UNL     1      -0.040  14.140  18.991  0.00  0.00    +0.000 C 
ATOM     22  O   UNL     1       0.636  13.544  20.093  0.00  0.00    +0.000 OA
ENDBRANCH  15  22
ENDBRANCH   9  18
ENDBRANCH   1  12
BRANCH   4  23
ATOM     23  C   UNL     1       5.878   5.348  16.125  0.00  0.00    +0.000 C 
BRANCH  23  24
ATOM     24  C   UNL     1       6.299   4.930  14.723  0.00  0.00    +0.000 A 
ATOM     25  C   UNL     1       5.543   4.012  13.997  0.00  0.00    +0.000 A 
ATOM     26  C   UNL     1       5.989   3.614  12.739  0.00  0.00    +0.000 A 
ATOM     27  C   UNL     1       7.172   4.139  12.236  0.00  0.00    +0.000 A 
ATOM     28  C   UNL     1       7.849   5.068  13.004  0.00  0.00    +0.000 A 
ATOM     29  N   UNL     1       7.440   5.478  14.224  0.00  0.00    +0.000 NA
ENDBRANCH  23  24
ENDBRANCH   4  23
TORSDOF 5
ENDMDL
MODEL 9
REMARK VINA RESULT:      -8.3      2.098      4.635
REMARK  Name = 
REMARK  6 active torsions:
REMARK  status: ('A' for Active; 'I' for Inactive)
REMARK    1  A    between atoms: C_1  and  O_2
REMARK    2  A    between atoms: O_2  and  C_3
REMARK    3  A    between atoms: C_6  and  C_7
REMARK    4  A    between atoms: C_10  and  C_11
REMARK    5  A    between atoms: N_14  and  C_15
REMARK    6  A    between atoms: C_15  and  C_16
REMARK                            x       y       z     vdW  Elec       q    Type
REMARK                         _______ _______ _______ _____ _____    ______ ____
ROOT
ATOM      1  C   UNL     1       3.256   3.696  19.369  0.00  0.00    +0.000 C 
ATOM      2  C   UNL     1       3.247   2.996  17.962  0.00  0.00    +0.000 C 
ATOM      3  C   UNL     1       3.778   3.802  16.746  0.00  0.00    +0.000 C 
ATOM      4  N   UNL     1       5.170   4.228  16.932  0.00  0.00    +0.000 NA
ATOM      5  C   UNL     1       5.612   4.284  18.323  0.00  0.00    +0.000 C 
ATOM      6  C   UNL     1       4.777   3.363  19.250  0.00  0.00    +0.000 C 
ATOM      7  N   UNL     1       4.338   2.093  18.529  0.00  0.00    +0.000 NA
ATOM      8  H   UNL     1       3.977   1.372  19.151  0.00  0.00    +0.000 HD
ENDROOT
BRANCH   1  12
ATOM      9  C   UNL     1       1.650   7.823  20.053  0.00  0.00    +0.000 A 
ATOM     10  C   UNL     1       1.457   6.781  20.973  0.00  0.00    +0.000 A 
ATOM     11  C   UNL     1       1.973   5.495  20.750  0.00  0.00    +0.000 A 
ATOM     12  C   UNL     1       2.708   5.169  19.599  0.00  0.00    +0.000 A 
ATOM     13  C   UNL     1       2.982   6.242  18.736  0.00  0.00    +0.000 A 
ATOM     14  C   UNL     1       2.456   7.532  18.945  0.00  0.00    +0.000 A 
BRANCH   9  18
ATOM     15  C   UNL     1      -0.085  11.748  20.557  0.00  0.00    +0.000 A 
ATOM     16  C   UNL     1       0.072  11.209  19.284  0.00  0.00    +0.000 A 
ATOM     17  C   UNL     1       0.577   9.911  19.119  0.00  0.00    +0.000 A 
ATOM     18  C   UNL     1       0.970   9.132  20.221  0.00  0.00    +0.000 A 
ATOM     19  C   UNL     1       0.772   9.690  21.494  0.00  0.00    +0.000 A 
ATOM     20  C   UNL     1       0.259  10.985  21.666  0.00  0.00    +0.000 A 
BRANCH  15  22
ATOM     21  C   UNL     1      -1.694  13.315  19.823  0.00  0.00    +0.000 C 
ATOM     22  O   UNL     1      -0.528  13.044  20.592  0.00  0.00    +0.000 OA
ENDBRANCH  15  22
ENDBRANCH   9  18
ENDBRANCH   1  12
BRANCH   4  23
ATOM     23  C   UNL     1       5.632   5.309  16.058  0.00  0.00    +0.000 C 
BRANCH  23  24
ATOM     24  C   UNL     1       6.174   4.907  14.693  0.00  0.00    +0.000 A 
ATOM     25  C   UNL     1       5.496   3.979  13.905  0.00  0.00    +0.000 A 
ATOM     26  C   UNL     1       6.051   3.595  12.686  0.00  0.00    +0.000 A 
ATOM     27  C   UNL     1       7.261   4.144  12.283  0.00  0.00    +0.000 A 
ATOM     28  C   UNL     1       7.856   5.081  13.107  0.00  0.00    +0.000 A 
ATOM     29  N   UNL     1       7.341   5.477  14.291  0.00  0.00    +0.000 NA
ENDBRANCH  23  24
ENDBRANCH   4  23
TORSDOF 5
ENDMDL
