MODEL 1
REMARK VINA RESULT:      -7.7      0.000      0.000
REMARK  Name = 
REMARK  7 active torsions:
REMARK  status: ('A' for Active; 'I' for Inactive)
REMARK    1  A    between atoms: C_1  and  O_2
REMARK    2  A    between atoms: O_2  and  C_3
REMARK    3  A    between atoms: C_8  and  S_9
REMARK    4  A    between atoms: S_9  and  N_12
REMARK    5  A    between atoms: N_12  and  C_13
REMARK    6  A    between atoms: C_20  and  C_21
REMARK    7  A    between atoms: N_30  and  C_31
REMARK                            x       y       z     vdW  Elec       q    Type
REMARK                         _______ _______ _______ _____ _____    ______ ____
ROOT
ATOM      1  C   UNL     1       2.050   8.089  19.357  0.00  0.00    +0.000 A 
ATOM      2  C   UNL     1       1.907   7.628  20.684  0.00  0.00    +0.000 A 
ATOM      3  C   UNL     1       1.901   6.239  20.964  0.00  0.00    +0.000 A 
ATOM      4  C   UNL     1       1.804   5.411  19.843  0.00  0.00    +0.000 A 
ATOM      5  C   UNL     1       1.946   5.957  18.566  0.00  0.00    +0.000 A 
ATOM      6  C   UNL     1       2.195   4.886  17.723  0.00  0.00    +0.000 A 
ATOM      7  C   UNL     1       3.327   4.958  16.900  0.00  0.00    +0.000 A 
ATOM      8  C   UNL     1       4.264   5.895  17.389  0.00  0.00    +0.000 A 
ATOM      9  N   UNL     1       3.898   7.042  18.059  0.00  0.00    +0.000 NA
ATOM     10  C   UNL     1       2.605   7.144  18.484  0.00  0.00    +0.000 A 
ATOM     11  C   UNL     1       1.792   3.650  18.338  0.00  0.00    +0.000 C 
ATOM     12  O   UNL     1       1.714   2.516  17.891  0.00  0.00    +0.000 OA
ATOM     13  N   UNL     1       1.812   4.004  19.724  0.00  0.00    +0.000 N 
ATOM     14  C   UNL     1       2.802   3.219  20.441  0.00  0.00    +0.000 C 
ENDROOT
BRANCH   8  15
ATOM     15  C   UNL     1       5.605   5.350  17.709  0.00  0.00    +0.000 A 
ATOM     16  C   UNL     1       6.557   4.595  17.041  0.00  0.00    +0.000 A 
ATOM     17  C   UNL     1       7.730   4.594  17.850  0.00  0.00    +0.000 A 
ATOM     18  C   UNL     1       7.444   5.378  18.940  0.00  0.00    +0.000 A 
ATOM     19  O   UNL     1       6.170   5.832  18.867  0.00  0.00    +0.000 OA
ENDBRANCH   8  15
BRANCH   1  20
ATOM     20  N   UNL     1       0.869   8.753  18.836  0.00  0.00    +0.000 N 
ATOM     21  H   UNL     1       0.157   8.197  18.359  0.00  0.00    +0.000 HD
BRANCH  20  22
ATOM     22  S   UNL     1       0.252  10.205  19.395  0.00  0.00    +0.000 S 
ATOM     23  O   UNL     1       1.228  11.253  19.148  0.00  0.00    +0.000 OA
ATOM     24  O   UNL     1      -0.260   9.979  20.729  0.00  0.00    +0.000 OA
BRANCH  22  30
ATOM     25  C   UNL     1      -2.052  11.494  18.541  0.00  0.00    +0.000 A 
ATOM     26  C   UNL     1      -3.183  11.572  17.718  0.00  0.00    +0.000 A 
ATOM     27  C   UNL     1      -3.358  10.679  16.657  0.00  0.00    +0.000 A 
ATOM     28  C   UNL     1      -2.405   9.698  16.402  0.00  0.00    +0.000 A 
ATOM     29  C   UNL     1      -1.293   9.582  17.231  0.00  0.00    +0.000 A 
ATOM     30  C   UNL     1      -1.136  10.454  18.310  0.00  0.00    +0.000 A 
BRANCH  25  32
ATOM     31  C   UNL     1      -2.965  12.663  20.392  0.00  0.00    +0.000 C 
ATOM     32  O   UNL     1      -1.831  12.366  19.577  0.00  0.00    +0.000 OA
ENDBRANCH  25  32
ENDBRANCH  22  30
ENDBRANCH  20  22
ENDBRANCH   1  20
TORSDOF 5
ENDMDL
MODEL 2
REMARK VINA RESULT:      -7.7      1.871      2.370
REMARK  Name = 
REMARK  7 active torsions:
REMARK  status: ('A' for Active; 'I' for Inactive)
REMARK    1  A    between atoms: C_1  and  O_2
REMARK    2  A    between atoms: O_2  and  C_3
REMARK    3  A    between atoms: C_8  and  S_9
REMARK    4  A    between atoms: S_9  and  N_12
REMARK    5  A    between atoms: N_12  and  C_13
REMARK    6  A    between atoms: C_20  and  C_21
REMARK    7  A    between atoms: N_30  and  C_31
REMARK                            x       y       z     vdW  Elec       q    Type
REMARK                         _______ _______ _______ _____ _____    ______ ____
ROOT
ATOM      1  C   UNL     1       2.109   7.562  19.390  0.00  0.00    +0.000 A 
ATOM      2  C   UNL     1       1.949   6.985  20.669  0.00  0.00    +0.000 A 
ATOM      3  C   UNL     1       2.031   5.581  20.837  0.00  0.00    +0.000 A 
ATOM      4  C   UNL     1       2.034   4.843  19.651  0.00  0.00    +0.000 A 
ATOM      5  C   UNL     1       2.185   5.501  18.429  0.00  0.00    +0.000 A 
ATOM      6  C   UNL     1       2.541   4.521  17.515  0.00  0.00    +0.000 A 
ATOM      7  C   UNL     1       3.696   4.737  16.750  0.00  0.00    +0.000 A 
ATOM      8  C   UNL     1       4.544   5.691  17.352  0.00  0.00    +0.000 A 
ATOM      9  N   UNL     1       4.074   6.752  18.094  0.00  0.00    +0.000 NA
ATOM     10  C   UNL     1       2.762   6.732  18.470  0.00  0.00    +0.000 A 
ATOM     11  C   UNL     1       2.203   3.215  18.011  0.00  0.00    +0.000 C 
ATOM     12  O   UNL     1       2.222   2.119  17.472  0.00  0.00    +0.000 OA
ATOM     13  N   UNL     1       2.146   3.454  19.420  0.00  0.00    +0.000 N 
ATOM     14  C   UNL     1       3.162   2.681  20.114  0.00  0.00    +0.000 C 
ENDROOT
BRANCH   8  15
ATOM     15  C   UNL     1       5.908   5.214  17.685  0.00  0.00    +0.000 A 
ATOM     16  C   UNL     1       6.880   4.458  17.048  0.00  0.00    +0.000 A 
ATOM     17  C   UNL     1       8.060   4.543  17.842  0.00  0.00    +0.000 A 
ATOM     18  C   UNL     1       7.757   5.376  18.890  0.00  0.00    +0.000 A 
ATOM     19  O   UNL     1       6.466   5.779  18.808  0.00  0.00    +0.000 OA
ENDBRANCH   8  15
BRANCH   1  20
ATOM     20  N   UNL     1       0.904   8.186  18.874  0.00  0.00    +0.000 N 
ATOM     21  H   UNL     1       0.026   7.664  18.897  0.00  0.00    +0.000 HD
BRANCH  20  22
ATOM     22  S   UNL     1       0.644   9.835  18.759  0.00  0.00    +0.000 S 
ATOM     23  O   UNL     1      -0.407  10.075  17.784  0.00  0.00    +0.000 OA
ATOM     24  O   UNL     1       1.934  10.473  18.619  0.00  0.00    +0.000 OA
BRANCH  22  30
ATOM     25  C   UNL     1      -0.300  11.542  20.732  0.00  0.00    +0.000 A 
ATOM     26  C   UNL     1      -0.686  11.797  22.055  0.00  0.00    +0.000 A 
ATOM     27  C   UNL     1      -0.817  10.754  22.976  0.00  0.00    +0.000 A 
ATOM     28  C   UNL     1      -0.566   9.441  22.588  0.00  0.00    +0.000 A 
ATOM     29  C   UNL     1      -0.146   9.172  21.288  0.00  0.00    +0.000 A 
ATOM     30  C   UNL     1       0.015  10.220  20.379  0.00  0.00    +0.000 A 
BRANCH  25  32
ATOM     31  C   UNL     1      -1.070  13.644  19.948  0.00  0.00    +0.000 C 
ATOM     32  O   UNL     1      -0.185  12.535  19.792  0.00  0.00    +0.000 OA
ENDBRANCH  25  32
ENDBRANCH  22  30
ENDBRANCH  20  22
ENDBRANCH   1  20
TORSDOF 5
ENDMDL
MODEL 3
REMARK VINA RESULT:      -7.6      2.057      2.597
REMARK  Name = 
REMARK  7 active torsions:
REMARK  status: ('A' for Active; 'I' for Inactive)
REMARK    1  A    between atoms: C_1  and  O_2
REMARK    2  A    between atoms: O_2  and  C_3
REMARK    3  A    between atoms: C_8  and  S_9
REMARK    4  A    between atoms: S_9  and  N_12
REMARK    5  A    between atoms: N_12  and  C_13
REMARK    6  A    between atoms: C_20  and  C_21
REMARK    7  A    between atoms: N_30  and  C_31
REMARK                            x       y       z     vdW  Elec       q    Type
REMARK                         _______ _______ _______ _____ _____    ______ ____
ROOT
ATOM      1  C   UNL     1       2.106   7.633  19.605  0.00  0.00    +0.000 A 
ATOM      2  C   UNL     1       1.957   7.022  20.869  0.00  0.00    +0.000 A 
ATOM      3  C   UNL     1       2.021   5.612  20.995  0.00  0.00    +0.000 A 
ATOM      4  C   UNL     1       1.996   4.909  19.788  0.00  0.00    +0.000 A 
ATOM      5  C   UNL     1       2.139   5.599  18.583  0.00  0.00    +0.000 A 
ATOM      6  C   UNL     1       2.467   4.642  17.636  0.00  0.00    +0.000 A 
ATOM      7  C   UNL     1       3.613   4.864  16.860  0.00  0.00    +0.000 A 
ATOM      8  C   UNL     1       4.484   5.788  17.477  0.00  0.00    +0.000 A 
ATOM      9  N   UNL     1       4.040   6.834  18.256  0.00  0.00    +0.000 NA
ATOM     10  C   UNL     1       2.733   6.821  18.651  0.00  0.00    +0.000 A 
ATOM     11  C   UNL     1       2.118   3.327  18.100  0.00  0.00    +0.000 C 
ATOM     12  O   UNL     1       2.113   2.247  17.530  0.00  0.00    +0.000 OA
ATOM     13  N   UNL     1       2.085   3.526  19.516  0.00  0.00    +0.000 N 
ATOM     14  C   UNL     1       3.100   2.719  20.172  0.00  0.00    +0.000 C 
ENDROOT
BRANCH   8  15
ATOM     15  C   UNL     1       5.845   5.282  17.775  0.00  0.00    +0.000 A 
ATOM     16  C   UNL     1       6.776   4.488  17.123  0.00  0.00    +0.000 A 
ATOM     17  C   UNL     1       7.984   4.559  17.875  0.00  0.00    +0.000 A 
ATOM     18  C   UNL     1       7.737   5.421  18.914  0.00  0.00    +0.000 A 
ATOM     19  O   UNL     1       6.455   5.856  18.866  0.00  0.00    +0.000 OA
ENDBRANCH   8  15
BRANCH   1  20
ATOM     20  N   UNL     1       0.903   8.288  19.125  0.00  0.00    +0.000 N 
ATOM     21  H   UNL     1       0.042   8.206  19.669  0.00  0.00    +0.000 HD
BRANCH  20  22
ATOM     22  S   UNL     1       0.867   9.611  18.102  0.00  0.00    +0.000 S 
ATOM     23  O   UNL     1      -0.447   9.690  17.486  0.00  0.00    +0.000 OA
ATOM     24  O   UNL     1       2.059   9.566  17.284  0.00  0.00    +0.000 OA
BRANCH  22  30
ATOM     25  C   UNL     1       0.347  10.963  20.469  0.00  0.00    +0.000 A 
ATOM     26  C   UNL     1       0.436  12.103  21.278  0.00  0.00    +0.000 A 
ATOM     27  C   UNL     1       1.244  13.182  20.907  0.00  0.00    +0.000 A 
ATOM     28  C   UNL     1       1.976  13.135  19.724  0.00  0.00    +0.000 A 
ATOM     29  C   UNL     1       1.872  12.026  18.890  0.00  0.00    +0.000 A 
ATOM     30  C   UNL     1       1.039  10.963  19.247  0.00  0.00    +0.000 A 
BRANCH  25  32
ATOM     31  C   UNL     1      -0.443   9.545  22.199  0.00  0.00    +0.000 C 
ATOM     32  O   UNL     1      -0.415   9.874  20.810  0.00  0.00    +0.000 OA
ENDBRANCH  25  32
ENDBRANCH  22  30
ENDBRANCH  20  22
ENDBRANCH   1  20
TORSDOF 5
ENDMDL
MODEL 4
REMARK VINA RESULT:      -7.4      4.473      7.914
REMARK  Name = 
REMARK  7 active torsions:
REMARK  status: ('A' for Active; 'I' for Inactive)
REMARK    1  A    between atoms: C_1  and  O_2
REMARK    2  A    between atoms: O_2  and  C_3
REMARK    3  A    between atoms: C_8  and  S_9
REMARK    4  A    between atoms: S_9  and  N_12
REMARK    5  A    between atoms: N_12  and  C_13
REMARK    6  A    between atoms: C_20  and  C_21
REMARK    7  A    between atoms: N_30  and  C_31
REMARK                            x       y       z     vdW  Elec       q    Type
REMARK                         _______ _______ _______ _____ _____    ______ ____
ROOT
ATOM      1  C   UNL     1       1.386  14.161  18.617  0.00  0.00    +0.000 A 
ATOM      2  C   UNL     1       2.445  13.508  17.948  0.00  0.00    +0.000 A 
ATOM      3  C   UNL     1       2.569  12.098  18.010  0.00  0.00    +0.000 A 
ATOM      4  C   UNL     1       1.741  11.472  18.944  0.00  0.00    +0.000 A 
ATOM      5  C   UNL     1       0.725  12.201  19.566  0.00  0.00    +0.000 A 
ATOM      6  C   UNL     1      -0.139  11.261  20.104  0.00  0.00    +0.000 A 
ATOM      7  C   UNL     1      -1.498  11.366  19.774  0.00  0.00    +0.000 A 
ATOM      8  C   UNL     1      -1.688  12.128  18.601  0.00  0.00    +0.000 A 
ATOM      9  N   UNL     1      -0.872  13.180  18.249  0.00  0.00    +0.000 NA
ATOM     10  C   UNL     1       0.305  13.324  18.924  0.00  0.00    +0.000 A 
ATOM     11  C   UNL     1       0.508   9.982  20.220  0.00  0.00    +0.000 C 
ATOM     12  O   UNL     1       0.152   8.946  20.759  0.00  0.00    +0.000 OA
ATOM     13  N   UNL     1       1.556  10.107  19.254  0.00  0.00    +0.000 N 
ATOM     14  C   UNL     1       1.389   9.134  18.187  0.00  0.00    +0.000 C 
ENDROOT
BRANCH   8  15
ATOM     15  C   UNL     1      -2.368  11.425  17.487  0.00  0.00    +0.000 A 
ATOM     16  C   UNL     1      -2.091  10.325  16.689  0.00  0.00    +0.000 A 
ATOM     17  C   UNL     1      -3.269  10.049  15.937  0.00  0.00    +0.000 A 
ATOM     18  C   UNL     1      -4.207  10.964  16.346  0.00  0.00    +0.000 A 
ATOM     19  O   UNL     1      -3.674  11.796  17.272  0.00  0.00    +0.000 OA
ENDBRANCH   8  15
BRANCH   1  20
ATOM     20  N   UNL     1       1.817  15.000  19.720  0.00  0.00    +0.000 N 
ATOM     21  H   UNL     1       2.087  14.560  20.602  0.00  0.00    +0.000 HD
BRANCH  20  22
ATOM     22  S   UNL     1       2.462  16.536  19.570  0.00  0.00    +0.000 S 
ATOM     23  O   UNL     1       3.696  16.454  18.807  0.00  0.00    +0.000 OA
ATOM     24  O   UNL     1       2.450  17.147  20.881  0.00  0.00    +0.000 OA
BRANCH  22  30
ATOM     25  C   UNL     1      -0.108  17.408  18.990  0.00  0.00    +0.000 A 
ATOM     26  C   UNL     1      -1.048  17.967  18.114  0.00  0.00    +0.000 A 
ATOM     27  C   UNL     1      -0.649  18.512  16.890  0.00  0.00    +0.000 A 
ATOM     28  C   UNL     1       0.695  18.509  16.526  0.00  0.00    +0.000 A 
ATOM     29  C   UNL     1       1.638  17.926  17.368  0.00  0.00    +0.000 A 
ATOM     30  C   UNL     1       1.232  17.353  18.574  0.00  0.00    +0.000 A 
BRANCH  25  32
ATOM     31  C   UNL     1      -1.710  16.203  20.259  0.00  0.00    +0.000 C 
ATOM     32  O   UNL     1      -0.456  16.885  20.210  0.00  0.00    +0.000 OA
ENDBRANCH  25  32
ENDBRANCH  22  30
ENDBRANCH  20  22
ENDBRANCH   1  20
TORSDOF 5
ENDMDL
MODEL 5
REMARK VINA RESULT:      -7.4      5.035      7.882
REMARK  Name = 
REMARK  7 active torsions:
REMARK  status: ('A' for Active; 'I' for Inactive)
REMARK    1  A    between atoms: C_1  and  O_2
REMARK    2  A    between atoms: O_2  and  C_3
REMARK    3  A    between atoms: C_8  and  S_9
REMARK    4  A    between atoms: S_9  and  N_12
REMARK    5  A    between atoms: N_12  and  C_13
REMARK    6  A    between atoms: C_20  and  C_21
REMARK    7  A    between atoms: N_30  and  C_31
REMARK                            x       y       z     vdW  Elec       q    Type
REMARK                         _______ _______ _______ _____ _____    ______ ____
ROOT
ATOM      1  C   UNL     1      -1.936  12.718  22.330  0.00  0.00    +0.000 A 
ATOM      2  C   UNL     1      -1.233  11.682  22.984  0.00  0.00    +0.000 A 
ATOM      3  C   UNL     1      -0.564  10.685  22.232  0.00  0.00    +0.000 A 
ATOM      4  C   UNL     1      -0.856  10.679  20.866  0.00  0.00    +0.000 A 
ATOM      5  C   UNL     1      -1.568  11.741  20.307  0.00  0.00    +0.000 A 
ATOM      6  C   UNL     1      -1.359  11.657  18.940  0.00  0.00    +0.000 A 
ATOM      7  C   UNL     1      -0.891  12.804  18.284  0.00  0.00    +0.000 A 
ATOM      8  C   UNL     1      -0.283  13.705  19.186  0.00  0.00    +0.000 A 
ATOM      9  N   UNL     1      -0.697  13.851  20.492  0.00  0.00    +0.000 NA
ATOM     10  C   UNL     1      -1.550  12.914  20.998  0.00  0.00    +0.000 A 
ATOM     11  C   UNL     1      -0.902  10.344  18.575  0.00  0.00    +0.000 C 
ATOM     12  O   UNL     1      -0.737   9.824  17.482  0.00  0.00    +0.000 OA
ATOM     13  N   UNL     1      -0.360   9.879  19.814  0.00  0.00    +0.000 N 
ATOM     14  C   UNL     1       1.068   9.640  19.692  0.00  0.00    +0.000 C 
ENDROOT
BRANCH   8  15
ATOM     15  C   UNL     1       1.137  14.026  18.909  0.00  0.00    +0.000 A 
ATOM     16  C   UNL     1       2.283  13.300  18.623  0.00  0.00    +0.000 A 
ATOM     17  C   UNL     1       3.288  14.238  18.251  0.00  0.00    +0.000 A 
ATOM     18  C   UNL     1       2.691  15.474  18.289  0.00  0.00    +0.000 A 
ATOM     19  O   UNL     1       1.402  15.357  18.688  0.00  0.00    +0.000 OA
ENDBRANCH   8  15
BRANCH   1  20
ATOM     20  N   UNL     1      -3.373  12.668  22.529  0.00  0.00    +0.000 N 
ATOM     21  H   UNL     1      -3.929  12.020  21.968  0.00  0.00    +0.000 HD
BRANCH  20  22
ATOM     22  S   UNL     1      -4.170  13.122  23.928  0.00  0.00    +0.000 S 
ATOM     23  O   UNL     1      -3.362  14.106  24.628  0.00  0.00    +0.000 OA
ATOM     24  O   UNL     1      -4.601  11.915  24.599  0.00  0.00    +0.000 OA
BRANCH  22  30
ATOM     25  C   UNL     1      -6.370  13.343  22.251  0.00  0.00    +0.000 A 
ATOM     26  C   UNL     1      -7.431  14.078  21.706  0.00  0.00    +0.000 A 
ATOM     27  C   UNL     1      -7.767  15.335  22.217  0.00  0.00    +0.000 A 
ATOM     28  C   UNL     1      -7.049  15.874  23.282  0.00  0.00    +0.000 A 
ATOM     29  C   UNL     1      -5.969  15.174  23.812  0.00  0.00    +0.000 A 
ATOM     30  C   UNL     1      -5.616  13.933  23.278  0.00  0.00    +0.000 A 
BRANCH  25  32
ATOM     31  C   UNL     1      -6.797  11.599  20.700  0.00  0.00    +0.000 C 
ATOM     32  O   UNL     1      -6.025  12.096  21.794  0.00  0.00    +0.000 OA
ENDBRANCH  25  32
ENDBRANCH  22  30
ENDBRANCH  20  22
ENDBRANCH   1  20
TORSDOF 5
ENDMDL
MODEL 6
REMARK VINA RESULT:      -7.1      2.396      8.307
REMARK  Name = 
REMARK  7 active torsions:
REMARK  status: ('A' for Active; 'I' for Inactive)
REMARK    1  A    between atoms: C_1  and  O_2
REMARK    2  A    between atoms: O_2  and  C_3
REMARK    3  A    between atoms: C_8  and  S_9
REMARK    4  A    between atoms: S_9  and  N_12
REMARK    5  A    between atoms: N_12  and  C_13
REMARK    6  A    between atoms: C_20  and  C_21
REMARK    7  A    between atoms: N_30  and  C_31
REMARK                            x       y       z     vdW  Elec       q    Type
REMARK                         _______ _______ _______ _____ _____    ______ ____
ROOT
ATOM      1  C   UNL     1       0.662   8.207  20.329  0.00  0.00    +0.000 A 
ATOM      2  C   UNL     1       0.107   8.121  21.625  0.00  0.00    +0.000 A 
ATOM      3  C   UNL     1      -0.252   9.297  22.330  0.00  0.00    +0.000 A 
ATOM      4  C   UNL     1       0.200  10.489  21.759  0.00  0.00    +0.000 A 
ATOM      5  C   UNL     1       0.748  10.476  20.475  0.00  0.00    +0.000 A 
ATOM      6  C   UNL     1       0.729  11.794  20.044  0.00  0.00    +0.000 A 
ATOM      7  C   UNL     1       0.124  12.063  18.809  0.00  0.00    +0.000 A 
ATOM      8  C   UNL     1      -0.757  11.028  18.428  0.00  0.00    +0.000 A 
ATOM      9  N   UNL     1      -0.545   9.705  18.749  0.00  0.00    +0.000 NA
ATOM     10  C   UNL     1       0.411   9.424  19.683  0.00  0.00    +0.000 A 
ATOM     11  C   UNL     1       0.593  12.692  21.159  0.00  0.00    +0.000 C 
ATOM     12  O   UNL     1       0.670  13.909  21.226  0.00  0.00    +0.000 OA
ATOM     13  N   UNL     1       0.007  11.835  22.142  0.00  0.00    +0.000 N 
ATOM     14  C   UNL     1      -1.318  12.303  22.509  0.00  0.00    +0.000 C 
ENDROOT
BRANCH   8  15
ATOM     15  C   UNL     1      -2.168  11.433  18.223  0.00  0.00    +0.000 A 
ATOM     16  C   UNL     1      -3.110  11.282  17.217  0.00  0.00    +0.000 A 
ATOM     17  C   UNL     1      -4.356  11.730  17.743  0.00  0.00    +0.000 A 
ATOM     18  C   UNL     1      -4.115  12.087  19.046  0.00  0.00    +0.000 A 
ATOM     19  O   UNL     1      -2.804  11.917  19.342  0.00  0.00    +0.000 OA
ENDBRANCH   8  15
BRANCH   1  20
ATOM     20  N   UNL     1       2.045   7.771  20.255  0.00  0.00    +0.000 N 
ATOM     21  H   UNL     1       2.575   7.652  21.120  0.00  0.00    +0.000 HD
BRANCH  20  22
ATOM     22  S   UNL     1       2.717   6.907  18.989  0.00  0.00    +0.000 S 
ATOM     23  O   UNL     1       4.165   6.955  19.108  0.00  0.00    +0.000 OA
ATOM     24  O   UNL     1       2.067   7.336  17.771  0.00  0.00    +0.000 OA
BRANCH  22  30
ATOM     25  C   UNL     1       2.292   4.232  18.388  0.00  0.00    +0.000 A 
ATOM     26  C   UNL     1       1.746   2.976  18.688  0.00  0.00    +0.000 A 
ATOM     27  C   UNL     1       1.158   2.731  19.932  0.00  0.00    +0.000 A 
ATOM     28  C   UNL     1       1.110   3.735  20.895  0.00  0.00    +0.000 A 
ATOM     29  C   UNL     1       1.615   4.998  20.603  0.00  0.00    +0.000 A 
ATOM     30  C   UNL     1       2.172   5.250  19.347  0.00  0.00    +0.000 A 
BRANCH  25  32
ATOM     31  C   UNL     1       4.224   3.997  17.033  0.00  0.00    +0.000 C 
ATOM     32  O   UNL     1       2.899   4.505  17.188  0.00  0.00    +0.000 OA
ENDBRANCH  25  32
ENDBRANCH  22  30
ENDBRANCH  20  22
ENDBRANCH   1  20
TORSDOF 5
ENDMDL
MODEL 7
REMARK VINA RESULT:      -7.1      4.599      8.038
REMARK  Name = 
REMARK  7 active torsions:
REMARK  status: ('A' for Active; 'I' for Inactive)
REMARK    1  A    between atoms: C_1  and  O_2
REMARK    2  A    between atoms: O_2  and  C_3
REMARK    3  A    between atoms: C_8  and  S_9
REMARK    4  A    between atoms: S_9  and  N_12
REMARK    5  A    between atoms: N_12  and  C_13
REMARK    6  A    between atoms: C_20  and  C_21
REMARK    7  A    between atoms: N_30  and  C_31
REMARK                            x       y       z     vdW  Elec       q    Type
REMARK                         _______ _______ _______ _____ _____    ______ ____
ROOT
ATOM      1  C   UNL     1       0.888  14.250  18.974  0.00  0.00    +0.000 A 
ATOM      2  C   UNL     1       1.984  13.757  18.234  0.00  0.00    +0.000 A 
ATOM      3  C   UNL     1       2.242  12.364  18.177  0.00  0.00    +0.000 A 
ATOM      4  C   UNL     1       1.502  11.589  19.073  0.00  0.00    +0.000 A 
ATOM      5  C   UNL     1       0.440  12.166  19.773  0.00  0.00    +0.000 A 
ATOM      6  C   UNL     1      -0.317  11.108  20.249  0.00  0.00    +0.000 A 
ATOM      7  C   UNL     1      -1.688  11.108  19.957  0.00  0.00    +0.000 A 
ATOM      8  C   UNL     1      -1.982  11.939  18.854  0.00  0.00    +0.000 A 
ATOM      9  N   UNL     1      -1.278  13.090  18.573  0.00  0.00    +0.000 NA
ATOM     10  C   UNL     1      -0.101  13.292  19.234  0.00  0.00    +0.000 A 
ATOM     11  C   UNL     1       0.450   9.892  20.248  0.00  0.00    +0.000 C 
ATOM     12  O   UNL     1       0.208   8.787  20.707  0.00  0.00    +0.000 OA
ATOM     13  N   UNL     1       1.454  10.192  19.274  0.00  0.00    +0.000 N 
ATOM     14  C   UNL     1       1.350   9.296  18.135  0.00  0.00    +0.000 C 
ENDROOT
BRANCH   8  15
ATOM     15  C   UNL     1      -2.623  11.266  17.700  0.00  0.00    +0.000 A 
ATOM     16  C   UNL     1      -3.790  11.437  16.971  0.00  0.00    +0.000 A 
ATOM     17  C   UNL     1      -3.706  10.573  15.841  0.00  0.00    +0.000 A 
ATOM     18  C   UNL     1      -2.481   9.959  15.920  0.00  0.00    +0.000 A 
ATOM     19  O   UNL     1      -1.826  10.364  17.034  0.00  0.00    +0.000 OA
ENDBRANCH   8  15
BRANCH   1  20
ATOM     20  N   UNL     1       1.269  15.036  20.134  0.00  0.00    +0.000 N 
ATOM     21  H   UNL     1       2.190  14.889  20.552  0.00  0.00    +0.000 HD
BRANCH  20  22
ATOM     22  S   UNL     1       0.634  16.529  20.540  0.00  0.00    +0.000 S 
ATOM     23  O   UNL     1       1.628  17.270  21.298  0.00  0.00    +0.000 OA
ATOM     24  O   UNL     1      -0.689  16.310  21.082  0.00  0.00    +0.000 OA
BRANCH  22  30
ATOM     25  C   UNL     1       1.575  17.571  18.146  0.00  0.00    +0.000 A 
ATOM     26  C   UNL     1       1.378  18.273  16.950  0.00  0.00    +0.000 A 
ATOM     27  C   UNL     1       0.092  18.630  16.533  0.00  0.00    +0.000 A 
ATOM     28  C   UNL     1      -1.015  18.286  17.304  0.00  0.00    +0.000 A 
ATOM     29  C   UNL     1      -0.836  17.621  18.513  0.00  0.00    +0.000 A 
ATOM     30  C   UNL     1       0.452  17.295  18.943  0.00  0.00    +0.000 A 
BRANCH  25  32
ATOM     31  C   UNL     1       3.683  16.646  17.577  0.00  0.00    +0.000 C 
ATOM     32  O   UNL     1       2.818  17.182  18.578  0.00  0.00    +0.000 OA
ENDBRANCH  25  32
ENDBRANCH  22  30
ENDBRANCH  20  22
ENDBRANCH   1  20
TORSDOF 5
ENDMDL
MODEL 8
REMARK VINA RESULT:      -7.1      5.044      7.906
REMARK  Name = 
REMARK  7 active torsions:
REMARK  status: ('A' for Active; 'I' for Inactive)
REMARK    1  A    between atoms: C_1  and  O_2
REMARK    2  A    between atoms: O_2  and  C_3
REMARK    3  A    between atoms: C_8  and  S_9
REMARK    4  A    between atoms: S_9  and  N_12
REMARK    5  A    between atoms: N_12  and  C_13
REMARK    6  A    between atoms: C_20  and  C_21
REMARK    7  A    between atoms: N_30  and  C_31
REMARK                            x       y       z     vdW  Elec       q    Type
REMARK                         _______ _______ _______ _____ _____    ______ ____
ROOT
ATOM      1  C   UNL     1      -1.893  12.708  22.366  0.00  0.00    +0.000 A 
ATOM      2  C   UNL     1      -1.179  11.664  22.995  0.00  0.00    +0.000 A 
ATOM      3  C   UNL     1      -0.532  10.671  22.219  0.00  0.00    +0.000 A 
ATOM      4  C   UNL     1      -0.855  10.678  20.860  0.00  0.00    +0.000 A 
ATOM      5  C   UNL     1      -1.576  11.748  20.327  0.00  0.00    +0.000 A 
ATOM      6  C   UNL     1      -1.399  11.675  18.955  0.00  0.00    +0.000 A 
ATOM      7  C   UNL     1      -0.942  12.826  18.298  0.00  0.00    +0.000 A 
ATOM      8  C   UNL     1      -0.310  13.716  19.193  0.00  0.00    +0.000 A 
ATOM      9  N   UNL     1      -0.692  13.852  20.510  0.00  0.00    +0.000 NA
ATOM     10  C   UNL     1      -1.537  12.914  21.027  0.00  0.00    +0.000 A 
ATOM     11  C   UNL     1      -0.956  10.363  18.568  0.00  0.00    +0.000 C 
ATOM     12  O   UNL     1      -0.818   9.852  17.467  0.00  0.00    +0.000 OA
ATOM     13  N   UNL     1      -0.387   9.885  19.790  0.00  0.00    +0.000 N 
ATOM     14  C   UNL     1       1.037   9.642  19.633  0.00  0.00    +0.000 C 
ENDROOT
BRANCH   8  15
ATOM     15  C   UNL     1       1.105  14.034  18.886  0.00  0.00    +0.000 A 
ATOM     16  C   UNL     1       2.213  13.322  18.452  0.00  0.00    +0.000 A 
ATOM     17  C   UNL     1       3.228  14.274  18.150  0.00  0.00    +0.000 A 
ATOM     18  C   UNL     1       2.672  15.510  18.374  0.00  0.00    +0.000 A 
ATOM     19  O   UNL     1       1.401  15.375  18.821  0.00  0.00    +0.000 OA
ENDBRANCH   8  15
BRANCH   1  20
ATOM     20  N   UNL     1      -3.325  12.662  22.598  0.00  0.00    +0.000 N 
ATOM     21  H   UNL     1      -3.897  12.026  22.040  0.00  0.00    +0.000 HD
BRANCH  20  22
ATOM     22  S   UNL     1      -4.086  13.095  24.023  0.00  0.00    +0.000 S 
ATOM     23  O   UNL     1      -3.248  14.049  24.730  0.00  0.00    +0.000 OA
ATOM     24  O   UNL     1      -4.524  11.880  24.674  0.00  0.00    +0.000 OA
BRANCH  22  30
ATOM     25  C   UNL     1      -5.418  14.956  22.454  0.00  0.00    +0.000 A 
ATOM     26  C   UNL     1      -6.575  15.663  22.101  0.00  0.00    +0.000 A 
ATOM     27  C   UNL     1      -7.815  15.326  22.651  0.00  0.00    +0.000 A 
ATOM     28  C   UNL     1      -7.916  14.276  23.559  0.00  0.00    +0.000 A 
ATOM     29  C   UNL     1      -6.772  13.585  23.949  0.00  0.00    +0.000 A 
ATOM     30  C   UNL     1      -5.530  13.946  23.422  0.00  0.00    +0.000 A 
BRANCH  25  32
ATOM     31  C   UNL     1      -3.653  16.526  22.234  0.00  0.00    +0.000 C 
ATOM     32  O   UNL     1      -4.187  15.240  21.917  0.00  0.00    +0.000 OA
ENDBRANCH  25  32
ENDBRANCH  22  30
ENDBRANCH  20  22
ENDBRANCH   1  20
TORSDOF 5
ENDMDL
MODEL 9
REMARK VINA RESULT:      -7.1      2.030      2.551
REMARK  Name = 
REMARK  7 active torsions:
REMARK  status: ('A' for Active; 'I' for Inactive)
REMARK    1  A    between atoms: C_1  and  O_2
REMARK    2  A    between atoms: O_2  and  C_3
REMARK    3  A    between atoms: C_8  and  S_9
REMARK    4  A    between atoms: S_9  and  N_12
REMARK    5  A    between atoms: N_12  and  C_13
REMARK    6  A    between atoms: C_20  and  C_21
REMARK    7  A    between atoms: N_30  and  C_31
REMARK                            x       y       z     vdW  Elec       q    Type
REMARK                         _______ _______ _______ _____ _____    ______ ____
ROOT
ATOM      1  C   UNL     1       2.169   8.152  19.061  0.00  0.00    +0.000 A 
ATOM      2  C   UNL     1       1.919   7.740  20.388  0.00  0.00    +0.000 A 
ATOM      3  C   UNL     1       1.895   6.362  20.718  0.00  0.00    +0.000 A 
ATOM      4  C   UNL     1       1.893   5.493  19.624  0.00  0.00    +0.000 A 
ATOM      5  C   UNL     1       2.138   5.992  18.344  0.00  0.00    +0.000 A 
ATOM      6  C   UNL     1       2.460   4.892  17.565  0.00  0.00    +0.000 A 
ATOM      7  C   UNL     1       3.656   4.941  16.836  0.00  0.00    +0.000 A 
ATOM      8  C   UNL     1       4.545   5.901  17.365  0.00  0.00    +0.000 A 
ATOM      9  N   UNL     1       4.122   7.070  17.959  0.00  0.00    +0.000 NA
ATOM     10  C   UNL     1       2.798   7.180  18.272  0.00  0.00    +0.000 A 
ATOM     11  C   UNL     1       2.011   3.677  18.190  0.00  0.00    +0.000 C 
ATOM     12  O   UNL     1       1.974   2.527  17.781  0.00  0.00    +0.000 OA
ATOM     13  N   UNL     1       1.916   4.082  19.559  0.00  0.00    +0.000 N 
ATOM     14  C   UNL     1       2.847   3.331  20.383  0.00  0.00    +0.000 C 
ENDROOT
BRANCH   8  15
ATOM     15  C   UNL     1       5.857   5.377  17.814  0.00  0.00    +0.000 A 
ATOM     16  C   UNL     1       6.882   4.639  17.242  0.00  0.00    +0.000 A 
ATOM     17  C   UNL     1       7.970   4.655  18.161  0.00  0.00    +0.000 A 
ATOM     18  C   UNL     1       7.567   5.433  19.217  0.00  0.00    +0.000 A 
ATOM     19  O   UNL     1       6.300   5.867  19.021  0.00  0.00    +0.000 OA
ENDBRANCH   8  15
BRANCH   1  20
ATOM     20  N   UNL     1       1.033   8.789  18.421  0.00  0.00    +0.000 N 
ATOM     21  H   UNL     1       0.572   8.315  17.641  0.00  0.00    +0.000 HD
BRANCH  20  22
ATOM     22  S   UNL     1       0.033   9.924  19.136  0.00  0.00    +0.000 S 
ATOM     23  O   UNL     1      -0.323   9.461  20.467  0.00  0.00    +0.000 OA
ATOM     24  O   UNL     1      -0.995  10.268  18.179  0.00  0.00    +0.000 OA
BRANCH  22  30
ATOM     25  C   UNL     1       1.184  12.054  20.493  0.00  0.00    +0.000 A 
ATOM     26  C   UNL     1       1.978  13.208  20.521  0.00  0.00    +0.000 A 
ATOM     27  C   UNL     1       2.737  13.582  19.408  0.00  0.00    +0.000 A 
ATOM     28  C   UNL     1       2.716  12.805  18.253  0.00  0.00    +0.000 A 
ATOM     29  C   UNL     1       1.906  11.675  18.194  0.00  0.00    +0.000 A 
ATOM     30  C   UNL     1       1.123  11.323  19.295  0.00  0.00    +0.000 A 
BRANCH  25  32
ATOM     31  C   UNL     1      -0.485  12.593  22.089  0.00  0.00    +0.000 C 
ATOM     32  O   UNL     1       0.444  11.641  21.572  0.00  0.00    +0.000 OA
ENDBRANCH  25  32
ENDBRANCH  22  30
ENDBRANCH  20  22
ENDBRANCH   1  20
TORSDOF 5
ENDMDL
