MODEL 1
REMARK VINA RESULT:      -8.9      0.000      0.000
REMARK  Name = 
REMARK  5 active torsions:
REMARK  status: ('A' for Active; 'I' for Inactive)
REMARK    1  A    between atoms: C_1  and  C_2
REMARK    2  A    between atoms: N_4  and  C_5
REMARK    3  A    between atoms: C_9  and  C_10
REMARK    4  A    between atoms: C_27  and  C_28
REMARK    5  A    between atoms: C_27  and  C_29
REMARK                            x       y       z     vdW  Elec       q    Type
REMARK                         _______ _______ _______ _____ _____    ______ ____
ROOT
ATOM      1  C   UNL     1       1.713   8.409  19.023  0.00  0.00    +0.000 A 
ATOM      2  C   UNL     1       2.710   8.580  18.069  0.00  0.00    +0.000 A 
ATOM      3  C   UNL     1       3.540   7.501  17.723  0.00  0.00    +0.000 A 
ATOM      4  C   UNL     1       3.380   6.226  18.337  0.00  0.00    +0.000 A 
ATOM      5  C   UNL     1       2.335   6.015  19.276  0.00  0.00    +0.000 A 
ATOM      6  C   UNL     1       1.516   7.139  19.580  0.00  0.00    +0.000 A 
ATOM      7  C   UNL     1       4.394   5.171  17.955  0.00  0.00    +0.000 C 
ATOM      8  O   UNL     1       4.645   4.175  18.622  0.00  0.00    +0.000 OA
ATOM      9  N   UNL     1       5.107   5.362  16.791  0.00  0.00    +0.000 N 
ATOM     10  C   UNL     1       4.914   6.493  15.921  0.00  0.00    +0.000 C 
ATOM     11  C   UNL     1       4.665   7.745  16.740  0.00  0.00    +0.000 C 
ATOM     12  H   UNL     1       5.700   4.590  16.519  0.00  0.00    +0.000 HD
ENDROOT
BRANCH   1  16
ATOM     13  C   UNL     1      -0.121  12.204  21.753  0.00  0.00    +0.000 C 
ATOM     14  C   UNL     1       0.088  11.231  20.648  0.00  0.00    +0.000 A 
ATOM     15  C   UNL     1       0.956  10.154  20.634  0.00  0.00    +0.000 A 
ATOM     16  N   UNL     1       0.894   9.510  19.410  0.00  0.00    +0.000 N 
ATOM     17  C   UNL     1      -0.113  10.127  18.678  0.00  0.00    +0.000 A 
ATOM     18  C   UNL     1      -0.586  11.212  19.401  0.00  0.00    +0.000 A 
ATOM     19  C   UNL     1      -1.652  12.068  18.885  0.00  0.00    +0.000 C 
ATOM     20  O   UNL     1      -2.111  13.014  19.521  0.00  0.00    +0.000 OA
ATOM     21  C   UNL     1      -2.126  11.757  17.470  0.00  0.00    +0.000 C 
ATOM     22  C   UNL     1      -2.122  10.237  17.163  0.00  0.00    +0.000 C 
ATOM     23  C   UNL     1      -3.147   9.506  18.057  0.00  0.00    +0.000 C 
ATOM     24  C   UNL     1      -2.535  10.019  15.697  0.00  0.00    +0.000 C 
ATOM     25  C   UNL     1      -0.691   9.661  17.375  0.00  0.00    +0.000 C 
ENDBRANCH   1  16
BRANCH   5  26
ATOM     26  C   UNL     1       2.001   4.729  19.958  0.00  0.00    +0.000 A 
ATOM     27  C   UNL     1       2.432   4.474  21.285  0.00  0.00    +0.000 A 
ATOM     28  C   UNL     1       2.138   3.275  21.945  0.00  0.00    +0.000 A 
ATOM     29  C   UNL     1       1.442   2.272  21.285  0.00  0.00    +0.000 A 
ATOM     30  C   UNL     1       0.988   2.496  19.990  0.00  0.00    +0.000 A 
ATOM     31  C   UNL     1       1.227   3.724  19.362  0.00  0.00    +0.000 A 
ENDBRANCH   5  26
TORSDOF 2
ENDMDL
MODEL 2
REMARK VINA RESULT:      -8.4      1.526      7.957
REMARK  Name = 
REMARK  5 active torsions:
REMARK  status: ('A' for Active; 'I' for Inactive)
REMARK    1  A    between atoms: C_1  and  C_2
REMARK    2  A    between atoms: N_4  and  C_5
REMARK    3  A    between atoms: C_9  and  C_10
REMARK    4  A    between atoms: C_27  and  C_28
REMARK    5  A    between atoms: C_27  and  C_29
REMARK                            x       y       z     vdW  Elec       q    Type
REMARK                         _______ _______ _______ _____ _____    ______ ____
ROOT
ATOM      1  C   UNL     1       1.526   8.246  19.379  0.00  0.00    +0.000 A 
ATOM      2  C   UNL     1       1.604   8.527  20.738  0.00  0.00    +0.000 A 
ATOM      3  C   UNL     1       0.691   9.421  21.322  0.00  0.00    +0.000 A 
ATOM      4  C   UNL     1      -0.320  10.050  20.540  0.00  0.00    +0.000 A 
ATOM      5  C   UNL     1      -0.450   9.738  19.160  0.00  0.00    +0.000 A 
ATOM      6  C   UNL     1       0.493   8.817  18.624  0.00  0.00    +0.000 A 
ATOM      7  C   UNL     1      -1.181  11.067  21.258  0.00  0.00    +0.000 C 
ATOM      8  O   UNL     1      -1.824  11.948  20.703  0.00  0.00    +0.000 OA
ATOM      9  N   UNL     1      -1.217  11.012  22.635  0.00  0.00    +0.000 N 
ATOM     10  C   UNL     1      -0.502  10.032  23.408  0.00  0.00    +0.000 C 
ATOM     11  C   UNL     1       0.855   9.764  22.786  0.00  0.00    +0.000 C 
ATOM     12  H   UNL     1      -1.878  11.640  23.072  0.00  0.00    +0.000 HD
ENDROOT
BRANCH   1  16
ATOM     13  C   UNL     1       5.237   6.634  16.404  0.00  0.00    +0.000 C 
ATOM     14  C   UNL     1       4.164   6.664  17.433  0.00  0.00    +0.000 A 
ATOM     15  C   UNL     1       3.309   7.713  17.720  0.00  0.00    +0.000 A 
ATOM     16  N   UNL     1       2.475   7.372  18.771  0.00  0.00    +0.000 N 
ATOM     17  C   UNL     1       2.735   6.042  19.079  0.00  0.00    +0.000 A 
ATOM     18  C   UNL     1       3.797   5.606  18.301  0.00  0.00    +0.000 A 
ATOM     19  C   UNL     1       4.309   4.241  18.404  0.00  0.00    +0.000 C 
ATOM     20  O   UNL     1       5.226   3.821  17.702  0.00  0.00    +0.000 OA
ATOM     21  C   UNL     1       3.677   3.375  19.488  0.00  0.00    +0.000 C 
ATOM     22  C   UNL     1       2.163   3.661  19.668  0.00  0.00    +0.000 C 
ATOM     23  C   UNL     1       1.387   3.270  18.391  0.00  0.00    +0.000 C 
ATOM     24  C   UNL     1       1.624   2.806  20.828  0.00  0.00    +0.000 C 
ATOM     25  C   UNL     1       1.948   5.165  20.008  0.00  0.00    +0.000 C 
ENDBRANCH   1  16
BRANCH   5  26
ATOM     26  C   UNL     1      -1.489  10.266  18.225  0.00  0.00    +0.000 A 
ATOM     27  C   UNL     1      -2.756   9.639  18.113  0.00  0.00    +0.000 A 
ATOM     28  C   UNL     1      -3.744  10.110  17.241  0.00  0.00    +0.000 A 
ATOM     29  C   UNL     1      -3.482  11.195  16.417  0.00  0.00    +0.000 A 
ATOM     30  C   UNL     1      -2.257  11.845  16.513  0.00  0.00    +0.000 A 
ATOM     31  C   UNL     1      -1.300  11.410  17.439  0.00  0.00    +0.000 A 
ENDBRANCH   5  26
TORSDOF 2
ENDMDL
MODEL 3
REMARK VINA RESULT:      -8.2      1.403      7.955
REMARK  Name = 
REMARK  5 active torsions:
REMARK  status: ('A' for Active; 'I' for Inactive)
REMARK    1  A    between atoms: C_1  and  C_2
REMARK    2  A    between atoms: N_4  and  C_5
REMARK    3  A    between atoms: C_9  and  C_10
REMARK    4  A    between atoms: C_27  and  C_28
REMARK    5  A    between atoms: C_27  and  C_29
REMARK                            x       y       z     vdW  Elec       q    Type
REMARK                         _______ _______ _______ _____ _____    ______ ____
ROOT
ATOM      1  C   UNL     1       1.250   8.613  19.253  0.00  0.00    +0.000 A 
ATOM      2  C   UNL     1       1.327   9.089  20.557  0.00  0.00    +0.000 A 
ATOM      3  C   UNL     1       0.368  10.001  21.028  0.00  0.00    +0.000 A 
ATOM      4  C   UNL     1      -0.689  10.452  20.187  0.00  0.00    +0.000 A 
ATOM      5  C   UNL     1      -0.817   9.939  18.867  0.00  0.00    +0.000 A 
ATOM      6  C   UNL     1       0.175   9.009  18.447  0.00  0.00    +0.000 A 
ATOM      7  C   UNL     1      -1.603  11.506  20.772  0.00  0.00    +0.000 C 
ATOM      8  O   UNL     1      -2.306  12.260  20.111  0.00  0.00    +0.000 OA
ATOM      9  N   UNL     1      -1.619  11.646  22.143  0.00  0.00    +0.000 N 
ATOM     10  C   UNL     1      -0.835  10.830  23.031  0.00  0.00    +0.000 C 
ATOM     11  C   UNL     1       0.529  10.558  22.425  0.00  0.00    +0.000 C 
ATOM     12  H   UNL     1      -2.312  12.289  22.500  0.00  0.00    +0.000 HD
ENDROOT
BRANCH   1  16
ATOM     13  C   UNL     1       5.094   6.860  16.538  0.00  0.00    +0.000 C 
ATOM     14  C   UNL     1       3.992   6.950  17.532  0.00  0.00    +0.000 A 
ATOM     15  C   UNL     1       3.096   7.990  17.697  0.00  0.00    +0.000 A 
ATOM     16  N   UNL     1       2.244   7.720  18.755  0.00  0.00    +0.000 N 
ATOM     17  C   UNL     1       2.539   6.436  19.195  0.00  0.00    +0.000 A 
ATOM     18  C   UNL     1       3.637   5.966  18.489  0.00  0.00    +0.000 A 
ATOM     19  C   UNL     1       4.191   4.636  18.734  0.00  0.00    +0.000 C 
ATOM     20  O   UNL     1       5.140   4.185  18.098  0.00  0.00    +0.000 OA
ATOM     21  C   UNL     1       3.557   3.854  19.879  0.00  0.00    +0.000 C 
ATOM     22  C   UNL     1       2.030   4.103  19.994  0.00  0.00    +0.000 C 
ATOM     23  C   UNL     1       1.304   3.565  18.742  0.00  0.00    +0.000 C 
ATOM     24  C   UNL     1       1.488   3.342  21.217  0.00  0.00    +0.000 C 
ATOM     25  C   UNL     1       1.756   5.623  20.184  0.00  0.00    +0.000 C 
ENDBRANCH   1  16
BRANCH   5  26
ATOM     26  C   UNL     1      -1.898  10.266  17.889  0.00  0.00    +0.000 A 
ATOM     27  C   UNL     1      -1.687  11.220  16.861  0.00  0.00    +0.000 A 
ATOM     28  C   UNL     1      -2.685  11.548  15.936  0.00  0.00    +0.000 A 
ATOM     29  C   UNL     1      -3.941  10.967  16.034  0.00  0.00    +0.000 A 
ATOM     30  C   UNL     1      -4.177  10.013  17.018  0.00  0.00    +0.000 A 
ATOM     31  C   UNL     1      -3.152   9.640  17.897  0.00  0.00    +0.000 A 
ENDBRANCH   5  26
TORSDOF 2
ENDMDL
MODEL 4
REMARK VINA RESULT:      -8.1      1.978      4.274
REMARK  Name = 
REMARK  5 active torsions:
REMARK  status: ('A' for Active; 'I' for Inactive)
REMARK    1  A    between atoms: C_1  and  C_2
REMARK    2  A    between atoms: N_4  and  C_5
REMARK    3  A    between atoms: C_9  and  C_10
REMARK    4  A    between atoms: C_27  and  C_28
REMARK    5  A    between atoms: C_27  and  C_29
REMARK                            x       y       z     vdW  Elec       q    Type
REMARK                         _______ _______ _______ _____ _____    ______ ____
ROOT
ATOM      1  C   UNL     1       1.706   6.690  20.224  0.00  0.00    +0.000 A 
ATOM      2  C   UNL     1       1.027   5.481  20.324  0.00  0.00    +0.000 A 
ATOM      3  C   UNL     1       1.546   4.333  19.701  0.00  0.00    +0.000 A 
ATOM      4  C   UNL     1       2.762   4.386  18.963  0.00  0.00    +0.000 A 
ATOM      5  C   UNL     1       3.499   5.599  18.892  0.00  0.00    +0.000 A 
ATOM      6  C   UNL     1       2.934   6.727  19.550  0.00  0.00    +0.000 A 
ATOM      7  C   UNL     1       3.169   3.111  18.257  0.00  0.00    +0.000 C 
ATOM      8  O   UNL     1       3.944   3.058  17.311  0.00  0.00    +0.000 OA
ATOM      9  N   UNL     1       2.602   1.933  18.692  0.00  0.00    +0.000 N 
ATOM     10  C   UNL     1       1.672   1.858  19.788  0.00  0.00    +0.000 C 
ATOM     11  C   UNL     1       0.740   3.054  19.764  0.00  0.00    +0.000 C 
ATOM     12  H   UNL     1       2.972   1.095  18.265  0.00  0.00    +0.000 HD
ENDROOT
BRANCH   1  16
ATOM     13  C   UNL     1      -0.680   9.669  23.487  0.00  0.00    +0.000 C 
ATOM     14  C   UNL     1       0.098   9.202  22.310  0.00  0.00    +0.000 A 
ATOM     15  C   UNL     1       0.379   7.894  21.957  0.00  0.00    +0.000 A 
ATOM     16  N   UNL     1       1.165   7.868  20.817  0.00  0.00    +0.000 N 
ATOM     17  C   UNL     1       1.290   9.181  20.382  0.00  0.00    +0.000 A 
ATOM     18  C   UNL     1       0.683  10.016  21.308  0.00  0.00    +0.000 A 
ATOM     19  C   UNL     1       0.656  11.466  21.127  0.00  0.00    +0.000 C 
ATOM     20  O   UNL     1       0.095  12.223  21.916  0.00  0.00    +0.000 OA
ATOM     21  C   UNL     1       1.425  11.999  19.924  0.00  0.00    +0.000 C 
ATOM     22  C   UNL     1       1.339  11.053  18.698  0.00  0.00    +0.000 C 
ATOM     23  C   UNL     1      -0.115  10.967  18.188  0.00  0.00    +0.000 C 
ATOM     24  C   UNL     1       2.204  11.625  17.560  0.00  0.00    +0.000 C 
ATOM     25  C   UNL     1       1.878   9.644  19.081  0.00  0.00    +0.000 C 
ENDBRANCH   1  16
BRANCH   5  26
ATOM     26  C   UNL     1       4.814   5.800  18.210  0.00  0.00    +0.000 A 
ATOM     27  C   UNL     1       6.029   5.458  18.856  0.00  0.00    +0.000 A 
ATOM     28  C   UNL     1       7.274   5.642  18.243  0.00  0.00    +0.000 A 
ATOM     29  C   UNL     1       7.348   6.216  16.981  0.00  0.00    +0.000 A 
ATOM     30  C   UNL     1       6.175   6.546  16.312  0.00  0.00    +0.000 A 
ATOM     31  C   UNL     1       4.931   6.294  16.905  0.00  0.00    +0.000 A 
ENDBRANCH   5  26
TORSDOF 2
ENDMDL
MODEL 5
REMARK VINA RESULT:      -8.0      2.196      8.118
REMARK  Name = 
REMARK  5 active torsions:
REMARK  status: ('A' for Active; 'I' for Inactive)
REMARK    1  A    between atoms: C_1  and  C_2
REMARK    2  A    between atoms: N_4  and  C_5
REMARK    3  A    between atoms: C_9  and  C_10
REMARK    4  A    between atoms: C_27  and  C_28
REMARK    5  A    between atoms: C_27  and  C_29
REMARK                            x       y       z     vdW  Elec       q    Type
REMARK                         _______ _______ _______ _____ _____    ______ ____
ROOT
ATOM      1  C   UNL     1       1.932   9.057  17.968  0.00  0.00    +0.000 A 
ATOM      2  C   UNL     1       0.610   8.869  17.580  0.00  0.00    +0.000 A 
ATOM      3  C   UNL     1      -0.320   9.911  17.731  0.00  0.00    +0.000 A 
ATOM      4  C   UNL     1       0.069  11.166  18.281  0.00  0.00    +0.000 A 
ATOM      5  C   UNL     1       1.425  11.398  18.635  0.00  0.00    +0.000 A 
ATOM      6  C   UNL     1       2.327  10.312  18.450  0.00  0.00    +0.000 A 
ATOM      7  C   UNL     1      -1.039  12.176  18.485  0.00  0.00    +0.000 C 
ATOM      8  O   UNL     1      -0.979  13.126  19.255  0.00  0.00    +0.000 OA
ATOM      9  N   UNL     1      -2.207  11.992  17.778  0.00  0.00    +0.000 N 
ATOM     10  C   UNL     1      -2.409  10.912  16.848  0.00  0.00    +0.000 C 
ATOM     11  C   UNL     1      -1.765   9.643  17.373  0.00  0.00    +0.000 C 
ATOM     12  H   UNL     1      -2.883  12.739  17.864  0.00  0.00    +0.000 HD
ENDROOT
BRANCH   1  16
ATOM     13  C   UNL     1       5.999   6.473  16.554  0.00  0.00    +0.000 C 
ATOM     14  C   UNL     1       4.723   6.844  17.221  0.00  0.00    +0.000 A 
ATOM     15  C   UNL     1       3.974   7.989  17.017  0.00  0.00    +0.000 A 
ATOM     16  N   UNL     1       2.872   7.991  17.856  0.00  0.00    +0.000 N 
ATOM     17  C   UNL     1       2.868   6.772  18.521  0.00  0.00    +0.000 A 
ATOM     18  C   UNL     1       4.018   6.075  18.180  0.00  0.00    +0.000 A 
ATOM     19  C   UNL     1       4.300   4.751  18.730  0.00  0.00    +0.000 C 
ATOM     20  O   UNL     1       5.294   4.101  18.416  0.00  0.00    +0.000 OA
ATOM     21  C   UNL     1       3.313   4.242  19.774  0.00  0.00    +0.000 C 
ATOM     22  C   UNL     1       1.854   4.671  19.470  0.00  0.00    +0.000 C 
ATOM     23  C   UNL     1       1.364   4.018  18.160  0.00  0.00    +0.000 C 
ATOM     24  C   UNL     1       0.940   4.186  20.609  0.00  0.00    +0.000 C 
ATOM     25  C   UNL     1       1.769   6.223  19.383  0.00  0.00    +0.000 C 
ENDBRANCH   1  16
BRANCH   5  26
ATOM     26  C   UNL     1       1.999  12.672  19.165  0.00  0.00    +0.000 A 
ATOM     27  C   UNL     1       2.465  13.683  18.286  0.00  0.00    +0.000 A 
ATOM     28  C   UNL     1       3.012  14.882  18.757  0.00  0.00    +0.000 A 
ATOM     29  C   UNL     1       3.153  15.093  20.121  0.00  0.00    +0.000 A 
ATOM     30  C   UNL     1       2.690  14.131  21.012  0.00  0.00    +0.000 A 
ATOM     31  C   UNL     1       2.081  12.964  20.533  0.00  0.00    +0.000 A 
ENDBRANCH   5  26
TORSDOF 2
ENDMDL
MODEL 6
REMARK VINA RESULT:      -7.8      1.898      2.694
REMARK  Name = 
REMARK  5 active torsions:
REMARK  status: ('A' for Active; 'I' for Inactive)
REMARK    1  A    between atoms: C_1  and  C_2
REMARK    2  A    between atoms: N_4  and  C_5
REMARK    3  A    between atoms: C_9  and  C_10
REMARK    4  A    between atoms: C_27  and  C_28
REMARK    5  A    between atoms: C_27  and  C_29
REMARK                            x       y       z     vdW  Elec       q    Type
REMARK                         _______ _______ _______ _____ _____    ______ ____
ROOT
ATOM      1  C   UNL     1       2.746   8.101  18.164  0.00  0.00    +0.000 A 
ATOM      2  C   UNL     1       3.705   7.951  17.170  0.00  0.00    +0.000 A 
ATOM      3  C   UNL     1       4.251   6.683  16.909  0.00  0.00    +0.000 A 
ATOM      4  C   UNL     1       3.838   5.540  17.652  0.00  0.00    +0.000 A 
ATOM      5  C   UNL     1       2.821   5.662  18.638  0.00  0.00    +0.000 A 
ATOM      6  C   UNL     1       2.295   6.967  18.852  0.00  0.00    +0.000 A 
ATOM      7  C   UNL     1       4.566   4.250  17.349  0.00  0.00    +0.000 C 
ATOM      8  O   UNL     1       4.619   3.288  18.105  0.00  0.00    +0.000 OA
ATOM      9  N   UNL     1       5.243   4.165  16.151  0.00  0.00    +0.000 N 
ATOM     10  C   UNL     1       5.267   5.226  15.179  0.00  0.00    +0.000 C 
ATOM     11  C   UNL     1       5.350   6.571  15.875  0.00  0.00    +0.000 C 
ATOM     12  H   UNL     1       5.631   3.256  15.941  0.00  0.00    +0.000 HD
ENDROOT
BRANCH   1  16
ATOM     13  C   UNL     1       1.912  13.046  17.887  0.00  0.00    +0.000 C 
ATOM     14  C   UNL     1       1.839  11.623  18.313  0.00  0.00    +0.000 A 
ATOM     15  C   UNL     1       2.612  10.572  17.855  0.00  0.00    +0.000 A 
ATOM     16  N   UNL     1       2.217   9.392  18.463  0.00  0.00    +0.000 N 
ATOM     17  C   UNL     1       1.250   9.725  19.403  0.00  0.00    +0.000 A 
ATOM     18  C   UNL     1       0.972  11.079  19.294  0.00  0.00    +0.000 A 
ATOM     19  C   UNL     1      -0.015  11.728  20.153  0.00  0.00    +0.000 C 
ATOM     20  O   UNL     1      -0.254  12.932  20.099  0.00  0.00    +0.000 OA
ATOM     21  C   UNL     1      -0.788  10.806  21.090  0.00  0.00    +0.000 C 
ATOM     22  C   UNL     1       0.086   9.646  21.635  0.00  0.00    +0.000 C 
ATOM     23  C   UNL     1       1.219  10.201  22.525  0.00  0.00    +0.000 C 
ATOM     24  C   UNL     1      -0.787   8.724  22.503  0.00  0.00    +0.000 C 
ATOM     25  C   UNL     1       0.666   8.821  20.448  0.00  0.00    +0.000 C 
ENDBRANCH   1  16
BRANCH   5  26
ATOM     26  C   UNL     1       2.240   4.555  19.455  0.00  0.00    +0.000 A 
ATOM     27  C   UNL     1       2.590   4.395  20.820  0.00  0.00    +0.000 A 
ATOM     28  C   UNL     1       2.064   3.362  21.606  0.00  0.00    +0.000 A 
ATOM     29  C   UNL     1       1.208   2.428  21.042  0.00  0.00    +0.000 A 
ATOM     30  C   UNL     1       0.830   2.565  19.711  0.00  0.00    +0.000 A 
ATOM     31  C   UNL     1       1.306   3.640  18.951  0.00  0.00    +0.000 A 
ENDBRANCH   5  26
TORSDOF 2
ENDMDL
MODEL 7
REMARK VINA RESULT:      -7.8      2.277      4.679
REMARK  Name = 
REMARK  5 active torsions:
REMARK  status: ('A' for Active; 'I' for Inactive)
REMARK    1  A    between atoms: C_1  and  C_2
REMARK    2  A    between atoms: N_4  and  C_5
REMARK    3  A    between atoms: C_9  and  C_10
REMARK    4  A    between atoms: C_27  and  C_28
REMARK    5  A    between atoms: C_27  and  C_29
REMARK                            x       y       z     vdW  Elec       q    Type
REMARK                         _______ _______ _______ _____ _____    ______ ____
ROOT
ATOM      1  C   UNL     1       2.355   7.010  18.783  0.00  0.00    +0.000 A 
ATOM      2  C   UNL     1       1.636   6.074  19.516  0.00  0.00    +0.000 A 
ATOM      3  C   UNL     1       1.942   4.707  19.399  0.00  0.00    +0.000 A 
ATOM      4  C   UNL     1       2.983   4.261  18.537  0.00  0.00    +0.000 A 
ATOM      5  C   UNL     1       3.766   5.205  17.818  0.00  0.00    +0.000 A 
ATOM      6  C   UNL     1       3.420   6.575  17.983  0.00  0.00    +0.000 A 
ATOM      7  C   UNL     1       3.155   2.762  18.420  0.00  0.00    +0.000 C 
ATOM      8  O   UNL     1       3.716   2.198  17.490  0.00  0.00    +0.000 OA
ATOM      9  N   UNL     1       2.615   1.979  19.418  0.00  0.00    +0.000 N 
ATOM     10  C   UNL     1       1.925   2.517  20.561  0.00  0.00    +0.000 C 
ATOM     11  C   UNL     1       1.086   3.711  20.150  0.00  0.00    +0.000 C 
ATOM     12  H   UNL     1       2.836   0.995  19.358  0.00  0.00    +0.000 HD
ENDROOT
BRANCH   1  16
ATOM     13  C   UNL     1       2.160  11.897  17.642  0.00  0.00    +0.000 C 
ATOM     14  C   UNL     1       1.932  10.596  18.325  0.00  0.00    +0.000 A 
ATOM     15  C   UNL     1       2.526   9.382  18.032  0.00  0.00    +0.000 A 
ATOM     16  N   UNL     1       2.023   8.394  18.864  0.00  0.00    +0.000 N 
ATOM     17  C   UNL     1       1.178   9.021  19.770  0.00  0.00    +0.000 A 
ATOM     18  C   UNL     1       1.073  10.361  19.427  0.00  0.00    +0.000 A 
ATOM     19  C   UNL     1       0.242  11.284  20.198  0.00  0.00    +0.000 C 
ATOM     20  O   UNL     1       0.160  12.481  19.934  0.00  0.00    +0.000 OA
ATOM     21  C   UNL     1      -0.577  10.660  21.322  0.00  0.00    +0.000 C 
ATOM     22  C   UNL     1       0.174   9.501  22.029  0.00  0.00    +0.000 C 
ATOM     23  C   UNL     1       1.429  10.037  22.750  0.00  0.00    +0.000 C 
ATOM     24  C   UNL     1      -0.750   8.879  23.091  0.00  0.00    +0.000 C 
ATOM     25  C   UNL     1       0.555   8.407  20.989  0.00  0.00    +0.000 C 
ENDBRANCH   1  16
BRANCH   5  26
ATOM     26  C   UNL     1       4.924   4.900  16.925  0.00  0.00    +0.000 A 
ATOM     27  C   UNL     1       6.232   4.748  17.452  0.00  0.00    +0.000 A 
ATOM     28  C   UNL     1       7.335   4.469  16.636  0.00  0.00    +0.000 A 
ATOM     29  C   UNL     1       7.175   4.378  15.260  0.00  0.00    +0.000 A 
ATOM     30  C   UNL     1       5.903   4.503  14.712  0.00  0.00    +0.000 A 
ATOM     31  C   UNL     1       4.796   4.713  15.542  0.00  0.00    +0.000 A 
ENDBRANCH   5  26
TORSDOF 2
ENDMDL
MODEL 8
REMARK VINA RESULT:      -7.6      2.118      8.258
REMARK  Name = 
REMARK  5 active torsions:
REMARK  status: ('A' for Active; 'I' for Inactive)
REMARK    1  A    between atoms: C_1  and  C_2
REMARK    2  A    between atoms: N_4  and  C_5
REMARK    3  A    between atoms: C_9  and  C_10
REMARK    4  A    between atoms: C_27  and  C_28
REMARK    5  A    between atoms: C_27  and  C_29
REMARK                            x       y       z     vdW  Elec       q    Type
REMARK                         _______ _______ _______ _____ _____    ______ ____
ROOT
ATOM      1  C   UNL     1       1.853   8.552  19.733  0.00  0.00    +0.000 A 
ATOM      2  C   UNL     1       1.226   8.248  20.935  0.00  0.00    +0.000 A 
ATOM      3  C   UNL     1       0.560   9.256  21.652  0.00  0.00    +0.000 A 
ATOM      4  C   UNL     1       0.516  10.594  21.167  0.00  0.00    +0.000 A 
ATOM      5  C   UNL     1       1.106  10.916  19.915  0.00  0.00    +0.000 A 
ATOM      6  C   UNL     1       1.756   9.854  19.226  0.00  0.00    +0.000 A 
ATOM      7  C   UNL     1      -0.145  11.610  22.072  0.00  0.00    +0.000 C 
ATOM      8  O   UNL     1       0.040  12.818  22.012  0.00  0.00    +0.000 OA
ATOM      9  N   UNL     1      -0.990  11.136  23.053  0.00  0.00    +0.000 N 
ATOM     10  C   UNL     1      -1.286   9.739  23.235  0.00  0.00    +0.000 C 
ATOM     11  C   UNL     1      -0.043   8.905  22.996  0.00  0.00    +0.000 C 
ATOM     12  H   UNL     1      -1.488  11.847  23.570  0.00  0.00    +0.000 HD
ENDROOT
BRANCH   1  16
ATOM     13  C   UNL     1       4.753   6.380  16.256  0.00  0.00    +0.000 C 
ATOM     14  C   UNL     1       3.893   6.582  17.451  0.00  0.00    +0.000 A 
ATOM     15  C   UNL     1       3.235   7.740  17.822  0.00  0.00    +0.000 A 
ATOM     16  N   UNL     1       2.567   7.544  19.020  0.00  0.00    +0.000 N 
ATOM     17  C   UNL     1       2.717   6.204  19.352  0.00  0.00    +0.000 A 
ATOM     18  C   UNL     1       3.564   5.609  18.429  0.00  0.00    +0.000 A 
ATOM     19  C   UNL     1       3.920   4.195  18.518  0.00  0.00    +0.000 C 
ATOM     20  O   UNL     1       4.640   3.638  17.693  0.00  0.00    +0.000 OA
ATOM     21  C   UNL     1       3.392   3.454  19.741  0.00  0.00    +0.000 C 
ATOM     22  C   UNL     1       1.980   3.937  20.164  0.00  0.00    +0.000 C 
ATOM     23  C   UNL     1       0.948   3.603  19.066  0.00  0.00    +0.000 C 
ATOM     24  C   UNL     1       1.559   3.197  21.447  0.00  0.00    +0.000 C 
ATOM     25  C   UNL     1       2.010   5.466  20.451  0.00  0.00    +0.000 C 
ENDBRANCH   1  16
BRANCH   5  26
ATOM     26  C   UNL     1       1.093  12.252  19.245  0.00  0.00    +0.000 A 
ATOM     27  C   UNL     1       2.283  13.010  19.109  0.00  0.00    +0.000 A 
ATOM     28  C   UNL     1       2.297  14.267  18.492  0.00  0.00    +0.000 A 
ATOM     29  C   UNL     1       1.114  14.827  18.030  0.00  0.00    +0.000 A 
ATOM     30  C   UNL     1      -0.068  14.102  18.131  0.00  0.00    +0.000 A 
ATOM     31  C   UNL     1      -0.061  12.817  18.687  0.00  0.00    +0.000 A 
ENDBRANCH   5  26
TORSDOF 2
ENDMDL
MODEL 9
REMARK VINA RESULT:      -7.1      4.698      9.924
REMARK  Name = 
REMARK  5 active torsions:
REMARK  status: ('A' for Active; 'I' for Inactive)
REMARK    1  A    between atoms: C_1  and  C_2
REMARK    2  A    between atoms: N_4  and  C_5
REMARK    3  A    between atoms: C_9  and  C_10
REMARK    4  A    between atoms: C_27  and  C_28
REMARK    5  A    between atoms: C_27  and  C_29
REMARK                            x       y       z     vdW  Elec       q    Type
REMARK                         _______ _______ _______ _____ _____    ______ ____
ROOT
ATOM      1  C   UNL     1      -2.256  12.306  20.746  0.00  0.00    +0.000 A 
ATOM      2  C   UNL     1      -2.305  12.262  22.134  0.00  0.00    +0.000 A 
ATOM      3  C   UNL     1      -3.481  12.633  22.805  0.00  0.00    +0.000 A 
ATOM      4  C   UNL     1      -4.634  13.058  22.084  0.00  0.00    +0.000 A 
ATOM      5  C   UNL     1      -4.623  13.061  20.664  0.00  0.00    +0.000 A 
ATOM      6  C   UNL     1      -3.409  12.664  20.035  0.00  0.00    +0.000 A 
ATOM      7  C   UNL     1      -5.806  13.525  22.918  0.00  0.00    +0.000 C 
ATOM      8  O   UNL     1      -6.706  14.248  22.508  0.00  0.00    +0.000 OA
ATOM      9  N   UNL     1      -5.846  13.134  24.239  0.00  0.00    +0.000 N 
ATOM     10  C   UNL     1      -4.848  12.292  24.846  0.00  0.00    +0.000 C 
ATOM     11  C   UNL     1      -3.472  12.650  24.318  0.00  0.00    +0.000 C 
ATOM     12  H   UNL     1      -6.692  13.381  24.735  0.00  0.00    +0.000 HD
ENDROOT
BRANCH   1  16
ATOM     13  C   UNL     1       1.206   9.584  18.332  0.00  0.00    +0.000 C 
ATOM     14  C   UNL     1       0.494  10.731  18.955  0.00  0.00    +0.000 A 
ATOM     15  C   UNL     1      -0.685  10.691  19.677  0.00  0.00    +0.000 A 
ATOM     16  N   UNL     1      -1.052  11.971  20.058  0.00  0.00    +0.000 N 
ATOM     17  C   UNL     1      -0.027  12.820  19.663  0.00  0.00    +0.000 A 
ATOM     18  C   UNL     1       0.907  12.087  18.945  0.00  0.00    +0.000 A 
ATOM     19  C   UNL     1       2.105  12.711  18.389  0.00  0.00    +0.000 C 
ATOM     20  O   UNL     1       2.962  12.075  17.780  0.00  0.00    +0.000 OA
ATOM     21  C   UNL     1       2.204  14.223  18.554  0.00  0.00    +0.000 C 
ATOM     22  C   UNL     1       1.619  14.711  19.906  0.00  0.00    +0.000 C 
ATOM     23  C   UNL     1       2.455  14.163  21.081  0.00  0.00    +0.000 C 
ATOM     24  C   UNL     1       1.685  16.248  19.956  0.00  0.00    +0.000 C 
ATOM     25  C   UNL     1       0.132  14.267  20.027  0.00  0.00    +0.000 C 
ENDBRANCH   1  16
BRANCH   5  26
ATOM     26  C   UNL     1      -5.764  13.420  19.768  0.00  0.00    +0.000 A 
ATOM     27  C   UNL     1      -6.621  12.421  19.242  0.00  0.00    +0.000 A 
ATOM     28  C   UNL     1      -7.693  12.731  18.396  0.00  0.00    +0.000 A 
ATOM     29  C   UNL     1      -7.916  14.045  18.011  0.00  0.00    +0.000 A 
ATOM     30  C   UNL     1      -7.105  15.053  18.523  0.00  0.00    +0.000 A 
ATOM     31  C   UNL     1      -6.079  14.741  19.423  0.00  0.00    +0.000 A 
ENDBRANCH   5  26
TORSDOF 2
ENDMDL
