MODEL 1
REMARK VINA RESULT:      -6.7      0.000      0.000
REMARK  Name = 
REMARK  7 active torsions:
REMARK  status: ('A' for Active; 'I' for Inactive)
REMARK    1  A    between atoms: C_1  and  O_2
REMARK    2  A    between atoms: O_2  and  C_3
REMARK    3  A    between atoms: C_6  and  C_7
REMARK    4  A    between atoms: C_7  and  N_8
REMARK    5  A    between atoms: C_9  and  C_11
REMARK    6  A    between atoms: C_11  and  N_12
REMARK    7  A    between atoms: N_12  and  C_13
REMARK                            x       y       z     vdW  Elec       q    Type
REMARK                         _______ _______ _______ _____ _____    ______ ____
ROOT
ATOM      1  N   UNL     1       6.912   7.126  16.631  0.00  0.00    +0.000 N 
ATOM      2  C   UNL     1       7.660   7.409  17.751  0.00  0.00    +0.000 C 
ATOM      3  O   UNL     1       8.051   6.560  18.551  0.00  0.00    +0.000 OA
ATOM      4  H   UNL     1       6.577   7.907  16.081  0.00  0.00    +0.000 HD
ENDROOT
BRANCH   1   5
ATOM      5  C   UNL     1       6.508   5.785  16.286  0.00  0.00    +0.000 C 
BRANCH   5   9
ATOM      6  C   UNL     1       2.776   4.680  18.180  0.00  0.00    +0.000 A 
ATOM      7  C   UNL     1       3.134   6.022  18.042  0.00  0.00    +0.000 A 
ATOM      8  C   UNL     1       4.339   6.377  17.430  0.00  0.00    +0.000 A 
ATOM      9  C   UNL     1       5.214   5.392  16.953  0.00  0.00    +0.000 A 
ATOM     10  C   UNL     1       4.864   4.045  17.123  0.00  0.00    +0.000 A 
ATOM     11  C   UNL     1       3.651   3.691  17.729  0.00  0.00    +0.000 A 
BRANCH   6  13
ATOM     12  C   UNL     1       1.074   3.131  18.733  0.00  0.00    +0.000 C 
ATOM     13  O   UNL     1       1.578   4.460  18.803  0.00  0.00    +0.000 OA
ENDBRANCH   6  13
ENDBRANCH   5   9
ENDBRANCH   1   5
BRANCH   2  14
ATOM     14  C   UNL     1       7.990   8.896  17.907  0.00  0.00    +0.000 C 
BRANCH  14  15
ATOM     15  N   UNL     1       8.853   9.095  19.092  0.00  0.00    +0.000 NA
ATOM     16  H   UNL     1       9.552   8.346  19.082  0.00  0.00    +0.000 HD
BRANCH  15  17
ATOM     17  C   UNL     1       9.560  10.396  19.064  0.00  0.00    +0.000 C 
ATOM     18  C   UNL     1       9.565  10.953  20.503  0.00  0.00    +0.000 C 
ATOM     19  C   UNL     1      10.270  12.305  20.636  0.00  0.00    +0.000 C 
ATOM     20  C   UNL     1       9.627  13.402  19.799  0.00  0.00    +0.000 C 
ATOM     21  S   UNL     1       9.717  13.008  18.036  0.00  0.00    +0.000 S 
ATOM     22  C   UNL     1       8.900  11.387  18.083  0.00  0.00    +0.000 C 
ENDBRANCH  15  17
ENDBRANCH  14  15
ENDBRANCH   2  14
TORSDOF 6
ENDMDL
MODEL 2
REMARK VINA RESULT:      -6.6      0.992      1.647
REMARK  Name = 
REMARK  7 active torsions:
REMARK  status: ('A' for Active; 'I' for Inactive)
REMARK    1  A    between atoms: C_1  and  O_2
REMARK    2  A    between atoms: O_2  and  C_3
REMARK    3  A    between atoms: C_6  and  C_7
REMARK    4  A    between atoms: C_7  and  N_8
REMARK    5  A    between atoms: C_9  and  C_11
REMARK    6  A    between atoms: C_11  and  N_12
REMARK    7  A    between atoms: N_12  and  C_13
REMARK                            x       y       z     vdW  Elec       q    Type
REMARK                         _______ _______ _______ _____ _____    ______ ____
ROOT
ATOM      1  N   UNL     1       6.974   7.053  16.729  0.00  0.00    +0.000 N 
ATOM      2  C   UNL     1       7.692   7.559  17.790  0.00  0.00    +0.000 C 
ATOM      3  O   UNL     1       8.184   6.867  18.680  0.00  0.00    +0.000 OA
ATOM      4  H   UNL     1       6.548   7.716  16.095  0.00  0.00    +0.000 HD
ENDROOT
BRANCH   1   5
ATOM      5  C   UNL     1       6.725   5.643  16.561  0.00  0.00    +0.000 C 
BRANCH   5   9
ATOM      6  C   UNL     1       2.661   4.542  17.562  0.00  0.00    +0.000 A 
ATOM      7  C   UNL     1       3.475   3.672  16.835  0.00  0.00    +0.000 A 
ATOM      8  C   UNL     1       4.787   4.029  16.512  0.00  0.00    +0.000 A 
ATOM      9  C   UNL     1       5.305   5.270  16.906  0.00  0.00    +0.000 A 
ATOM     10  C   UNL     1       4.473   6.152  17.608  0.00  0.00    +0.000 A 
ATOM     11  C   UNL     1       3.160   5.790  17.937  0.00  0.00    +0.000 A 
BRANCH   6  13
ATOM     12  C   UNL     1       1.290   3.020  18.748  0.00  0.00    +0.000 C 
ATOM     13  O   UNL     1       1.396   4.083  17.808  0.00  0.00    +0.000 OA
ENDBRANCH   6  13
ENDBRANCH   5   9
ENDBRANCH   1   5
BRANCH   2  14
ATOM     14  C   UNL     1       7.849   9.081  17.754  0.00  0.00    +0.000 C 
BRANCH  14  15
ATOM     15  N   UNL     1       8.970   9.489  18.628  0.00  0.00    +0.000 NA
ATOM     16  H   UNL     1       9.821   9.073  18.236  0.00  0.00    +0.000 HD
BRANCH  15  17
ATOM     17  C   UNL     1       9.145  10.959  18.673  0.00  0.00    +0.000 C 
ATOM     18  C   UNL     1      10.390  11.305  17.831  0.00  0.00    +0.000 C 
ATOM     19  C   UNL     1      10.700  12.803  17.780  0.00  0.00    +0.000 C 
ATOM     20  C   UNL     1      10.980  13.405  19.149  0.00  0.00    +0.000 C 
ATOM     21  S   UNL     1       9.532  13.272  20.224  0.00  0.00    +0.000 S 
ATOM     22  C   UNL     1       9.287  11.475  20.119  0.00  0.00    +0.000 C 
ENDBRANCH  15  17
ENDBRANCH  14  15
ENDBRANCH   2  14
TORSDOF 6
ENDMDL
MODEL 3
REMARK VINA RESULT:      -6.6      1.088      1.396
REMARK  Name = 
REMARK  7 active torsions:
REMARK  status: ('A' for Active; 'I' for Inactive)
REMARK    1  A    between atoms: C_1  and  O_2
REMARK    2  A    between atoms: O_2  and  C_3
REMARK    3  A    between atoms: C_6  and  C_7
REMARK    4  A    between atoms: C_7  and  N_8
REMARK    5  A    between atoms: C_9  and  C_11
REMARK    6  A    between atoms: C_11  and  N_12
REMARK    7  A    between atoms: N_12  and  C_13
REMARK                            x       y       z     vdW  Elec       q    Type
REMARK                         _______ _______ _______ _____ _____    ______ ____
ROOT
ATOM      1  N   UNL     1       7.165   7.000  16.847  0.00  0.00    +0.000 N 
ATOM      2  C   UNL     1       7.840   7.465  17.953  0.00  0.00    +0.000 C 
ATOM      3  O   UNL     1       8.205   6.752  18.887  0.00  0.00    +0.000 OA
ATOM      4  H   UNL     1       6.844   7.684  16.174  0.00  0.00    +0.000 HD
ENDROOT
BRANCH   1   5
ATOM      5  C   UNL     1       6.814   5.612  16.678  0.00  0.00    +0.000 C 
BRANCH   5   9
ATOM      6  C   UNL     1       3.197   4.561  18.810  0.00  0.00    +0.000 A 
ATOM      7  C   UNL     1       3.173   5.524  17.800  0.00  0.00    +0.000 A 
ATOM      8  C   UNL     1       4.342   5.863  17.113  0.00  0.00    +0.000 A 
ATOM      9  C   UNL     1       5.560   5.247  17.432  0.00  0.00    +0.000 A 
ATOM     10  C   UNL     1       5.583   4.303  18.468  0.00  0.00    +0.000 A 
ATOM     11  C   UNL     1       4.409   3.959  19.151  0.00  0.00    +0.000 A 
BRANCH   6  13
ATOM     12  C   UNL     1       1.234   3.240  18.886  0.00  0.00    +0.000 C 
ATOM     13  O   UNL     1       1.992   4.323  19.413  0.00  0.00    +0.000 OA
ENDBRANCH   6  13
ENDBRANCH   5   9
ENDBRANCH   1   5
BRANCH   2  14
ATOM     14  C   UNL     1       8.125   8.968  17.911  0.00  0.00    +0.000 C 
BRANCH  14  15
ATOM     15  N   UNL     1       9.028   9.338  19.022  0.00  0.00    +0.000 NA
ATOM     16  H   UNL     1       9.940   8.920  18.818  0.00  0.00    +0.000 HD
BRANCH  15  17
ATOM     17  C   UNL     1       9.202  10.805  19.145  0.00  0.00    +0.000 C 
ATOM     18  C   UNL     1      10.087  11.267  17.969  0.00  0.00    +0.000 C 
ATOM     19  C   UNL     1      10.356  12.774  17.958  0.00  0.00    +0.000 C 
ATOM     20  C   UNL     1      11.080  13.263  19.204  0.00  0.00    +0.000 C 
ATOM     21  S   UNL     1      10.081  12.986  20.686  0.00  0.00    +0.000 S 
ATOM     22  C   UNL     1       9.822  11.197  20.501  0.00  0.00    +0.000 C 
ENDBRANCH  15  17
ENDBRANCH  14  15
ENDBRANCH   2  14
TORSDOF 6
ENDMDL
MODEL 4
REMARK VINA RESULT:      -6.5      5.495      7.905
REMARK  Name = 
REMARK  7 active torsions:
REMARK  status: ('A' for Active; 'I' for Inactive)
REMARK    1  A    between atoms: C_1  and  O_2
REMARK    2  A    between atoms: O_2  and  C_3
REMARK    3  A    between atoms: C_6  and  C_7
REMARK    4  A    between atoms: C_7  and  N_8
REMARK    5  A    between atoms: C_9  and  C_11
REMARK    6  A    between atoms: C_11  and  N_12
REMARK    7  A    between atoms: N_12  and  C_13
REMARK                            x       y       z     vdW  Elec       q    Type
REMARK                         _______ _______ _______ _____ _____    ______ ____
ROOT
ATOM      1  N   UNL     1       3.668   5.747  17.306  0.00  0.00    +0.000 N 
ATOM      2  C   UNL     1       4.679   4.839  17.083  0.00  0.00    +0.000 C 
ATOM      3  O   UNL     1       5.871   5.137  17.024  0.00  0.00    +0.000 OA
ATOM      4  H   UNL     1       2.716   5.407  17.259  0.00  0.00    +0.000 HD
ENDROOT
BRANCH   1   5
ATOM      5  C   UNL     1       3.915   7.155  17.493  0.00  0.00    +0.000 C 
BRANCH   5   9
ATOM      6  C   UNL     1       0.851   9.053  19.889  0.00  0.00    +0.000 A 
ATOM      7  C   UNL     1       1.482   7.889  20.332  0.00  0.00    +0.000 A 
ATOM      8  C   UNL     1       2.471   7.277  19.557  0.00  0.00    +0.000 A 
ATOM      9  C   UNL     1       2.840   7.817  18.317  0.00  0.00    +0.000 A 
ATOM     10  C   UNL     1       2.182   8.968  17.864  0.00  0.00    +0.000 A 
ATOM     11  C   UNL     1       1.195   9.584  18.646  0.00  0.00    +0.000 A 
BRANCH   6  13
ATOM     12  C   UNL     1      -0.037   9.108  22.082  0.00  0.00    +0.000 C 
ATOM     13  O   UNL     1      -0.104   9.551  20.731  0.00  0.00    +0.000 OA
ENDBRANCH   6  13
ENDBRANCH   5   9
ENDBRANCH   1   5
BRANCH   2  14
ATOM     14  C   UNL     1       4.187   3.397  16.935  0.00  0.00    +0.000 C 
BRANCH  14  15
ATOM     15  N   UNL     1       4.554   2.618  18.136  0.00  0.00    +0.000 NA
ATOM     16  H   UNL     1       5.233   3.178  18.660  0.00  0.00    +0.000 HD
BRANCH  15  17
ATOM     17  C   UNL     1       3.391   2.350  19.014  0.00  0.00    +0.000 C 
ATOM     18  C   UNL     1       2.115   2.599  18.183  0.00  0.00    +0.000 C 
ATOM     19  C   UNL     1       0.819   2.357  18.960  0.00  0.00    +0.000 C 
ATOM     20  C   UNL     1       0.671   3.261  20.176  0.00  0.00    +0.000 C 
ATOM     21  S   UNL     1       1.990   2.955  21.375  0.00  0.00    +0.000 S 
ATOM     22  C   UNL     1       3.414   3.229  20.281  0.00  0.00    +0.000 C 
ENDBRANCH  15  17
ENDBRANCH  14  15
ENDBRANCH   2  14
TORSDOF 6
ENDMDL
MODEL 5
REMARK VINA RESULT:      -6.5      5.283      7.496
REMARK  Name = 
REMARK  7 active torsions:
REMARK  status: ('A' for Active; 'I' for Inactive)
REMARK    1  A    between atoms: C_1  and  O_2
REMARK    2  A    between atoms: O_2  and  C_3
REMARK    3  A    between atoms: C_6  and  C_7
REMARK    4  A    between atoms: C_7  and  N_8
REMARK    5  A    between atoms: C_9  and  C_11
REMARK    6  A    between atoms: C_11  and  N_12
REMARK    7  A    between atoms: N_12  and  C_13
REMARK                            x       y       z     vdW  Elec       q    Type
REMARK                         _______ _______ _______ _____ _____    ______ ____
ROOT
ATOM      1  N   UNL     1       6.671   5.644  16.773  0.00  0.00    +0.000 N 
ATOM      2  C   UNL     1       7.011   4.993  17.938  0.00  0.00    +0.000 C 
ATOM      3  O   UNL     1       8.046   4.344  18.086  0.00  0.00    +0.000 OA
ATOM      4  H   UNL     1       5.761   6.085  16.733  0.00  0.00    +0.000 HD
ENDROOT
BRANCH   1   5
ATOM      5  C   UNL     1       7.506   5.622  15.598  0.00  0.00    +0.000 C 
BRANCH   5   9
ATOM      6  C   UNL     1       5.663   3.429  12.354  0.00  0.00    +0.000 A 
ATOM      7  C   UNL     1       5.050   3.496  13.606  0.00  0.00    +0.000 A 
ATOM      8  C   UNL     1       5.647   4.204  14.653  0.00  0.00    +0.000 A 
ATOM      9  C   UNL     1       6.875   4.852  14.466  0.00  0.00    +0.000 A 
ATOM     10  C   UNL     1       7.501   4.755  13.216  0.00  0.00    +0.000 A 
ATOM     11  C   UNL     1       6.897   4.051  12.165  0.00  0.00    +0.000 A 
BRANCH   6  13
ATOM     12  C   UNL     1       3.776   3.274  10.934  0.00  0.00    +0.000 C 
ATOM     13  O   UNL     1       4.986   2.700  11.416  0.00  0.00    +0.000 OA
ENDBRANCH   6  13
ENDBRANCH   5   9
ENDBRANCH   1   5
BRANCH   2  14
ATOM     14  C   UNL     1       5.987   5.170  19.061  0.00  0.00    +0.000 C 
BRANCH  14  15
ATOM     15  N   UNL     1       4.704   5.642  18.498  0.00  0.00    +0.000 NA
ATOM     16  H   UNL     1       4.927   6.182  17.656  0.00  0.00    +0.000 HD
BRANCH  15  17
ATOM     17  C   UNL     1       3.810   4.525  18.114  0.00  0.00    +0.000 C 
ATOM     18  C   UNL     1       2.371   5.079  18.058  0.00  0.00    +0.000 C 
ATOM     19  C   UNL     1       1.325   4.033  17.668  0.00  0.00    +0.000 C 
ATOM     20  C   UNL     1       1.252   2.864  18.640  0.00  0.00    +0.000 C 
ATOM     21  S   UNL     1       2.816   1.957  18.681  0.00  0.00    +0.000 S 
ATOM     22  C   UNL     1       3.916   3.341  19.096  0.00  0.00    +0.000 C 
ENDBRANCH  15  17
ENDBRANCH  14  15
ENDBRANCH   2  14
TORSDOF 6
ENDMDL
MODEL 6
REMARK VINA RESULT:      -6.5      5.016      7.515
REMARK  Name = 
REMARK  7 active torsions:
REMARK  status: ('A' for Active; 'I' for Inactive)
REMARK    1  A    between atoms: C_1  and  O_2
REMARK    2  A    between atoms: O_2  and  C_3
REMARK    3  A    between atoms: C_6  and  C_7
REMARK    4  A    between atoms: C_7  and  N_8
REMARK    5  A    between atoms: C_9  and  C_11
REMARK    6  A    between atoms: C_11  and  N_12
REMARK    7  A    between atoms: N_12  and  C_13
REMARK                            x       y       z     vdW  Elec       q    Type
REMARK                         _______ _______ _______ _____ _____    ______ ____
ROOT
ATOM      1  N   UNL     1       6.908   4.935  16.937  0.00  0.00    +0.000 N 
ATOM      2  C   UNL     1       6.417   5.889  17.800  0.00  0.00    +0.000 C 
ATOM      3  O   UNL     1       6.441   7.098  17.574  0.00  0.00    +0.000 OA
ATOM      4  H   UNL     1       6.909   3.974  17.255  0.00  0.00    +0.000 HD
ENDROOT
BRANCH   1   5
ATOM      5  C   UNL     1       7.509   5.269  15.670  0.00  0.00    +0.000 C 
BRANCH   5   9
ATOM      6  C   UNL     1       5.482   3.385  12.342  0.00  0.00    +0.000 A 
ATOM      7  C   UNL     1       6.769   3.903  12.190  0.00  0.00    +0.000 A 
ATOM      8  C   UNL     1       7.422   4.512  13.265  0.00  0.00    +0.000 A 
ATOM      9  C   UNL     1       6.792   4.620  14.512  0.00  0.00    +0.000 A 
ATOM     10  C   UNL     1       5.488   4.126  14.650  0.00  0.00    +0.000 A 
ATOM     11  C   UNL     1       4.838   3.509  13.573  0.00  0.00    +0.000 A 
BRANCH   6  13
ATOM     12  C   UNL     1       3.697   3.352  10.789  0.00  0.00    +0.000 C 
ATOM     13  O   UNL     1       4.947   2.823  11.215  0.00  0.00    +0.000 OA
ENDBRANCH   6  13
ENDBRANCH   5   9
ENDBRANCH   1   5
BRANCH   2  14
ATOM     14  C   UNL     1       5.806   5.306  19.076  0.00  0.00    +0.000 C 
BRANCH  14  15
ATOM     15  N   UNL     1       5.747   3.832  18.974  0.00  0.00    +0.000 NA
ATOM     16  H   UNL     1       6.331   3.457  19.727  0.00  0.00    +0.000 HD
BRANCH  15  17
ATOM     17  C   UNL     1       4.372   3.308  19.142  0.00  0.00    +0.000 C 
ATOM     18  C   UNL     1       3.841   2.938  17.742  0.00  0.00    +0.000 C 
ATOM     19  C   UNL     1       2.418   2.374  17.753  0.00  0.00    +0.000 C 
ATOM     20  C   UNL     1       1.391   3.348  18.311  0.00  0.00    +0.000 C 
ATOM     21  S   UNL     1       1.743   3.741  20.041  0.00  0.00    +0.000 S 
ATOM     22  C   UNL     1       3.450   4.329  19.838  0.00  0.00    +0.000 C 
ENDBRANCH  15  17
ENDBRANCH  14  15
ENDBRANCH   2  14
TORSDOF 6
ENDMDL
MODEL 7
REMARK VINA RESULT:      -6.4      1.434      1.917
REMARK  Name = 
REMARK  7 active torsions:
REMARK  status: ('A' for Active; 'I' for Inactive)
REMARK    1  A    between atoms: C_1  and  O_2
REMARK    2  A    between atoms: O_2  and  C_3
REMARK    3  A    between atoms: C_6  and  C_7
REMARK    4  A    between atoms: C_7  and  N_8
REMARK    5  A    between atoms: C_9  and  C_11
REMARK    6  A    between atoms: C_11  and  N_12
REMARK    7  A    between atoms: N_12  and  C_13
REMARK                            x       y       z     vdW  Elec       q    Type
REMARK                         _______ _______ _______ _____ _____    ______ ____
ROOT
ATOM      1  N   UNL     1       7.040   7.663  16.995  0.00  0.00    +0.000 N 
ATOM      2  C   UNL     1       7.931   8.020  17.982  0.00  0.00    +0.000 C 
ATOM      3  O   UNL     1       8.379   7.239  18.821  0.00  0.00    +0.000 OA
ATOM      4  H   UNL     1       6.676   8.399  16.404  0.00  0.00    +0.000 HD
ENDROOT
BRANCH   1   5
ATOM      5  C   UNL     1       6.538   6.318  16.852  0.00  0.00    +0.000 C 
BRANCH   5   9
ATOM      6  C   UNL     1       3.094   5.597  19.372  0.00  0.00    +0.000 A 
ATOM      7  C   UNL     1       4.260   4.846  19.529  0.00  0.00    +0.000 A 
ATOM      8  C   UNL     1       5.371   5.079  18.713  0.00  0.00    +0.000 A 
ATOM      9  C   UNL     1       5.331   6.067  17.720  0.00  0.00    +0.000 A 
ATOM     10  C   UNL     1       4.147   6.797  17.547  0.00  0.00    +0.000 A 
ATOM     11  C   UNL     1       3.036   6.566  18.370  0.00  0.00    +0.000 A 
BRANCH   6  13
ATOM     12  C   UNL     1       1.309   4.124  19.865  0.00  0.00    +0.000 C 
ATOM     13  O   UNL     1       2.074   5.269  20.222  0.00  0.00    +0.000 OA
ENDBRANCH   6  13
ENDBRANCH   5   9
ENDBRANCH   1   5
BRANCH   2  14
ATOM     14  C   UNL     1       8.344   9.493  17.931  0.00  0.00    +0.000 C 
BRANCH  14  15
ATOM     15  N   UNL     1       9.199   9.813  19.095  0.00  0.00    +0.000 NA
ATOM     16  H   UNL     1      10.071   9.288  18.979  0.00  0.00    +0.000 HD
BRANCH  15  17
ATOM     17  C   UNL     1       9.528  11.256  19.174  0.00  0.00    +0.000 C 
ATOM     18  C   UNL     1      10.653  11.532  18.156  0.00  0.00    +0.000 C 
ATOM     19  C   UNL     1      11.102  12.995  18.119  0.00  0.00    +0.000 C 
ATOM     20  C   UNL     1      11.655  13.486  19.449  0.00  0.00    +0.000 C 
ATOM     21  S   UNL     1      10.388  13.427  20.739  0.00  0.00    +0.000 S 
ATOM     22  C   UNL     1       9.948  11.671  20.598  0.00  0.00    +0.000 C 
ENDBRANCH  15  17
ENDBRANCH  14  15
ENDBRANCH   2  14
TORSDOF 6
ENDMDL
MODEL 8
REMARK VINA RESULT:      -6.4      1.342      1.352
REMARK  Name = 
REMARK  7 active torsions:
REMARK  status: ('A' for Active; 'I' for Inactive)
REMARK    1  A    between atoms: C_1  and  O_2
REMARK    2  A    between atoms: O_2  and  C_3
REMARK    3  A    between atoms: C_6  and  C_7
REMARK    4  A    between atoms: C_7  and  N_8
REMARK    5  A    between atoms: C_9  and  C_11
REMARK    6  A    between atoms: C_11  and  N_12
REMARK    7  A    between atoms: N_12  and  C_13
REMARK                            x       y       z     vdW  Elec       q    Type
REMARK                         _______ _______ _______ _____ _____    ______ ____
ROOT
ATOM      1  N   UNL     1       7.832   6.168  18.536  0.00  0.00    +0.000 N 
ATOM      2  C   UNL     1       7.797   7.360  17.849  0.00  0.00    +0.000 C 
ATOM      3  O   UNL     1       7.320   7.492  16.723  0.00  0.00    +0.000 OA
ATOM      4  H   UNL     1       8.316   6.154  19.425  0.00  0.00    +0.000 HD
ENDROOT
BRANCH   1   5
ATOM      5  C   UNL     1       7.305   4.941  17.990  0.00  0.00    +0.000 C 
BRANCH   5   9
ATOM      6  C   UNL     1       3.034   4.619  18.610  0.00  0.00    +0.000 A 
ATOM      7  C   UNL     1       3.850   5.211  19.575  0.00  0.00    +0.000 A 
ATOM      8  C   UNL     1       5.229   5.314  19.374  0.00  0.00    +0.000 A 
ATOM      9  C   UNL     1       5.817   4.817  18.203  0.00  0.00    +0.000 A 
ATOM     10  C   UNL     1       4.997   4.195  17.252  0.00  0.00    +0.000 A 
ATOM     11  C   UNL     1       3.613   4.100  17.452  0.00  0.00    +0.000 A 
BRANCH   6  13
ATOM     12  C   UNL     1       1.392   4.110  20.236  0.00  0.00    +0.000 C 
ATOM     13  O   UNL     1       1.704   4.570  18.927  0.00  0.00    +0.000 OA
ENDBRANCH   6  13
ENDBRANCH   5   9
ENDBRANCH   1   5
BRANCH   2  14
ATOM     14  C   UNL     1       8.393   8.535  18.630  0.00  0.00    +0.000 C 
BRANCH  14  15
ATOM     15  N   UNL     1       8.291   9.772  17.827  0.00  0.00    +0.000 NA
ATOM     16  H   UNL     1       7.347  10.145  17.970  0.00  0.00    +0.000 HD
BRANCH  15  17
ATOM     17  C   UNL     1       9.270  10.801  18.247  0.00  0.00    +0.000 C 
ATOM     18  C   UNL     1       9.441  10.683  19.776  0.00  0.00    +0.000 C 
ATOM     19  C   UNL     1      10.434  11.688  20.363  0.00  0.00    +0.000 C 
ATOM     20  C   UNL     1      10.030  13.137  20.130  0.00  0.00    +0.000 C 
ATOM     21  S   UNL     1       9.978  13.520  18.363  0.00  0.00    +0.000 S 
ATOM     22  C   UNL     1       8.821  12.220  17.843  0.00  0.00    +0.000 C 
ENDBRANCH  15  17
ENDBRANCH  14  15
ENDBRANCH   2  14
TORSDOF 6
ENDMDL
MODEL 9
REMARK VINA RESULT:      -6.4      1.527      1.786
REMARK  Name = 
REMARK  7 active torsions:
REMARK  status: ('A' for Active; 'I' for Inactive)
REMARK    1  A    between atoms: C_1  and  O_2
REMARK    2  A    between atoms: O_2  and  C_3
REMARK    3  A    between atoms: C_6  and  C_7
REMARK    4  A    between atoms: C_7  and  N_8
REMARK    5  A    between atoms: C_9  and  C_11
REMARK    6  A    between atoms: C_11  and  N_12
REMARK    7  A    between atoms: N_12  and  C_13
REMARK                            x       y       z     vdW  Elec       q    Type
REMARK                         _______ _______ _______ _____ _____    ______ ____
ROOT
ATOM      1  N   UNL     1       7.723   6.777  18.742  0.00  0.00    +0.000 N 
ATOM      2  C   UNL     1       7.802   7.491  17.567  0.00  0.00    +0.000 C 
ATOM      3  O   UNL     1       7.699   6.989  16.448  0.00  0.00    +0.000 OA
ATOM      4  H   UNL     1       7.898   7.276  19.604  0.00  0.00    +0.000 HD
ENDROOT
BRANCH   1   5
ATOM      5  C   UNL     1       7.510   5.352  18.772  0.00  0.00    +0.000 C 
BRANCH   5   9
ATOM      6  C   UNL     1       3.384   4.332  17.952  0.00  0.00    +0.000 A 
ATOM      7  C   UNL     1       3.740   4.948  19.152  0.00  0.00    +0.000 A 
ATOM      8  C   UNL     1       5.072   5.276  19.416  0.00  0.00    +0.000 A 
ATOM      9  C   UNL     1       6.076   4.985  18.482  0.00  0.00    +0.000 A 
ATOM     10  C   UNL     1       5.717   4.338  17.292  0.00  0.00    +0.000 A 
ATOM     11  C   UNL     1       4.380   4.016  17.026  0.00  0.00    +0.000 A 
BRANCH   6  13
ATOM     12  C   UNL     1       1.636   2.767  18.259  0.00  0.00    +0.000 C 
ATOM     13  O   UNL     1       2.052   4.053  17.815  0.00  0.00    +0.000 OA
ENDBRANCH   6  13
ENDBRANCH   5   9
ENDBRANCH   1   5
BRANCH   2  14
ATOM     14  C   UNL     1       8.010   8.993  17.775  0.00  0.00    +0.000 C 
BRANCH  14  15
ATOM     15  N   UNL     1       8.914   9.219  18.923  0.00  0.00    +0.000 NA
ATOM     16  H   UNL     1       9.807   8.772  18.693  0.00  0.00    +0.000 HD
BRANCH  15  17
ATOM     17  C   UNL     1       9.161  10.658  19.174  0.00  0.00    +0.000 C 
ATOM     18  C   UNL     1      10.275  11.113  18.210  0.00  0.00    +0.000 C 
ATOM     19  C   UNL     1      10.641  12.593  18.349  0.00  0.00    +0.000 C 
ATOM     20  C   UNL     1      11.157  12.955  19.734  0.00  0.00    +0.000 C 
ATOM     21  S   UNL     1       9.887  12.676  20.992  0.00  0.00    +0.000 S 
ATOM     22  C   UNL     1       9.547  10.926  20.643  0.00  0.00    +0.000 C 
ENDBRANCH  15  17
ENDBRANCH  14  15
ENDBRANCH   2  14
TORSDOF 6
ENDMDL
