MODEL 1
REMARK VINA RESULT:      -7.5      0.000      0.000
REMARK  Name = 
REMARK  8 active torsions:
REMARK  status: ('A' for Active; 'I' for Inactive)
REMARK    1  A    between atoms: C_1  and  C_2
REMARK    2  A    between atoms: C_5  and  C_6
REMARK    3  A    between atoms: C_6  and  C_7
REMARK    4  A    between atoms: C_10  and  S_11
REMARK    5  A    between atoms: S_11  and  C_12
REMARK    6  A    between atoms: C_12  and  C_13
REMARK    7  A    between atoms: N_15  and  C_16
REMARK    8  A    between atoms: C_23  and  O_24
REMARK                            x       y       z     vdW  Elec       q    Type
REMARK                         _______ _______ _______ _____ _____    ______ ____
ROOT
ATOM      1  C   UNL     1       1.201   9.309  19.349  0.00  0.00    +0.000 A 
ATOM      2  N   UNL     1       0.858   8.905  20.589  0.00  0.00    +0.000 NA
ATOM      3  N   UNL     1       1.247   7.669  21.001  0.00  0.00    +0.000 NA
ATOM      4  C   UNL     1       1.939   6.862  20.160  0.00  0.00    +0.000 A 
ATOM      5  N   UNL     1       2.312   7.212  18.921  0.00  0.00    +0.000 NA
ATOM      6  C   UNL     1       1.923   8.442  18.555  0.00  0.00    +0.000 A 
ENDROOT
BRANCH   6   7
ATOM      7  O   UNL     1       2.331   8.780  17.305  0.00  0.00    +0.000 OA
ATOM      8  H   UNL     1       3.292   8.883  17.445  0.00  0.00    +0.000 HD
ENDBRANCH   6   7
BRANCH   1   9
ATOM      9  C   UNL     1       0.793  10.683  18.912  0.00  0.00    +0.000 C 
BRANCH   9  14
ATOM     10  C   UNL     1      -4.833  11.248  17.471  0.00  0.00    +0.000 C 
ATOM     11  C   UNL     1      -3.385  11.113  17.841  0.00  0.00    +0.000 A 
ATOM     12  C   UNL     1      -2.810  11.937  18.815  0.00  0.00    +0.000 A 
ATOM     13  C   UNL     1      -1.470  11.779  19.180  0.00  0.00    +0.000 A 
ATOM     14  C   UNL     1      -0.667  10.825  18.545  0.00  0.00    +0.000 A 
ATOM     15  C   UNL     1      -1.239  10.013  17.556  0.00  0.00    +0.000 A 
ATOM     16  C   UNL     1      -2.584  10.157  17.208  0.00  0.00    +0.000 A 
ENDBRANCH   9  14
ENDBRANCH   1   9
BRANCH   4  17
ATOM     17  S   UNL     1       2.318   5.220  20.705  0.00  0.00    +0.000 S 
BRANCH  17  18
ATOM     18  C   UNL     1       1.898   4.288  19.192  0.00  0.00    +0.000 C 
BRANCH  18  19
ATOM     19  C   UNL     1       3.158   3.846  18.459  0.00  0.00    +0.000 C 
ATOM     20  O   UNL     1       3.591   2.708  18.618  0.00  0.00    +0.000 OA
ATOM     21  N   UNL     1       3.736   4.835  17.677  0.00  0.00    +0.000 N 
ATOM     22  H   UNL     1       3.385   5.785  17.788  0.00  0.00    +0.000 HD
BRANCH  21  23
ATOM     23  C   UNL     1       4.950   4.711  16.965  0.00  0.00    +0.000 A 
ATOM     24  C   UNL     1       6.202   4.661  17.580  0.00  0.00    +0.000 A 
ATOM     25  C   UNL     1       7.374   4.633  16.818  0.00  0.00    +0.000 A 
ATOM     26  C   UNL     1       7.304   4.645  15.432  0.00  0.00    +0.000 A 
ATOM     27  C   UNL     1       6.059   4.642  14.814  0.00  0.00    +0.000 A 
ATOM     28  C   UNL     1       4.885   4.660  15.573  0.00  0.00    +0.000 A 
ENDBRANCH  21  23
ENDBRANCH  18  19
ENDBRANCH  17  18
ENDBRANCH   4  17
TORSDOF 7
ENDMDL
MODEL 2
REMARK VINA RESULT:      -7.4      3.015      7.490
REMARK  Name = 
REMARK  8 active torsions:
REMARK  status: ('A' for Active; 'I' for Inactive)
REMARK    1  A    between atoms: C_1  and  C_2
REMARK    2  A    between atoms: C_5  and  C_6
REMARK    3  A    between atoms: C_6  and  C_7
REMARK    4  A    between atoms: C_10  and  S_11
REMARK    5  A    between atoms: S_11  and  C_12
REMARK    6  A    between atoms: C_12  and  C_13
REMARK    7  A    between atoms: N_15  and  C_16
REMARK    8  A    between atoms: C_23  and  O_24
REMARK                            x       y       z     vdW  Elec       q    Type
REMARK                         _______ _______ _______ _____ _____    ______ ____
ROOT
ATOM      1  C   UNL     1       5.363   4.042  17.870  0.00  0.00    +0.000 A 
ATOM      2  N   UNL     1       5.777   3.768  19.123  0.00  0.00    +0.000 NA
ATOM      3  N   UNL     1       4.907   3.168  19.978  0.00  0.00    +0.000 NA
ATOM      4  C   UNL     1       3.645   2.885  19.572  0.00  0.00    +0.000 A 
ATOM      5  N   UNL     1       3.182   3.128  18.338  0.00  0.00    +0.000 NA
ATOM      6  C   UNL     1       4.071   3.707  17.519  0.00  0.00    +0.000 A 
ENDROOT
BRANCH   6   7
ATOM      7  O   UNL     1       3.584   3.924  16.270  0.00  0.00    +0.000 OA
ATOM      8  H   UNL     1       4.020   4.768  16.046  0.00  0.00    +0.000 HD
ENDBRANCH   6   7
BRANCH   1   9
ATOM      9  C   UNL     1       6.336   4.678  16.924  0.00  0.00    +0.000 C 
BRANCH   9  14
ATOM     10  C   UNL     1       8.861   9.559  18.883  0.00  0.00    +0.000 C 
ATOM     11  C   UNL     1       8.222   8.298  18.380  0.00  0.00    +0.000 A 
ATOM     12  C   UNL     1       8.452   7.072  19.011  0.00  0.00    +0.000 A 
ATOM     13  C   UNL     1       7.823   5.909  18.557  0.00  0.00    +0.000 A 
ATOM     14  C   UNL     1       6.985   5.944  17.437  0.00  0.00    +0.000 A 
ATOM     15  C   UNL     1       6.769   7.170  16.795  0.00  0.00    +0.000 A 
ATOM     16  C   UNL     1       7.381   8.335  17.262  0.00  0.00    +0.000 A 
ENDBRANCH   9  14
ENDBRANCH   1   9
BRANCH   4  17
ATOM     17  S   UNL     1       2.518   2.211  20.761  0.00  0.00    +0.000 S 
BRANCH  17  18
ATOM     18  C   UNL     1       2.145   3.718  21.721  0.00  0.00    +0.000 C 
BRANCH  18  19
ATOM     19  C   UNL     1       1.619   4.824  20.814  0.00  0.00    +0.000 C 
ATOM     20  O   UNL     1       0.582   4.654  20.180  0.00  0.00    +0.000 OA
ATOM     21  N   UNL     1       2.426   5.951  20.769  0.00  0.00    +0.000 N 
ATOM     22  H   UNL     1       3.351   5.883  21.191  0.00  0.00    +0.000 HD
BRANCH  21  23
ATOM     23  C   UNL     1       2.212   7.079  19.946  0.00  0.00    +0.000 A 
ATOM     24  C   UNL     1       1.496   8.206  20.356  0.00  0.00    +0.000 A 
ATOM     25  C   UNL     1       1.237   9.252  19.465  0.00  0.00    +0.000 A 
ATOM     26  C   UNL     1       1.699   9.185  18.158  0.00  0.00    +0.000 A 
ATOM     27  C   UNL     1       2.457   8.091  17.760  0.00  0.00    +0.000 A 
ATOM     28  C   UNL     1       2.727   7.047  18.651  0.00  0.00    +0.000 A 
ENDBRANCH  21  23
ENDBRANCH  18  19
ENDBRANCH  17  18
ENDBRANCH   4  17
TORSDOF 7
ENDMDL
MODEL 3
REMARK VINA RESULT:      -7.3      2.024      2.792
REMARK  Name = 
REMARK  8 active torsions:
REMARK  status: ('A' for Active; 'I' for Inactive)
REMARK    1  A    between atoms: C_1  and  C_2
REMARK    2  A    between atoms: C_5  and  C_6
REMARK    3  A    between atoms: C_6  and  C_7
REMARK    4  A    between atoms: C_10  and  S_11
REMARK    5  A    between atoms: S_11  and  C_12
REMARK    6  A    between atoms: C_12  and  C_13
REMARK    7  A    between atoms: N_15  and  C_16
REMARK    8  A    between atoms: C_23  and  O_24
REMARK                            x       y       z     vdW  Elec       q    Type
REMARK                         _______ _______ _______ _____ _____    ______ ____
ROOT
ATOM      1  C   UNL     1       2.160   7.261  18.672  0.00  0.00    +0.000 A 
ATOM      2  N   UNL     1       2.089   6.377  17.656  0.00  0.00    +0.000 NA
ATOM      3  N   UNL     1       1.928   5.060  17.952  0.00  0.00    +0.000 NA
ATOM      4  C   UNL     1       1.871   4.659  19.245  0.00  0.00    +0.000 A 
ATOM      5  N   UNL     1       1.929   5.492  20.293  0.00  0.00    +0.000 NA
ATOM      6  C   UNL     1       2.073   6.783  19.963  0.00  0.00    +0.000 A 
ENDROOT
BRANCH   6   7
ATOM      7  O   UNL     1       2.109   7.608  21.041  0.00  0.00    +0.000 OA
ATOM      8  H   UNL     1       1.691   7.044  21.720  0.00  0.00    +0.000 HD
ENDBRANCH   6   7
BRANCH   1   9
ATOM      9  C   UNL     1       2.309   8.715  18.338  0.00  0.00    +0.000 C 
BRANCH   9  14
ATOM     10  C   UNL     1      -2.516  11.894  19.150  0.00  0.00    +0.000 C 
ATOM     11  C   UNL     1      -1.281  11.067  18.940  0.00  0.00    +0.000 A 
ATOM     12  C   UNL     1      -1.182  10.182  17.861  0.00  0.00    +0.000 A 
ATOM     13  C   UNL     1      -0.014   9.443  17.652  0.00  0.00    +0.000 A 
ATOM     14  C   UNL     1       1.061   9.544  18.543  0.00  0.00    +0.000 A 
ATOM     15  C   UNL     1       0.953  10.417  19.633  0.00  0.00    +0.000 A 
ATOM     16  C   UNL     1      -0.207  11.171  19.829  0.00  0.00    +0.000 A 
ENDBRANCH   9  14
ENDBRANCH   1   9
BRANCH   4  17
ATOM     17  S   UNL     1       1.780   2.920  19.575  0.00  0.00    +0.000 S 
BRANCH  17  18
ATOM     18  C   UNL     1       3.551   2.558  19.820  0.00  0.00    +0.000 C 
BRANCH  18  19
ATOM     19  C   UNL     1       4.412   3.385  18.873  0.00  0.00    +0.000 C 
ATOM     20  O   UNL     1       4.567   3.019  17.711  0.00  0.00    +0.000 OA
ATOM     21  N   UNL     1       4.991   4.500  19.459  0.00  0.00    +0.000 N 
ATOM     22  H   UNL     1       4.936   4.579  20.473  0.00  0.00    +0.000 HD
BRANCH  21  23
ATOM     23  C   UNL     1       5.895   5.382  18.826  0.00  0.00    +0.000 A 
ATOM     24  C   UNL     1       7.197   5.604  19.278  0.00  0.00    +0.000 A 
ATOM     25  C   UNL     1       8.014   6.559  18.666  0.00  0.00    +0.000 A 
ATOM     26  C   UNL     1       7.540   7.295  17.589  0.00  0.00    +0.000 A 
ATOM     27  C   UNL     1       6.264   7.041  17.101  0.00  0.00    +0.000 A 
ATOM     28  C   UNL     1       5.447   6.080  17.705  0.00  0.00    +0.000 A 
ENDBRANCH  21  23
ENDBRANCH  18  19
ENDBRANCH  17  18
ENDBRANCH   4  17
TORSDOF 7
ENDMDL
MODEL 4
REMARK VINA RESULT:      -7.2      1.966      2.703
REMARK  Name = 
REMARK  8 active torsions:
REMARK  status: ('A' for Active; 'I' for Inactive)
REMARK    1  A    between atoms: C_1  and  C_2
REMARK    2  A    between atoms: C_5  and  C_6
REMARK    3  A    between atoms: C_6  and  C_7
REMARK    4  A    between atoms: C_10  and  S_11
REMARK    5  A    between atoms: S_11  and  C_12
REMARK    6  A    between atoms: C_12  and  C_13
REMARK    7  A    between atoms: N_15  and  C_16
REMARK    8  A    between atoms: C_23  and  O_24
REMARK                            x       y       z     vdW  Elec       q    Type
REMARK                         _______ _______ _______ _____ _____    ______ ____
ROOT
ATOM      1  C   UNL     1       2.227   7.072  18.786  0.00  0.00    +0.000 A 
ATOM      2  N   UNL     1       2.256   6.279  17.696  0.00  0.00    +0.000 NA
ATOM      3  N   UNL     1       2.080   4.941  17.861  0.00  0.00    +0.000 NA
ATOM      4  C   UNL     1       1.909   4.429  19.105  0.00  0.00    +0.000 A 
ATOM      5  N   UNL     1       1.866   5.169  20.221  0.00  0.00    +0.000 NA
ATOM      6  C   UNL     1       2.029   6.484  20.018  0.00  0.00    +0.000 A 
ENDROOT
BRANCH   6   7
ATOM      7  O   UNL     1       1.960   7.213  21.162  0.00  0.00    +0.000 OA
ATOM      8  H   UNL     1       2.202   8.099  20.831  0.00  0.00    +0.000 HD
ENDBRANCH   6   7
BRANCH   1   9
ATOM      9  C   UNL     1       2.394   8.549  18.593  0.00  0.00    +0.000 C 
BRANCH   9  14
ATOM     10  C   UNL     1      -2.528  11.661  18.954  0.00  0.00    +0.000 C 
ATOM     11  C   UNL     1      -1.257  10.869  18.864  0.00  0.00    +0.000 A 
ATOM     12  C   UNL     1      -0.326  10.880  19.909  0.00  0.00    +0.000 A 
ATOM     13  C   UNL     1       0.838  10.111  19.832  0.00  0.00    +0.000 A 
ATOM     14  C   UNL     1       1.115   9.349  18.691  0.00  0.00    +0.000 A 
ATOM     15  C   UNL     1       0.191   9.353  17.638  0.00  0.00    +0.000 A 
ATOM     16  C   UNL     1      -0.983  10.106  17.724  0.00  0.00    +0.000 A 
ENDBRANCH   9  14
ENDBRANCH   1   9
BRANCH   4  17
ATOM     17  S   UNL     1       1.803   2.669  19.274  0.00  0.00    +0.000 S 
BRANCH  17  18
ATOM     18  C   UNL     1       3.323   2.181  18.392  0.00  0.00    +0.000 C 
BRANCH  18  19
ATOM     19  C   UNL     1       4.482   3.102  18.753  0.00  0.00    +0.000 C 
ATOM     20  O   UNL     1       4.947   3.083  19.890  0.00  0.00    +0.000 OA
ATOM     21  N   UNL     1       4.887   3.936  17.722  0.00  0.00    +0.000 N 
ATOM     22  H   UNL     1       4.291   3.985  16.897  0.00  0.00    +0.000 HD
BRANCH  21  23
ATOM     23  C   UNL     1       5.877   4.937  17.819  0.00  0.00    +0.000 A 
ATOM     24  C   UNL     1       7.003   4.830  18.639  0.00  0.00    +0.000 A 
ATOM     25  C   UNL     1       7.901   5.895  18.764  0.00  0.00    +0.000 A 
ATOM     26  C   UNL     1       7.686   7.074  18.064  0.00  0.00    +0.000 A 
ATOM     27  C   UNL     1       6.597   7.167  17.207  0.00  0.00    +0.000 A 
ATOM     28  C   UNL     1       5.702   6.101  17.071  0.00  0.00    +0.000 A 
ENDBRANCH  21  23
ENDBRANCH  18  19
ENDBRANCH  17  18
ENDBRANCH   4  17
TORSDOF 7
ENDMDL
MODEL 5
REMARK VINA RESULT:      -7.2      6.231      8.992
REMARK  Name = 
REMARK  8 active torsions:
REMARK  status: ('A' for Active; 'I' for Inactive)
REMARK    1  A    between atoms: C_1  and  C_2
REMARK    2  A    between atoms: C_5  and  C_6
REMARK    3  A    between atoms: C_6  and  C_7
REMARK    4  A    between atoms: C_10  and  S_11
REMARK    5  A    between atoms: S_11  and  C_12
REMARK    6  A    between atoms: C_12  and  C_13
REMARK    7  A    between atoms: N_15  and  C_16
REMARK    8  A    between atoms: C_23  and  O_24
REMARK                            x       y       z     vdW  Elec       q    Type
REMARK                         _______ _______ _______ _____ _____    ______ ____
ROOT
ATOM      1  C   UNL     1       6.122   5.636  16.881  0.00  0.00    +0.000 A 
ATOM      2  N   UNL     1       6.255   6.887  16.394  0.00  0.00    +0.000 NA
ATOM      3  N   UNL     1       7.123   7.734  17.007  0.00  0.00    +0.000 NA
ATOM      4  C   UNL     1       7.810   7.324  18.101  0.00  0.00    +0.000 A 
ATOM      5  N   UNL     1       7.723   6.093  18.625  0.00  0.00    +0.000 NA
ATOM      6  C   UNL     1       6.869   5.282  17.985  0.00  0.00    +0.000 A 
ENDROOT
BRANCH   6   7
ATOM      7  O   UNL     1       6.815   4.035  18.522  0.00  0.00    +0.000 OA
ATOM      8  H   UNL     1       6.445   4.230  19.404  0.00  0.00    +0.000 HD
ENDBRANCH   6   7
BRANCH   1   9
ATOM      9  C   UNL     1       5.185   4.699  16.183  0.00  0.00    +0.000 C 
BRANCH   9  14
ATOM     10  C   UNL     1       0.673   2.865  19.395  0.00  0.00    +0.000 C 
ATOM     11  C   UNL     1       1.826   3.344  18.564  0.00  0.00    +0.000 A 
ATOM     12  C   UNL     1       2.067   4.710  18.383  0.00  0.00    +0.000 A 
ATOM     13  C   UNL     1       3.165   5.147  17.638  0.00  0.00    +0.000 A 
ATOM     14  C   UNL     1       4.020   4.225  17.022  0.00  0.00    +0.000 A 
ATOM     15  C   UNL     1       3.767   2.857  17.188  0.00  0.00    +0.000 A 
ATOM     16  C   UNL     1       2.681   2.421  17.951  0.00  0.00    +0.000 A 
ENDBRANCH   9  14
ENDBRANCH   1   9
BRANCH   4  17
ATOM     17  S   UNL     1       8.838   8.504  18.931  0.00  0.00    +0.000 S 
BRANCH  17  18
ATOM     18  C   UNL     1       8.322  10.026  18.066  0.00  0.00    +0.000 C 
BRANCH  18  19
ATOM     19  C   UNL     1       9.316  11.155  18.311  0.00  0.00    +0.000 C 
ATOM     20  O   UNL     1      10.193  11.023  19.160  0.00  0.00    +0.000 OA
ATOM     21  N   UNL     1       9.092  12.285  17.539  0.00  0.00    +0.000 N 
ATOM     22  H   UNL     1       8.217  12.332  17.018  0.00  0.00    +0.000 HD
BRANCH  21  23
ATOM     23  C   UNL     1       9.813  13.495  17.631  0.00  0.00    +0.000 A 
ATOM     24  C   UNL     1      11.046  13.707  17.010  0.00  0.00    +0.000 A 
ATOM     25  C   UNL     1      11.756  14.894  17.215  0.00  0.00    +0.000 A 
ATOM     26  C   UNL     1      11.236  15.885  18.037  0.00  0.00    +0.000 A 
ATOM     27  C   UNL     1       9.986  15.702  18.614  0.00  0.00    +0.000 A 
ATOM     28  C   UNL     1       9.268  14.520  18.404  0.00  0.00    +0.000 A 
ENDBRANCH  21  23
ENDBRANCH  18  19
ENDBRANCH  17  18
ENDBRANCH   4  17
TORSDOF 7
ENDMDL
MODEL 6
REMARK VINA RESULT:      -7.2      1.196      1.951
REMARK  Name = 
REMARK  8 active torsions:
REMARK  status: ('A' for Active; 'I' for Inactive)
REMARK    1  A    between atoms: C_1  and  C_2
REMARK    2  A    between atoms: C_5  and  C_6
REMARK    3  A    between atoms: C_6  and  C_7
REMARK    4  A    between atoms: C_10  and  S_11
REMARK    5  A    between atoms: S_11  and  C_12
REMARK    6  A    between atoms: C_12  and  C_13
REMARK    7  A    between atoms: N_15  and  C_16
REMARK    8  A    between atoms: C_23  and  O_24
REMARK                            x       y       z     vdW  Elec       q    Type
REMARK                         _______ _______ _______ _____ _____    ______ ____
ROOT
ATOM      1  C   UNL     1       1.092   9.400  19.695  0.00  0.00    +0.000 A 
ATOM      2  N   UNL     1       1.854   8.771  18.777  0.00  0.00    +0.000 NA
ATOM      3  N   UNL     1       2.248   7.493  19.026  0.00  0.00    +0.000 NA
ATOM      4  C   UNL     1       1.898   6.892  20.190  0.00  0.00    +0.000 A 
ATOM      5  N   UNL     1       1.139   7.466  21.133  0.00  0.00    +0.000 NA
ATOM      6  C   UNL     1       0.758   8.719  20.847  0.00  0.00    +0.000 A 
ENDROOT
BRANCH   6   7
ATOM      7  O   UNL     1      -0.027   9.270  21.808  0.00  0.00    +0.000 OA
ATOM      8  H   UNL     1      -0.600   8.513  22.036  0.00  0.00    +0.000 HD
ENDBRANCH   6   7
BRANCH   1   9
ATOM      9  C   UNL     1       0.638  10.798  19.401  0.00  0.00    +0.000 C 
BRANCH   9  14
ATOM     10  C   UNL     1      -4.716  11.183  17.115  0.00  0.00    +0.000 C 
ATOM     11  C   UNL     1      -3.340  11.073  17.703  0.00  0.00    +0.000 A 
ATOM     12  C   UNL     1      -2.411  10.158  17.197  0.00  0.00    +0.000 A 
ATOM     13  C   UNL     1      -1.120  10.088  17.727  0.00  0.00    +0.000 A 
ATOM     14  C   UNL     1      -0.747  10.902  18.803  0.00  0.00    +0.000 A 
ATOM     15  C   UNL     1      -1.684  11.805  19.321  0.00  0.00    +0.000 A 
ATOM     16  C   UNL     1      -2.968  11.889  18.777  0.00  0.00    +0.000 A 
ENDBRANCH   9  14
ENDBRANCH   1   9
BRANCH   4  17
ATOM     17  S   UNL     1       2.537   5.271  20.515  0.00  0.00    +0.000 S 
BRANCH  17  18
ATOM     18  C   UNL     1       1.802   4.363  19.113  0.00  0.00    +0.000 C 
BRANCH  18  19
ATOM     19  C   UNL     1       2.827   4.147  18.007  0.00  0.00    +0.000 C 
ATOM     20  O   UNL     1       2.700   3.204  17.231  0.00  0.00    +0.000 OA
ATOM     21  N   UNL     1       3.869   5.061  18.013  0.00  0.00    +0.000 N 
ATOM     22  H   UNL     1       3.954   5.671  18.826  0.00  0.00    +0.000 HD
BRANCH  21  23
ATOM     23  C   UNL     1       4.988   5.034  17.152  0.00  0.00    +0.000 A 
ATOM     24  C   UNL     1       4.917   5.320  15.787  0.00  0.00    +0.000 A 
ATOM     25  C   UNL     1       6.042   5.184  14.968  0.00  0.00    +0.000 A 
ATOM     26  C   UNL     1       7.252   4.770  15.507  0.00  0.00    +0.000 A 
ATOM     27  C   UNL     1       7.342   4.536  16.873  0.00  0.00    +0.000 A 
ATOM     28  C   UNL     1       6.222   4.679  17.698  0.00  0.00    +0.000 A 
ENDBRANCH  21  23
ENDBRANCH  18  19
ENDBRANCH  17  18
ENDBRANCH   4  17
TORSDOF 7
ENDMDL
MODEL 7
REMARK VINA RESULT:      -7.1      1.798      2.553
REMARK  Name = 
REMARK  8 active torsions:
REMARK  status: ('A' for Active; 'I' for Inactive)
REMARK    1  A    between atoms: C_1  and  C_2
REMARK    2  A    between atoms: C_5  and  C_6
REMARK    3  A    between atoms: C_6  and  C_7
REMARK    4  A    between atoms: C_10  and  S_11
REMARK    5  A    between atoms: S_11  and  C_12
REMARK    6  A    between atoms: C_12  and  C_13
REMARK    7  A    between atoms: N_15  and  C_16
REMARK    8  A    between atoms: C_23  and  O_24
REMARK                            x       y       z     vdW  Elec       q    Type
REMARK                         _______ _______ _______ _____ _____    ______ ____
ROOT
ATOM      1  C   UNL     1       2.223   7.081  18.596  0.00  0.00    +0.000 A 
ATOM      2  N   UNL     1       2.059   5.999  17.807  0.00  0.00    +0.000 NA
ATOM      3  N   UNL     1       1.743   4.812  18.390  0.00  0.00    +0.000 NA
ATOM      4  C   UNL     1       1.629   4.729  19.738  0.00  0.00    +0.000 A 
ATOM      5  N   UNL     1       1.774   5.769  20.569  0.00  0.00    +0.000 NA
ATOM      6  C   UNL     1       2.070   6.926  19.959  0.00  0.00    +0.000 A 
ENDROOT
BRANCH   6   7
ATOM      7  O   UNL     1       2.192   7.968  20.821  0.00  0.00    +0.000 OA
ATOM      8  H   UNL     1       2.970   7.689  21.340  0.00  0.00    +0.000 HD
ENDBRANCH   6   7
BRANCH   1   9
ATOM      9  C   UNL     1       2.542   8.392  17.945  0.00  0.00    +0.000 C 
BRANCH   9  14
ATOM     10  C   UNL     1      -1.423  12.590  18.780  0.00  0.00    +0.000 C 
ATOM     11  C   UNL     1      -0.397  11.518  18.560  0.00  0.00    +0.000 A 
ATOM     12  C   UNL     1       0.962  11.762  18.788  0.00  0.00    +0.000 A 
ATOM     13  C   UNL     1       1.906  10.746  18.616  0.00  0.00    +0.000 A 
ATOM     14  C   UNL     1       1.515   9.478  18.169  0.00  0.00    +0.000 A 
ATOM     15  C   UNL     1       0.156   9.240  17.924  0.00  0.00    +0.000 A 
ATOM     16  C   UNL     1      -0.790  10.250  18.117  0.00  0.00    +0.000 A 
ENDBRANCH   9  14
ENDBRANCH   1   9
BRANCH   4  17
ATOM     17  S   UNL     1       1.333   3.135  20.452  0.00  0.00    +0.000 S 
BRANCH  17  18
ATOM     18  C   UNL     1       3.044   2.667  20.882  0.00  0.00    +0.000 C 
BRANCH  18  19
ATOM     19  C   UNL     1       3.925   2.622  19.639  0.00  0.00    +0.000 C 
ATOM     20  O   UNL     1       4.199   1.542  19.123  0.00  0.00    +0.000 OA
ATOM     21  N   UNL     1       4.379   3.863  19.221  0.00  0.00    +0.000 N 
ATOM     22  H   UNL     1       4.236   4.652  19.851  0.00  0.00    +0.000 HD
BRANCH  21  23
ATOM     23  C   UNL     1       5.273   4.091  18.152  0.00  0.00    +0.000 A 
ATOM     24  C   UNL     1       6.563   4.599  18.322  0.00  0.00    +0.000 A 
ATOM     25  C   UNL     1       7.368   4.890  17.217  0.00  0.00    +0.000 A 
ATOM     26  C   UNL     1       6.895   4.669  15.931  0.00  0.00    +0.000 A 
ATOM     27  C   UNL     1       5.633   4.114  15.757  0.00  0.00    +0.000 A 
ATOM     28  C   UNL     1       4.828   3.811  16.860  0.00  0.00    +0.000 A 
ENDBRANCH  21  23
ENDBRANCH  18  19
ENDBRANCH  17  18
ENDBRANCH   4  17
TORSDOF 7
ENDMDL
MODEL 8
REMARK VINA RESULT:      -7.1      1.977      2.925
REMARK  Name = 
REMARK  8 active torsions:
REMARK  status: ('A' for Active; 'I' for Inactive)
REMARK    1  A    between atoms: C_1  and  C_2
REMARK    2  A    between atoms: C_5  and  C_6
REMARK    3  A    between atoms: C_6  and  C_7
REMARK    4  A    between atoms: C_10  and  S_11
REMARK    5  A    between atoms: S_11  and  C_12
REMARK    6  A    between atoms: C_12  and  C_13
REMARK    7  A    between atoms: N_15  and  C_16
REMARK    8  A    between atoms: C_23  and  O_24
REMARK                            x       y       z     vdW  Elec       q    Type
REMARK                         _______ _______ _______ _____ _____    ______ ____
ROOT
ATOM      1  C   UNL     1       2.190   7.201  18.764  0.00  0.00    +0.000 A 
ATOM      2  N   UNL     1       2.193   6.395  17.684  0.00  0.00    +0.000 NA
ATOM      3  N   UNL     1       2.035   5.057  17.871  0.00  0.00    +0.000 NA
ATOM      4  C   UNL     1       1.907   4.560  19.126  0.00  0.00    +0.000 A 
ATOM      5  N   UNL     1       1.891   5.314  20.234  0.00  0.00    +0.000 NA
ATOM      6  C   UNL     1       2.035   6.627  20.009  0.00  0.00    +0.000 A 
ENDROOT
BRANCH   6   7
ATOM      7  O   UNL     1       1.994   7.370  21.145  0.00  0.00    +0.000 OA
ATOM      8  H   UNL     1       1.517   6.765  21.745  0.00  0.00    +0.000 HD
ENDBRANCH   6   7
BRANCH   1   9
ATOM      9  C   UNL     1       2.336   8.677  18.548  0.00  0.00    +0.000 C 
BRANCH   9  14
ATOM     10  C   UNL     1      -2.641  11.693  18.974  0.00  0.00    +0.000 C 
ATOM     11  C   UNL     1      -1.367  10.908  18.861  0.00  0.00    +0.000 A 
ATOM     12  C   UNL     1      -1.105  10.115  17.739  0.00  0.00    +0.000 A 
ATOM     13  C   UNL     1       0.101   9.417  17.626  0.00  0.00    +0.000 A 
ATOM     14  C   UNL     1       1.049   9.464  18.654  0.00  0.00    +0.000 A 
ATOM     15  C   UNL     1       0.779  10.244  19.786  0.00  0.00    +0.000 A 
ATOM     16  C   UNL     1      -0.418  10.958  19.888  0.00  0.00    +0.000 A 
ENDBRANCH   9  14
ENDBRANCH   1   9
BRANCH   4  17
ATOM     17  S   UNL     1       1.823   2.801  19.321  0.00  0.00    +0.000 S 
BRANCH  17  18
ATOM     18  C   UNL     1       3.364   2.321  18.468  0.00  0.00    +0.000 C 
BRANCH  18  19
ATOM     19  C   UNL     1       4.503   3.266  18.830  0.00  0.00    +0.000 C 
ATOM     20  O   UNL     1       5.021   3.201  19.942  0.00  0.00    +0.000 OA
ATOM     21  N   UNL     1       4.828   4.172  17.832  0.00  0.00    +0.000 N 
ATOM     22  H   UNL     1       4.192   4.244  17.038  0.00  0.00    +0.000 HD
BRANCH  21  23
ATOM     23  C   UNL     1       5.784   5.205  17.943  0.00  0.00    +0.000 A 
ATOM     24  C   UNL     1       5.730   6.387  17.202  0.00  0.00    +0.000 A 
ATOM     25  C   UNL     1       6.757   7.332  17.286  0.00  0.00    +0.000 A 
ATOM     26  C   UNL     1       7.843   7.109  18.120  0.00  0.00    +0.000 A 
ATOM     27  C   UNL     1       7.876   5.960  18.900  0.00  0.00    +0.000 A 
ATOM     28  C   UNL     1       6.847   5.016  18.826  0.00  0.00    +0.000 A 
ENDBRANCH  21  23
ENDBRANCH  18  19
ENDBRANCH  17  18
ENDBRANCH   4  17
TORSDOF 7
ENDMDL
MODEL 9
REMARK VINA RESULT:      -7.1      2.633      8.474
REMARK  Name = 
REMARK  8 active torsions:
REMARK  status: ('A' for Active; 'I' for Inactive)
REMARK    1  A    between atoms: C_1  and  C_2
REMARK    2  A    between atoms: C_5  and  C_6
REMARK    3  A    between atoms: C_6  and  C_7
REMARK    4  A    between atoms: C_10  and  S_11
REMARK    5  A    between atoms: S_11  and  C_12
REMARK    6  A    between atoms: C_12  and  C_13
REMARK    7  A    between atoms: N_15  and  C_16
REMARK    8  A    between atoms: C_23  and  O_24
REMARK                            x       y       z     vdW  Elec       q    Type
REMARK                         _______ _______ _______ _____ _____    ______ ____
ROOT
ATOM      1  C   UNL     1       2.386   7.958  18.748  0.00  0.00    +0.000 A 
ATOM      2  N   UNL     1       2.165   7.401  19.956  0.00  0.00    +0.000 NA
ATOM      3  N   UNL     1       1.334   8.040  20.823  0.00  0.00    +0.000 NA
ATOM      4  C   UNL     1       0.773   9.224  20.475  0.00  0.00    +0.000 A 
ATOM      5  N   UNL     1       0.953   9.819  19.288  0.00  0.00    +0.000 NA
ATOM      6  C   UNL     1       1.765   9.154  18.454  0.00  0.00    +0.000 A 
ENDROOT
BRANCH   6   7
ATOM      7  O   UNL     1       1.914   9.767  17.252  0.00  0.00    +0.000 OA
ATOM      8  H   UNL     1       0.988  10.001  17.047  0.00  0.00    +0.000 HD
ENDBRANCH   6   7
BRANCH   1   9
ATOM      9  C   UNL     1       3.280   7.234  17.787  0.00  0.00    +0.000 C 
BRANCH   9  14
ATOM     10  C   UNL     1       3.446   1.448  18.521  0.00  0.00    +0.000 C 
ATOM     11  C   UNL     1       3.408   2.938  18.342  0.00  0.00    +0.000 A 
ATOM     12  C   UNL     1       4.538   3.723  18.594  0.00  0.00    +0.000 A 
ATOM     13  C   UNL     1       4.505   5.105  18.389  0.00  0.00    +0.000 A 
ATOM     14  C   UNL     1       3.326   5.734  17.970  0.00  0.00    +0.000 A 
ATOM     15  C   UNL     1       2.190   4.949  17.736  0.00  0.00    +0.000 A 
ATOM     16  C   UNL     1       2.231   3.565  17.921  0.00  0.00    +0.000 A 
ENDBRANCH   9  14
ENDBRANCH   1   9
BRANCH   4  17
ATOM     17  S   UNL     1      -0.205  10.071  21.685  0.00  0.00    +0.000 S 
BRANCH  17  18
ATOM     18  C   UNL     1       0.045  11.792  21.135  0.00  0.00    +0.000 C 
BRANCH  18  19
ATOM     19  C   UNL     1      -0.680  12.055  19.821  0.00  0.00    +0.000 C 
ATOM     20  O   UNL     1      -0.413  13.058  19.165  0.00  0.00    +0.000 OA
ATOM     21  N   UNL     1      -1.642  11.108  19.505  0.00  0.00    +0.000 N 
ATOM     22  H   UNL     1      -1.895  10.436  20.228  0.00  0.00    +0.000 HD
BRANCH  21  23
ATOM     23  C   UNL     1      -2.509  11.161  18.391  0.00  0.00    +0.000 A 
ATOM     24  C   UNL     1      -3.806  11.676  18.450  0.00  0.00    +0.000 A 
ATOM     25  C   UNL     1      -4.651  11.616  17.337  0.00  0.00    +0.000 A 
ATOM     26  C   UNL     1      -4.204  11.048  16.152  0.00  0.00    +0.000 A 
ATOM     27  C   UNL     1      -2.897  10.583  16.072  0.00  0.00    +0.000 A 
ATOM     28  C   UNL     1      -2.046  10.650  17.180  0.00  0.00    +0.000 A 
ENDBRANCH  21  23
ENDBRANCH  18  19
ENDBRANCH  17  18
ENDBRANCH   4  17
TORSDOF 7
ENDMDL
