MODEL 1
REMARK VINA RESULT:      -7.1      0.000      0.000
REMARK  Name = 
REMARK  8 active torsions:
REMARK  status: ('A' for Active; 'I' for Inactive)
REMARK    1  A    between atoms: C_1  and  C_2
REMARK    2  A    between atoms: C_2  and  C_3
REMARK    3  A    between atoms: C_3  and  C_4
REMARK    4  A    between atoms: C_3  and  C_6
REMARK    5  A    between atoms: C_4  and  C_5
REMARK    6  A    between atoms: N_8  and  C_9
REMARK    7  A    between atoms: C_14  and  N_15
REMARK    8  A    between atoms: C_16  and  C_17
REMARK                            x       y       z     vdW  Elec       q    Type
REMARK                         _______ _______ _______ _____ _____    ______ ____
ROOT
ATOM      1  C   UNL     1       3.790   3.479  18.247  0.00  0.00    +0.000 A 
ATOM      2  C   UNL     1       3.543   2.154  18.660  0.00  0.00    +0.000 A 
ATOM      3  C   UNL     1       2.282   1.724  19.072  0.00  0.00    +0.000 A 
ATOM      4  C   UNL     1       1.229   2.621  19.096  0.00  0.00    +0.000 A 
ATOM      5  C   UNL     1       1.445   3.945  18.716  0.00  0.00    +0.000 A 
ATOM      6  C   UNL     1       2.712   4.405  18.296  0.00  0.00    +0.000 A 
ENDROOT
BRANCH   6   7
ATOM      7  N   UNL     1       2.855   5.754  17.850  0.00  0.00    +0.000 N 
ATOM      8  C   UNL     1       2.624   6.887  18.621  0.00  0.00    +0.000 C 
ATOM      9  C   UNL     1       2.582   8.177  17.842  0.00  0.00    +0.000 C 
ATOM     10  O   UNL     1       2.486   6.929  19.843  0.00  0.00    +0.000 OA
ATOM     11  H   UNL     1       3.126   5.892  16.887  0.00  0.00    +0.000 HD
ENDBRANCH   6   7
BRANCH   1  14
ATOM     12  C   UNL     1       5.869   4.839  18.514  0.00  0.00    +0.000 C 
ATOM     13  O   UNL     1       5.567   5.321  19.606  0.00  0.00    +0.000 OA
ATOM     14  N   UNL     1       5.118   3.859  17.864  0.00  0.00    +0.000 N 
ATOM     15  H   UNL     1       5.540   3.358  17.099  0.00  0.00    +0.000 HD
BRANCH  12  16
ATOM     16  C   UNL     1       7.140   5.330  17.791  0.00  0.00    +0.000 C 
BRANCH  16  18
ATOM     17  C   UNL     1       7.067   4.687  15.260  0.00  0.00    +0.000 C 
ATOM     18  C   UNL     1       6.759   5.719  16.334  0.00  0.00    +0.000 C 
ENDBRANCH  16  18
BRANCH  16  19
ATOM     19  C   UNL     1       7.870   6.448  18.550  0.00  0.00    +0.000 C 
ATOM     20  C   UNL     1       7.837   7.803  17.857  0.00  0.00    +0.000 C 
ENDBRANCH  16  19
ENDBRANCH  12  16
ENDBRANCH   1  14
TORSDOF 5
ENDMDL
MODEL 2
REMARK VINA RESULT:      -6.9      1.580      1.613
REMARK  Name = 
REMARK  8 active torsions:
REMARK  status: ('A' for Active; 'I' for Inactive)
REMARK    1  A    between atoms: C_1  and  C_2
REMARK    2  A    between atoms: C_2  and  C_3
REMARK    3  A    between atoms: C_3  and  C_4
REMARK    4  A    between atoms: C_3  and  C_6
REMARK    5  A    between atoms: C_4  and  C_5
REMARK    6  A    between atoms: N_8  and  C_9
REMARK    7  A    between atoms: C_14  and  N_15
REMARK    8  A    between atoms: C_16  and  C_17
REMARK                            x       y       z     vdW  Elec       q    Type
REMARK                         _______ _______ _______ _____ _____    ______ ____
ROOT
ATOM      1  C   UNL     1       3.891   3.937  19.596  0.00  0.00    +0.000 A 
ATOM      2  C   UNL     1       3.831   2.644  20.155  0.00  0.00    +0.000 A 
ATOM      3  C   UNL     1       2.953   2.318  21.188  0.00  0.00    +0.000 A 
ATOM      4  C   UNL     1       2.116   3.291  21.704  0.00  0.00    +0.000 A 
ATOM      5  C   UNL     1       2.167   4.586  21.189  0.00  0.00    +0.000 A 
ATOM      6  C   UNL     1       3.047   4.941  20.145  0.00  0.00    +0.000 A 
ENDROOT
BRANCH   6   7
ATOM      7  N   UNL     1       3.003   6.264  19.610  0.00  0.00    +0.000 N 
ATOM      8  C   UNL     1       2.579   6.603  18.330  0.00  0.00    +0.000 C 
ATOM      9  C   UNL     1       2.885   8.022  17.923  0.00  0.00    +0.000 C 
ATOM     10  O   UNL     1       1.971   5.880  17.541  0.00  0.00    +0.000 OA
ATOM     11  H   UNL     1       3.328   7.010  20.206  0.00  0.00    +0.000 HD
ENDBRANCH   6   7
BRANCH   1  14
ATOM     12  C   UNL     1       6.047   4.875  18.753  0.00  0.00    +0.000 C 
ATOM     13  O   UNL     1       6.529   5.105  19.863  0.00  0.00    +0.000 OA
ATOM     14  N   UNL     1       4.838   4.209  18.554  0.00  0.00    +0.000 N 
ATOM     15  H   UNL     1       4.626   3.861  17.634  0.00  0.00    +0.000 HD
BRANCH  12  16
ATOM     16  C   UNL     1       6.793   5.347  17.487  0.00  0.00    +0.000 C 
BRANCH  16  18
ATOM     17  C   UNL     1       6.948   4.792  14.939  0.00  0.00    +0.000 C 
ATOM     18  C   UNL     1       6.394   4.418  16.305  0.00  0.00    +0.000 C 
ENDBRANCH  16  18
BRANCH  16  19
ATOM     19  C   UNL     1       6.586   6.839  17.187  0.00  0.00    +0.000 C 
ATOM     20  C   UNL     1       7.725   7.737  17.648  0.00  0.00    +0.000 C 
ENDBRANCH  16  19
ENDBRANCH  12  16
ENDBRANCH   1  14
TORSDOF 5
ENDMDL
MODEL 3
REMARK VINA RESULT:      -6.8      0.871      1.831
REMARK  Name = 
REMARK  8 active torsions:
REMARK  status: ('A' for Active; 'I' for Inactive)
REMARK    1  A    between atoms: C_1  and  C_2
REMARK    2  A    between atoms: C_2  and  C_3
REMARK    3  A    between atoms: C_3  and  C_4
REMARK    4  A    between atoms: C_3  and  C_6
REMARK    5  A    between atoms: C_4  and  C_5
REMARK    6  A    between atoms: N_8  and  C_9
REMARK    7  A    between atoms: C_14  and  N_15
REMARK    8  A    between atoms: C_16  and  C_17
REMARK                            x       y       z     vdW  Elec       q    Type
REMARK                         _______ _______ _______ _____ _____    ______ ____
ROOT
ATOM      1  C   UNL     1       3.493   3.979  18.831  0.00  0.00    +0.000 A 
ATOM      2  C   UNL     1       3.457   2.748  19.517  0.00  0.00    +0.000 A 
ATOM      3  C   UNL     1       2.371   2.364  20.303  0.00  0.00    +0.000 A 
ATOM      4  C   UNL     1       1.290   3.216  20.436  0.00  0.00    +0.000 A 
ATOM      5  C   UNL     1       1.304   4.451  19.789  0.00  0.00    +0.000 A 
ATOM      6  C   UNL     1       2.391   4.863  18.989  0.00  0.00    +0.000 A 
ENDROOT
BRANCH   6   7
ATOM      7  N   UNL     1       2.317   6.108  18.293  0.00  0.00    +0.000 N 
ATOM      8  C   UNL     1       2.157   7.355  18.886  0.00  0.00    +0.000 C 
ATOM      9  C   UNL     1       1.837   8.470  17.923  0.00  0.00    +0.000 C 
ATOM     10  O   UNL     1       2.278   7.622  20.080  0.00  0.00    +0.000 OA
ATOM     11  H   UNL     1       2.364   6.073  17.285  0.00  0.00    +0.000 HD
ENDBRANCH   6   7
BRANCH   1  14
ATOM     12  C   UNL     1       5.673   5.158  18.520  0.00  0.00    +0.000 C 
ATOM     13  O   UNL     1       5.795   5.512  19.693  0.00  0.00    +0.000 OA
ATOM     14  N   UNL     1       4.655   4.321  18.064  0.00  0.00    +0.000 N 
ATOM     15  H   UNL     1       4.751   3.898  17.155  0.00  0.00    +0.000 HD
BRANCH  12  16
ATOM     16  C   UNL     1       6.682   5.659  17.465  0.00  0.00    +0.000 C 
BRANCH  16  18
ATOM     17  C   UNL     1       7.836   7.991  17.700  0.00  0.00    +0.000 C 
ATOM     18  C   UNL     1       7.739   6.551  18.178  0.00  0.00    +0.000 C 
ENDBRANCH  16  18
BRANCH  16  19
ATOM     19  C   UNL     1       7.302   4.522  16.638  0.00  0.00    +0.000 C 
ATOM     20  C   UNL     1       6.955   4.562  15.157  0.00  0.00    +0.000 C 
ENDBRANCH  16  19
ENDBRANCH  12  16
ENDBRANCH   1  14
TORSDOF 5
ENDMDL
MODEL 4
REMARK VINA RESULT:      -6.8      1.540      1.618
REMARK  Name = 
REMARK  8 active torsions:
REMARK  status: ('A' for Active; 'I' for Inactive)
REMARK    1  A    between atoms: C_1  and  C_2
REMARK    2  A    between atoms: C_2  and  C_3
REMARK    3  A    between atoms: C_3  and  C_4
REMARK    4  A    between atoms: C_3  and  C_6
REMARK    5  A    between atoms: C_4  and  C_5
REMARK    6  A    between atoms: N_8  and  C_9
REMARK    7  A    between atoms: C_14  and  N_15
REMARK    8  A    between atoms: C_16  and  C_17
REMARK                            x       y       z     vdW  Elec       q    Type
REMARK                         _______ _______ _______ _____ _____    ______ ____
ROOT
ATOM      1  C   UNL     1       3.657   4.110  19.485  0.00  0.00    +0.000 A 
ATOM      2  C   UNL     1       3.552   2.954  20.285  0.00  0.00    +0.000 A 
ATOM      3  C   UNL     1       2.397   2.646  21.003  0.00  0.00    +0.000 A 
ATOM      4  C   UNL     1       1.313   3.504  20.951  0.00  0.00    +0.000 A 
ATOM      5  C   UNL     1       1.393   4.668  20.188  0.00  0.00    +0.000 A 
ATOM      6  C   UNL     1       2.551   5.002  19.453  0.00  0.00    +0.000 A 
ENDROOT
BRANCH   6   7
ATOM      7  N   UNL     1       2.548   6.170  18.632  0.00  0.00    +0.000 N 
ATOM      8  C   UNL     1       2.214   7.452  19.055  0.00  0.00    +0.000 C 
ATOM      9  C   UNL     1       2.027   8.451  17.942  0.00  0.00    +0.000 C 
ATOM     10  O   UNL     1       2.092   7.833  20.218  0.00  0.00    +0.000 OA
ATOM     11  H   UNL     1       2.787   6.048  17.659  0.00  0.00    +0.000 HD
ENDBRANCH   6   7
BRANCH   1  14
ATOM     12  C   UNL     1       5.030   4.337  17.410  0.00  0.00    +0.000 C 
ATOM     13  O   UNL     1       4.083   4.286  16.624  0.00  0.00    +0.000 OA
ATOM     14  N   UNL     1       4.886   4.378  18.796  0.00  0.00    +0.000 N 
ATOM     15  H   UNL     1       5.680   4.646  19.354  0.00  0.00    +0.000 HD
BRANCH  12  16
ATOM     16  C   UNL     1       6.472   4.349  16.863  0.00  0.00    +0.000 C 
BRANCH  16  18
ATOM     17  C   UNL     1       6.406   3.997  14.275  0.00  0.00    +0.000 C 
ATOM     18  C   UNL     1       6.455   4.974  15.439  0.00  0.00    +0.000 C 
ENDBRANCH  16  18
BRANCH  16  19
ATOM     19  C   UNL     1       7.471   5.025  17.813  0.00  0.00    +0.000 C 
ATOM     20  C   UNL     1       7.462   6.546  17.756  0.00  0.00    +0.000 C 
ENDBRANCH  16  19
ENDBRANCH  12  16
ENDBRANCH   1  14
TORSDOF 5
ENDMDL
MODEL 5
REMARK VINA RESULT:      -6.8      2.596      4.688
REMARK  Name = 
REMARK  8 active torsions:
REMARK  status: ('A' for Active; 'I' for Inactive)
REMARK    1  A    between atoms: C_1  and  C_2
REMARK    2  A    between atoms: C_2  and  C_3
REMARK    3  A    between atoms: C_3  and  C_4
REMARK    4  A    between atoms: C_3  and  C_6
REMARK    5  A    between atoms: C_4  and  C_5
REMARK    6  A    between atoms: N_8  and  C_9
REMARK    7  A    between atoms: C_14  and  N_15
REMARK    8  A    between atoms: C_16  and  C_17
REMARK                            x       y       z     vdW  Elec       q    Type
REMARK                         _______ _______ _______ _____ _____    ______ ____
ROOT
ATOM      1  C   UNL     1       2.601   6.662  18.770  0.00  0.00    +0.000 A 
ATOM      2  C   UNL     1       2.301   7.889  18.144  0.00  0.00    +0.000 A 
ATOM      3  C   UNL     1       1.639   8.922  18.808  0.00  0.00    +0.000 A 
ATOM      4  C   UNL     1       1.243   8.746  20.121  0.00  0.00    +0.000 A 
ATOM      5  C   UNL     1       1.505   7.535  20.762  0.00  0.00    +0.000 A 
ATOM      6  C   UNL     1       2.172   6.475  20.112  0.00  0.00    +0.000 A 
ENDROOT
BRANCH   6   7
ATOM      7  N   UNL     1       2.475   5.285  20.842  0.00  0.00    +0.000 N 
ATOM      8  C   UNL     1       1.637   4.184  20.972  0.00  0.00    +0.000 C 
ATOM      9  C   UNL     1       2.076   3.182  22.010  0.00  0.00    +0.000 C 
ATOM     10  O   UNL     1       0.622   3.950  20.317  0.00  0.00    +0.000 OA
ATOM     11  H   UNL     1       3.363   5.255  21.320  0.00  0.00    +0.000 HD
ENDBRANCH   6   7
BRANCH   1  14
ATOM     12  C   UNL     1       2.606   4.530  17.467  0.00  0.00    +0.000 C 
ATOM     13  O   UNL     1       1.382   4.433  17.376  0.00  0.00    +0.000 OA
ATOM     14  N   UNL     1       3.259   5.633  18.018  0.00  0.00    +0.000 N 
ATOM     15  H   UNL     1       4.246   5.740  17.852  0.00  0.00    +0.000 HD
BRANCH  12  16
ATOM     16  C   UNL     1       3.501   3.379  16.961  0.00  0.00    +0.000 C 
BRANCH  16  18
ATOM     17  C   UNL     1       5.397   4.241  15.385  0.00  0.00    +0.000 C 
ATOM     18  C   UNL     1       4.952   3.915  16.802  0.00  0.00    +0.000 C 
ENDBRANCH  16  18
BRANCH  16  19
ATOM     19  C   UNL     1       3.409   2.118  17.832  0.00  0.00    +0.000 C 
ATOM     20  C   UNL     1       4.120   2.227  19.173  0.00  0.00    +0.000 C 
ENDBRANCH  16  19
ENDBRANCH  12  16
ENDBRANCH   1  14
TORSDOF 5
ENDMDL
MODEL 6
REMARK VINA RESULT:      -6.8      1.873      1.990
REMARK  Name = 
REMARK  8 active torsions:
REMARK  status: ('A' for Active; 'I' for Inactive)
REMARK    1  A    between atoms: C_1  and  C_2
REMARK    2  A    between atoms: C_2  and  C_3
REMARK    3  A    between atoms: C_3  and  C_4
REMARK    4  A    between atoms: C_3  and  C_6
REMARK    5  A    between atoms: C_4  and  C_5
REMARK    6  A    between atoms: N_8  and  C_9
REMARK    7  A    between atoms: C_14  and  N_15
REMARK    8  A    between atoms: C_16  and  C_17
REMARK                            x       y       z     vdW  Elec       q    Type
REMARK                         _______ _______ _______ _____ _____    ______ ____
ROOT
ATOM      1  C   UNL     1       3.980   4.013  19.638  0.00  0.00    +0.000 A 
ATOM      2  C   UNL     1       3.905   2.708  20.168  0.00  0.00    +0.000 A 
ATOM      3  C   UNL     1       2.946   2.341  21.111  0.00  0.00    +0.000 A 
ATOM      4  C   UNL     1       2.039   3.281  21.565  0.00  0.00    +0.000 A 
ATOM      5  C   UNL     1       2.102   4.587  21.078  0.00  0.00    +0.000 A 
ATOM      6  C   UNL     1       3.063   4.984  20.124  0.00  0.00    +0.000 A 
ENDROOT
BRANCH   6   7
ATOM      7  N   UNL     1       3.031   6.315  19.609  0.00  0.00    +0.000 N 
ATOM      8  C   UNL     1       2.473   6.697  18.394  0.00  0.00    +0.000 C 
ATOM      9  C   UNL     1       2.810   8.102  17.964  0.00  0.00    +0.000 C 
ATOM     10  O   UNL     1       1.732   6.022  17.682  0.00  0.00    +0.000 OA
ATOM     11  H   UNL     1       3.471   7.033  20.166  0.00  0.00    +0.000 HD
ENDBRANCH   6   7
BRANCH   1  14
ATOM     12  C   UNL     1       4.919   4.076  17.323  0.00  0.00    +0.000 C 
ATOM     13  O   UNL     1       3.873   3.763  16.753  0.00  0.00    +0.000 OA
ATOM     14  N   UNL     1       5.011   4.328  18.692  0.00  0.00    +0.000 N 
ATOM     15  H   UNL     1       5.833   4.793  19.041  0.00  0.00    +0.000 HD
BRANCH  12  16
ATOM     16  C   UNL     1       6.224   4.194  16.509  0.00  0.00    +0.000 C 
BRANCH  16  18
ATOM     17  C   UNL     1       6.070   3.968  13.911  0.00  0.00    +0.000 C 
ATOM     18  C   UNL     1       5.891   4.849  15.138  0.00  0.00    +0.000 C 
ENDBRANCH  16  18
BRANCH  16  19
ATOM     19  C   UNL     1       7.346   4.914  17.271  0.00  0.00    +0.000 C 
ATOM     20  C   UNL     1       7.307   6.432  17.163  0.00  0.00    +0.000 C 
ENDBRANCH  16  19
ENDBRANCH  12  16
ENDBRANCH   1  14
TORSDOF 5
ENDMDL
MODEL 7
REMARK VINA RESULT:      -6.8      1.891      3.791
REMARK  Name = 
REMARK  8 active torsions:
REMARK  status: ('A' for Active; 'I' for Inactive)
REMARK    1  A    between atoms: C_1  and  C_2
REMARK    2  A    between atoms: C_2  and  C_3
REMARK    3  A    between atoms: C_3  and  C_4
REMARK    4  A    between atoms: C_3  and  C_6
REMARK    5  A    between atoms: C_4  and  C_5
REMARK    6  A    between atoms: N_8  and  C_9
REMARK    7  A    between atoms: C_14  and  N_15
REMARK    8  A    between atoms: C_16  and  C_17
REMARK                            x       y       z     vdW  Elec       q    Type
REMARK                         _______ _______ _______ _____ _____    ______ ____
ROOT
ATOM      1  C   UNL     1       2.927   6.821  18.587  0.00  0.00    +0.000 A 
ATOM      2  C   UNL     1       2.704   8.018  17.876  0.00  0.00    +0.000 A 
ATOM      3  C   UNL     1       1.936   9.061  18.394  0.00  0.00    +0.000 A 
ATOM      4  C   UNL     1       1.354   8.925  19.641  0.00  0.00    +0.000 A 
ATOM      5  C   UNL     1       1.536   7.744  20.360  0.00  0.00    +0.000 A 
ATOM      6  C   UNL     1       2.308   6.675  19.858  0.00  0.00    +0.000 A 
ENDROOT
BRANCH   6   7
ATOM      7  N   UNL     1       2.518   5.520  20.671  0.00  0.00    +0.000 N 
ATOM      8  C   UNL     1       1.915   4.281  20.484  0.00  0.00    +0.000 C 
ATOM      9  C   UNL     1       2.093   3.318  21.630  0.00  0.00    +0.000 C 
ATOM     10  O   UNL     1       1.296   3.908  19.489  0.00  0.00    +0.000 OA
ATOM     11  H   UNL     1       3.141   5.621  21.459  0.00  0.00    +0.000 HD
ENDBRANCH   6   7
BRANCH   1  14
ATOM     12  C   UNL     1       4.914   5.309  18.491  0.00  0.00    +0.000 C 
ATOM     13  O   UNL     1       5.334   5.578  19.618  0.00  0.00    +0.000 OA
ATOM     14  N   UNL     1       3.704   5.779  17.981  0.00  0.00    +0.000 N 
ATOM     15  H   UNL     1       3.327   5.340  17.157  0.00  0.00    +0.000 HD
BRANCH  12  16
ATOM     16  C   UNL     1       5.756   4.412  17.560  0.00  0.00    +0.000 C 
BRANCH  16  18
ATOM     17  C   UNL     1       5.852   3.983  14.985  0.00  0.00    +0.000 C 
ATOM     18  C   UNL     1       4.996   4.250  16.213  0.00  0.00    +0.000 C 
ENDBRANCH  16  18
BRANCH  16  19
ATOM     19  C   UNL     1       7.200   4.908  17.389  0.00  0.00    +0.000 C 
ATOM     20  C   UNL     1       7.330   6.415  17.217  0.00  0.00    +0.000 C 
ENDBRANCH  16  19
ENDBRANCH  12  16
ENDBRANCH   1  14
TORSDOF 5
ENDMDL
MODEL 8
REMARK VINA RESULT:      -6.7      2.054      4.361
REMARK  Name = 
REMARK  8 active torsions:
REMARK  status: ('A' for Active; 'I' for Inactive)
REMARK    1  A    between atoms: C_1  and  C_2
REMARK    2  A    between atoms: C_2  and  C_3
REMARK    3  A    between atoms: C_3  and  C_4
REMARK    4  A    between atoms: C_3  and  C_6
REMARK    5  A    between atoms: C_4  and  C_5
REMARK    6  A    between atoms: N_8  and  C_9
REMARK    7  A    between atoms: C_14  and  N_15
REMARK    8  A    between atoms: C_16  and  C_17
REMARK                            x       y       z     vdW  Elec       q    Type
REMARK                         _______ _______ _______ _____ _____    ______ ____
ROOT
ATOM      1  C   UNL     1       2.480   6.943  18.784  0.00  0.00    +0.000 A 
ATOM      2  C   UNL     1       2.198   8.174  18.157  0.00  0.00    +0.000 A 
ATOM      3  C   UNL     1       1.549   9.217  18.818  0.00  0.00    +0.000 A 
ATOM      4  C   UNL     1       1.147   9.046  20.131  0.00  0.00    +0.000 A 
ATOM      5  C   UNL     1       1.390   7.832  20.772  0.00  0.00    +0.000 A 
ATOM      6  C   UNL     1       2.044   6.763  20.125  0.00  0.00    +0.000 A 
ENDROOT
BRANCH   6   7
ATOM      7  N   UNL     1       2.329   5.570  20.856  0.00  0.00    +0.000 N 
ATOM      8  C   UNL     1       1.709   4.340  20.666  0.00  0.00    +0.000 C 
ATOM      9  C   UNL     1       1.994   3.322  21.741  0.00  0.00    +0.000 C 
ATOM     10  O   UNL     1       0.998   4.014  19.717  0.00  0.00    +0.000 OA
ATOM     11  H   UNL     1       3.024   5.634  21.586  0.00  0.00    +0.000 HD
ENDBRANCH   6   7
BRANCH   1  14
ATOM     12  C   UNL     1       4.396   5.407  18.324  0.00  0.00    +0.000 C 
ATOM     13  O   UNL     1       5.002   5.642  19.370  0.00  0.00    +0.000 OA
ATOM     14  N   UNL     1       3.126   5.905  18.035  0.00  0.00    +0.000 N 
ATOM     15  H   UNL     1       2.608   5.492  17.276  0.00  0.00    +0.000 HD
BRANCH  12  16
ATOM     16  C   UNL     1       5.054   4.520  17.246  0.00  0.00    +0.000 C 
BRANCH  16  18
ATOM     17  C   UNL     1       3.709   2.381  17.909  0.00  0.00    +0.000 C 
ATOM     18  C   UNL     1       4.045   3.409  16.839  0.00  0.00    +0.000 C 
ENDBRANCH  16  18
BRANCH  16  19
ATOM     19  C   UNL     1       5.590   5.324  16.052  0.00  0.00    +0.000 C 
ATOM     20  C   UNL     1       5.463   4.616  14.711  0.00  0.00    +0.000 C 
ENDBRANCH  16  19
ENDBRANCH  12  16
ENDBRANCH   1  14
TORSDOF 5
ENDMDL
MODEL 9
REMARK VINA RESULT:      -6.5      2.040      5.369
REMARK  Name = 
REMARK  8 active torsions:
REMARK  status: ('A' for Active; 'I' for Inactive)
REMARK    1  A    between atoms: C_1  and  C_2
REMARK    2  A    between atoms: C_2  and  C_3
REMARK    3  A    between atoms: C_3  and  C_4
REMARK    4  A    between atoms: C_3  and  C_6
REMARK    5  A    between atoms: C_4  and  C_5
REMARK    6  A    between atoms: N_8  and  C_9
REMARK    7  A    between atoms: C_14  and  N_15
REMARK    8  A    between atoms: C_16  and  C_17
REMARK                            x       y       z     vdW  Elec       q    Type
REMARK                         _______ _______ _______ _____ _____    ______ ____
ROOT
ATOM      1  C   UNL     1       4.491   5.325  16.938  0.00  0.00    +0.000 A 
ATOM      2  C   UNL     1       5.080   6.279  16.083  0.00  0.00    +0.000 A 
ATOM      3  C   UNL     1       5.977   5.925  15.076  0.00  0.00    +0.000 A 
ATOM      4  C   UNL     1       6.323   4.596  14.907  0.00  0.00    +0.000 A 
ATOM      5  C   UNL     1       5.776   3.630  15.751  0.00  0.00    +0.000 A 
ATOM      6  C   UNL     1       4.867   3.963  16.778  0.00  0.00    +0.000 A 
ENDROOT
BRANCH   6   7
ATOM      7  N   UNL     1       4.284   2.923  17.563  0.00  0.00    +0.000 N 
ATOM      8  C   UNL     1       2.927   2.631  17.635  0.00  0.00    +0.000 C 
ATOM      9  C   UNL     1       2.549   1.672  18.736  0.00  0.00    +0.000 C 
ATOM     10  O   UNL     1       2.044   3.049  16.887  0.00  0.00    +0.000 OA
ATOM     11  H   UNL     1       4.911   2.370  18.129  0.00  0.00    +0.000 HD
ENDBRANCH   6   7
BRANCH   1  14
ATOM     12  C   UNL     1       3.863   5.644  19.335  0.00  0.00    +0.000 C 
ATOM     13  O   UNL     1       4.968   5.355  19.796  0.00  0.00    +0.000 OA
ATOM     14  N   UNL     1       3.598   5.764  17.971  0.00  0.00    +0.000 N 
ATOM     15  H   UNL     1       2.747   6.218  17.684  0.00  0.00    +0.000 HD
BRANCH  12  16
ATOM     16  C   UNL     1       2.678   5.883  20.294  0.00  0.00    +0.000 C 
BRANCH  16  18
ATOM     17  C   UNL     1       1.344   8.005  21.029  0.00  0.00    +0.000 C 
ATOM     18  C   UNL     1       1.985   7.218  19.897  0.00  0.00    +0.000 C 
ENDBRANCH  16  18
BRANCH  16  19
ATOM     19  C   UNL     1       1.711   4.692  20.364  0.00  0.00    +0.000 C 
ATOM     20  C   UNL     1       1.995   3.718  21.499  0.00  0.00    +0.000 C 
ENDBRANCH  16  19
ENDBRANCH  12  16
ENDBRANCH   1  14
TORSDOF 5
ENDMDL
