MODEL 1
REMARK VINA RESULT:      -8.7      0.000      0.000
REMARK  Name = 
REMARK  6 active torsions:
REMARK  status: ('A' for Active; 'I' for Inactive)
REMARK    1  A    between atoms: C_1  and  C_2
REMARK    2  A    between atoms: C_9  and  C_10
REMARK    3  A    between atoms: C_13  and  N_14
REMARK    4  A    between atoms: C_15  and  O_16
REMARK    5  A    between atoms: O_16  and  C_17
REMARK    6  A    between atoms: C_22  and  C_23
REMARK                            x       y       z     vdW  Elec       q    Type
REMARK                         _______ _______ _______ _____ _____    ______ ____
ROOT
ATOM      1  C   UNL     1      -0.185   8.446  21.811  0.00  0.00    +0.000 C 
ATOM      2  C   UNL     1       0.283   9.296  20.689  0.00  0.00    +0.000 A 
ATOM      3  N   UNL     1      -0.128  10.541  20.477  0.00  0.00    +0.000 NA
ATOM      4  C   UNL     1       0.588  11.000  19.418  0.00  0.00    +0.000 A 
ATOM      5  C   UNL     1       1.460  10.040  18.965  0.00  0.00    +0.000 A 
ATOM      6  N   UNL     1       1.238   8.918  19.743  0.00  0.00    +0.000 N 
ATOM      7  C   UNL     1       1.848   7.636  19.592  0.00  0.00    +0.000 A 
ATOM      8  C   UNL     1       2.831   7.458  18.644  0.00  0.00    +0.000 A 
ATOM      9  C   UNL     1       3.359   6.190  18.523  0.00  0.00    +0.000 A 
ATOM     10  N   UNL     1       2.920   5.163  19.277  0.00  0.00    +0.000 NA
ATOM     11  C   UNL     1       1.960   5.405  20.187  0.00  0.00    +0.000 A 
ATOM     12  N   UNL     1       1.424   6.623  20.375  0.00  0.00    +0.000 NA
ENDROOT
BRANCH   9  13
ATOM     13  C   UNL     1       4.444   5.875  17.586  0.00  0.00    +0.000 A 
ATOM     14  C   UNL     1       4.373   4.794  16.714  0.00  0.00    +0.000 A 
ATOM     15  N   UNL     1       5.364   4.411  15.869  0.00  0.00    +0.000 NA
ATOM     16  C   UNL     1       6.494   5.141  15.857  0.00  0.00    +0.000 A 
ATOM     17  C   UNL     1       6.655   6.285  16.639  0.00  0.00    +0.000 A 
ATOM     18  C   UNL     1       5.626   6.620  17.525  0.00  0.00    +0.000 A 
BRANCH  16  19
ATOM     19  N   UNL     1       7.490   4.627  15.026  0.00  0.00    +0.000 N 
ATOM     20  H   UNL     1       7.333   3.618  15.029  0.00  0.00    +0.000 HD
ATOM     21  H   UNL     1       7.371   4.977  14.080  0.00  0.00    +0.000 HD
ENDBRANCH  16  19
BRANCH  17  22
ATOM     22  O   UNL     1       7.723   7.130  16.717  0.00  0.00    +0.000 OA
BRANCH  22  23
ATOM     23  C   UNL     1       7.839   7.953  17.863  0.00  0.00    +0.000 C 
ATOM     24  F   UNL     1       8.631   7.370  18.801  0.00  0.00    +0.000 F 
ATOM     25  F   UNL     1       8.501   9.073  17.467  0.00  0.00    +0.000 F 
ENDBRANCH  22  23
ENDBRANCH  17  22
ENDBRANCH   9  13
BRANCH  11  26
ATOM     26  C   UNL     1       1.460   4.257  21.026  0.00  0.00    +0.000 C 
ATOM     27  C   UNL     1       1.405   2.857  20.458  0.00  0.00    +0.000 C 
ATOM     28  C   UNL     1       2.433   3.197  21.495  0.00  0.00    +0.000 C 
ENDBRANCH  11  26
TORSDOF 5
ENDMDL
MODEL 2
REMARK VINA RESULT:      -8.4      3.765      7.040
REMARK  Name = 
REMARK  6 active torsions:
REMARK  status: ('A' for Active; 'I' for Inactive)
REMARK    1  A    between atoms: C_1  and  C_2
REMARK    2  A    between atoms: C_9  and  C_10
REMARK    3  A    between atoms: C_13  and  N_14
REMARK    4  A    between atoms: C_15  and  O_16
REMARK    5  A    between atoms: O_16  and  C_17
REMARK    6  A    between atoms: C_22  and  C_23
REMARK                            x       y       z     vdW  Elec       q    Type
REMARK                         _______ _______ _______ _____ _____    ______ ____
ROOT
ATOM      1  C   UNL     1       4.252   2.896  17.480  0.00  0.00    +0.000 C 
ATOM      2  C   UNL     1       4.738   4.149  16.852  0.00  0.00    +0.000 A 
ATOM      3  N   UNL     1       5.643   4.192  15.881  0.00  0.00    +0.000 NA
ATOM      4  C   UNL     1       5.752   5.499  15.525  0.00  0.00    +0.000 A 
ATOM      5  C   UNL     1       4.905   6.281  16.270  0.00  0.00    +0.000 A 
ATOM      6  N   UNL     1       4.281   5.431  17.166  0.00  0.00    +0.000 N 
ATOM      7  C   UNL     1       3.375   5.798  18.206  0.00  0.00    +0.000 A 
ATOM      8  C   UNL     1       2.975   7.110  18.328  0.00  0.00    +0.000 A 
ATOM      9  C   UNL     1       2.124   7.408  19.372  0.00  0.00    +0.000 A 
ATOM     10  N   UNL     1       1.721   6.468  20.250  0.00  0.00    +0.000 NA
ATOM     11  C   UNL     1       2.146   5.206  20.072  0.00  0.00    +0.000 A 
ATOM     12  N   UNL     1       2.951   4.843  19.059  0.00  0.00    +0.000 NA
ENDROOT
BRANCH   9  13
ATOM     13  C   UNL     1       1.584   8.756  19.588  0.00  0.00    +0.000 A 
ATOM     14  C   UNL     1       1.459   9.673  18.550  0.00  0.00    +0.000 A 
ATOM     15  N   UNL     1       1.028  10.953  18.692  0.00  0.00    +0.000 NA
ATOM     16  C   UNL     1       0.676  11.362  19.924  0.00  0.00    +0.000 A 
ATOM     17  C   UNL     1       0.696  10.512  21.030  0.00  0.00    +0.000 A 
ATOM     18  C   UNL     1       1.185   9.215  20.848  0.00  0.00    +0.000 A 
BRANCH  16  19
ATOM     19  N   UNL     1       0.329  12.712  19.993  0.00  0.00    +0.000 N 
ATOM     20  H   UNL     1       0.709  13.030  20.886  0.00  0.00    +0.000 HD
ATOM     21  H   UNL     1       0.777  13.227  19.241  0.00  0.00    +0.000 HD
ENDBRANCH  16  19
BRANCH  17  22
ATOM     22  O   UNL     1       0.351  10.775  22.323  0.00  0.00    +0.000 OA
BRANCH  22  23
ATOM     23  C   UNL     1      -0.466   9.837  22.999  0.00  0.00    +0.000 C 
ATOM     24  F   UNL     1       0.170   9.341  24.093  0.00  0.00    +0.000 F 
ATOM     25  F   UNL     1      -1.534  10.529  23.477  0.00  0.00    +0.000 F 
ENDBRANCH  22  23
ENDBRANCH  17  22
ENDBRANCH   9  13
BRANCH  11  26
ATOM     26  C   UNL     1       1.704   4.153  21.057  0.00  0.00    +0.000 C 
ATOM     27  C   UNL     1       1.194   2.815  20.574  0.00  0.00    +0.000 C 
ATOM     28  C   UNL     1       2.536   2.902  21.235  0.00  0.00    +0.000 C 
ENDBRANCH  11  26
TORSDOF 5
ENDMDL
MODEL 3
REMARK VINA RESULT:      -8.3      2.890      3.370
REMARK  Name = 
REMARK  6 active torsions:
REMARK  status: ('A' for Active; 'I' for Inactive)
REMARK    1  A    between atoms: C_1  and  C_2
REMARK    2  A    between atoms: C_9  and  C_10
REMARK    3  A    between atoms: C_13  and  N_14
REMARK    4  A    between atoms: C_15  and  O_16
REMARK    5  A    between atoms: O_16  and  C_17
REMARK    6  A    between atoms: C_22  and  C_23
REMARK                            x       y       z     vdW  Elec       q    Type
REMARK                         _______ _______ _______ _____ _____    ______ ____
ROOT
ATOM      1  C   UNL     1       0.759   7.532  21.230  0.00  0.00    +0.000 C 
ATOM      2  C   UNL     1       1.057   8.415  20.075  0.00  0.00    +0.000 A 
ATOM      3  N   UNL     1       0.509   9.611  19.893  0.00  0.00    +0.000 NA
ATOM      4  C   UNL     1       1.096  10.129  18.783  0.00  0.00    +0.000 A 
ATOM      5  C   UNL     1       2.025   9.257  18.268  0.00  0.00    +0.000 A 
ATOM      6  N   UNL     1       1.973   8.125  19.063  0.00  0.00    +0.000 N 
ATOM      7  C   UNL     1       2.696   6.909  18.868  0.00  0.00    +0.000 A 
ATOM      8  C   UNL     1       3.620   6.823  17.851  0.00  0.00    +0.000 A 
ATOM      9  C   UNL     1       4.263   5.612  17.694  0.00  0.00    +0.000 A 
ATOM     10  N   UNL     1       3.984   4.553  18.479  0.00  0.00    +0.000 NA
ATOM     11  C   UNL     1       3.074   4.706  19.457  0.00  0.00    +0.000 A 
ATOM     12  N   UNL     1       2.434   5.866  19.682  0.00  0.00    +0.000 NA
ENDROOT
BRANCH   9  13
ATOM     13  C   UNL     1       5.302   5.399  16.680  0.00  0.00    +0.000 A 
ATOM     14  C   UNL     1       6.488   6.125  16.678  0.00  0.00    +0.000 A 
ATOM     15  N   UNL     1       7.461   6.022  15.736  0.00  0.00    +0.000 NA
ATOM     16  C   UNL     1       7.277   5.137  14.740  0.00  0.00    +0.000 A 
ATOM     17  C   UNL     1       6.159   4.306  14.673  0.00  0.00    +0.000 A 
ATOM     18  C   UNL     1       5.162   4.474  15.640  0.00  0.00    +0.000 A 
BRANCH  16  19
ATOM     19  N   UNL     1       8.282   5.159  13.772  0.00  0.00    +0.000 N 
ATOM     20  H   UNL     1       9.103   4.778  14.245  0.00  0.00    +0.000 HD
ATOM     21  H   UNL     1       8.035   4.551  12.997  0.00  0.00    +0.000 HD
ENDBRANCH  16  19
BRANCH  17  22
ATOM     22  O   UNL     1       5.848   3.356  13.745  0.00  0.00    +0.000 OA
BRANCH  22  23
ATOM     23  C   UNL     1       5.456   3.787  12.455  0.00  0.00    +0.000 C 
ATOM     24  F   UNL     1       6.541   3.990  11.662  0.00  0.00    +0.000 F 
ATOM     25  F   UNL     1       4.777   2.752  11.892  0.00  0.00    +0.000 F 
ENDBRANCH  22  23
ENDBRANCH  17  22
ENDBRANCH   9  13
BRANCH  11  26
ATOM     26  C   UNL     1       2.754   3.521  20.332  0.00  0.00    +0.000 C 
ATOM     27  C   UNL     1       1.907   3.689  21.573  0.00  0.00    +0.000 C 
ATOM     28  C   UNL     1       1.338   2.988  20.377  0.00  0.00    +0.000 C 
ENDBRANCH  11  26
TORSDOF 5
ENDMDL
MODEL 4
REMARK VINA RESULT:      -8.2      3.769      7.079
REMARK  Name = 
REMARK  6 active torsions:
REMARK  status: ('A' for Active; 'I' for Inactive)
REMARK    1  A    between atoms: C_1  and  C_2
REMARK    2  A    between atoms: C_9  and  C_10
REMARK    3  A    between atoms: C_13  and  N_14
REMARK    4  A    between atoms: C_15  and  O_16
REMARK    5  A    between atoms: O_16  and  C_17
REMARK    6  A    between atoms: C_22  and  C_23
REMARK                            x       y       z     vdW  Elec       q    Type
REMARK                         _______ _______ _______ _____ _____    ______ ____
ROOT
ATOM      1  C   UNL     1       3.997   3.150  17.398  0.00  0.00    +0.000 C 
ATOM      2  C   UNL     1       4.475   4.488  16.971  0.00  0.00    +0.000 A 
ATOM      3  N   UNL     1       5.364   4.687  16.004  0.00  0.00    +0.000 NA
ATOM      4  C   UNL     1       5.470   6.034  15.862  0.00  0.00    +0.000 A 
ATOM      5  C   UNL     1       4.638   6.686  16.739  0.00  0.00    +0.000 A 
ATOM      6  N   UNL     1       4.028   5.702  17.496  0.00  0.00    +0.000 N 
ATOM      7  C   UNL     1       3.141   5.896  18.599  0.00  0.00    +0.000 A 
ATOM      8  C   UNL     1       2.746   7.170  18.937  0.00  0.00    +0.000 A 
ATOM      9  C   UNL     1       1.915   7.296  20.031  0.00  0.00    +0.000 A 
ATOM     10  N   UNL     1       1.524   6.227  20.752  0.00  0.00    +0.000 NA
ATOM     11  C   UNL     1       1.943   5.010  20.365  0.00  0.00    +0.000 A 
ATOM     12  N   UNL     1       2.729   4.816  19.294  0.00  0.00    +0.000 NA
ENDROOT
BRANCH   9  13
ATOM     13  C   UNL     1       1.383   8.591  20.471  0.00  0.00    +0.000 A 
ATOM     14  C   UNL     1       1.279   8.926  21.816  0.00  0.00    +0.000 A 
ATOM     15  N   UNL     1       0.739  10.078  22.291  0.00  0.00    +0.000 NA
ATOM     16  C   UNL     1       0.288  10.974  21.395  0.00  0.00    +0.000 A 
ATOM     17  C   UNL     1       0.399  10.778  20.019  0.00  0.00    +0.000 A 
ATOM     18  C   UNL     1       0.923   9.561  19.573  0.00  0.00    +0.000 A 
BRANCH  16  19
ATOM     19  N   UNL     1      -0.328  12.087  21.970  0.00  0.00    +0.000 N 
ATOM     20  H   UNL     1      -0.045  12.060  22.950  0.00  0.00    +0.000 HD
ATOM     21  H   UNL     1       0.026  12.940  21.547  0.00  0.00    +0.000 HD
ENDBRANCH  16  19
BRANCH  17  22
ATOM     22  O   UNL     1       0.012  11.598  18.999  0.00  0.00    +0.000 OA
BRANCH  22  23
ATOM     23  C   UNL     1      -1.161  11.259  18.281  0.00  0.00    +0.000 C 
ATOM     24  F   UNL     1      -2.207  11.061  19.126  0.00  0.00    +0.000 F 
ATOM     25  F   UNL     1      -1.488  12.352  17.540  0.00  0.00    +0.000 F 
ENDBRANCH  22  23
ENDBRANCH  17  22
ENDBRANCH   9  13
BRANCH  11  26
ATOM     26  C   UNL     1       1.515   3.812  21.176  0.00  0.00    +0.000 C 
ATOM     27  C   UNL     1       1.525   2.429  20.566  0.00  0.00    +0.000 C 
ATOM     28  C   UNL     1       2.549   2.791  21.599  0.00  0.00    +0.000 C 
ENDBRANCH  11  26
TORSDOF 5
ENDMDL
MODEL 5
REMARK VINA RESULT:      -7.8      3.376      4.115
REMARK  Name = 
REMARK  6 active torsions:
REMARK  status: ('A' for Active; 'I' for Inactive)
REMARK    1  A    between atoms: C_1  and  C_2
REMARK    2  A    between atoms: C_9  and  C_10
REMARK    3  A    between atoms: C_13  and  N_14
REMARK    4  A    between atoms: C_15  and  O_16
REMARK    5  A    between atoms: O_16  and  C_17
REMARK    6  A    between atoms: C_22  and  C_23
REMARK                            x       y       z     vdW  Elec       q    Type
REMARK                         _______ _______ _______ _____ _____    ______ ____
ROOT
ATOM      1  C   UNL     1       1.514   6.719  20.887  0.00  0.00    +0.000 C 
ATOM      2  C   UNL     1       1.733   7.694  19.791  0.00  0.00    +0.000 A 
ATOM      3  N   UNL     1       1.222   8.920  19.773  0.00  0.00    +0.000 NA
ATOM      4  C   UNL     1       1.718   9.519  18.659  0.00  0.00    +0.000 A 
ATOM      5  C   UNL     1       2.553   8.669  17.977  0.00  0.00    +0.000 A 
ATOM      6  N   UNL     1       2.532   7.470  18.668  0.00  0.00    +0.000 N 
ATOM      7  C   UNL     1       3.180   6.254  18.294  0.00  0.00    +0.000 A 
ATOM      8  C   UNL     1       3.994   6.232  17.184  0.00  0.00    +0.000 A 
ATOM      9  C   UNL     1       4.566   5.020  16.854  0.00  0.00    +0.000 A 
ATOM     10  N   UNL     1       4.322   3.903  17.567  0.00  0.00    +0.000 NA
ATOM     11  C   UNL     1       3.520   3.995  18.642  0.00  0.00    +0.000 A 
ATOM     12  N   UNL     1       2.955   5.149  19.033  0.00  0.00    +0.000 NA
ENDROOT
BRANCH   9  13
ATOM     13  C   UNL     1       5.491   4.867  15.725  0.00  0.00    +0.000 A 
ATOM     14  C   UNL     1       6.683   5.580  15.648  0.00  0.00    +0.000 A 
ATOM     15  N   UNL     1       7.550   5.533  14.604  0.00  0.00    +0.000 NA
ATOM     16  C   UNL     1       7.248   4.722  13.575  0.00  0.00    +0.000 A 
ATOM     17  C   UNL     1       6.115   3.909  13.569  0.00  0.00    +0.000 A 
ATOM     18  C   UNL     1       5.227   4.019  14.644  0.00  0.00    +0.000 A 
BRANCH  16  19
ATOM     19  N   UNL     1       8.147   4.801  12.511  0.00  0.00    +0.000 N 
ATOM     20  H   UNL     1       8.832   4.068  12.697  0.00  0.00    +0.000 HD
ATOM     21  H   UNL     1       7.673   4.596  11.636  0.00  0.00    +0.000 HD
ENDBRANCH  16  19
BRANCH  17  22
ATOM     22  O   UNL     1       5.692   3.029  12.617  0.00  0.00    +0.000 OA
BRANCH  22  23
ATOM     23  C   UNL     1       4.489   3.319  11.928  0.00  0.00    +0.000 C 
ATOM     24  F   UNL     1       4.656   4.368  11.081  0.00  0.00    +0.000 F 
ATOM     25  F   UNL     1       4.230   2.244  11.136  0.00  0.00    +0.000 F 
ENDBRANCH  22  23
ENDBRANCH  17  22
ENDBRANCH   9  13
BRANCH  11  26
ATOM     26  C   UNL     1       3.238   2.744  19.436  0.00  0.00    +0.000 C 
ATOM     27  C   UNL     1       2.100   2.707  20.430  0.00  0.00    +0.000 C 
ATOM     28  C   UNL     1       1.988   1.943  19.145  0.00  0.00    +0.000 C 
ENDBRANCH  11  26
TORSDOF 5
ENDMDL
MODEL 6
REMARK VINA RESULT:      -7.7      3.726      7.121
REMARK  Name = 
REMARK  6 active torsions:
REMARK  status: ('A' for Active; 'I' for Inactive)
REMARK    1  A    between atoms: C_1  and  C_2
REMARK    2  A    between atoms: C_9  and  C_10
REMARK    3  A    between atoms: C_13  and  N_14
REMARK    4  A    between atoms: C_15  and  O_16
REMARK    5  A    between atoms: O_16  and  C_17
REMARK    6  A    between atoms: C_22  and  C_23
REMARK                            x       y       z     vdW  Elec       q    Type
REMARK                         _______ _______ _______ _____ _____    ______ ____
ROOT
ATOM      1  C   UNL     1       5.434   3.625  16.123  0.00  0.00    +0.000 C 
ATOM      2  C   UNL     1       6.107   4.881  16.537  0.00  0.00    +0.000 A 
ATOM      3  N   UNL     1       7.384   5.154  16.299  0.00  0.00    +0.000 NA
ATOM      4  C   UNL     1       7.591   6.418  16.753  0.00  0.00    +0.000 A 
ATOM      5  C   UNL     1       6.434   6.946  17.272  0.00  0.00    +0.000 A 
ATOM      6  N   UNL     1       5.481   5.947  17.186  0.00  0.00    +0.000 N 
ATOM      7  C   UNL     1       4.142   5.997  17.680  0.00  0.00    +0.000 A 
ATOM      8  C   UNL     1       3.664   7.163  18.234  0.00  0.00    +0.000 A 
ATOM      9  C   UNL     1       2.374   7.139  18.723  0.00  0.00    +0.000 A 
ATOM     10  N   UNL     1       1.622   6.022  18.685  0.00  0.00    +0.000 NA
ATOM     11  C   UNL     1       2.148   4.917  18.128  0.00  0.00    +0.000 A 
ATOM     12  N   UNL     1       3.386   4.882  17.608  0.00  0.00    +0.000 NA
ENDROOT
BRANCH   9  13
ATOM     13  C   UNL     1       1.727   8.325  19.294  0.00  0.00    +0.000 A 
ATOM     14  C   UNL     1       1.182   9.324  18.494  0.00  0.00    +0.000 A 
ATOM     15  N   UNL     1       0.627  10.474  18.957  0.00  0.00    +0.000 NA
ATOM     16  C   UNL     1       0.579  10.655  20.289  0.00  0.00    +0.000 A 
ATOM     17  C   UNL     1       1.034   9.694  21.192  0.00  0.00    +0.000 A 
ATOM     18  C   UNL     1       1.636   8.543  20.674  0.00  0.00    +0.000 A 
BRANCH  16  19
ATOM     19  N   UNL     1       0.074  11.897  20.673  0.00  0.00    +0.000 N 
ATOM     20  H   UNL     1      -0.552  12.167  19.912  0.00  0.00    +0.000 HD
ATOM     21  H   UNL     1      -0.466  11.806  21.528  0.00  0.00    +0.000 HD
ENDBRANCH  16  19
BRANCH  17  22
ATOM     22  O   UNL     1       1.032   9.726  22.556  0.00  0.00    +0.000 OA
BRANCH  22  23
ATOM     23  C   UNL     1      -0.171   9.401  23.229  0.00  0.00    +0.000 C 
ATOM     24  F   UNL     1      -0.944  10.505  23.400  0.00  0.00    +0.000 F 
ATOM     25  F   UNL     1      -0.871   8.586  22.395  0.00  0.00    +0.000 F 
ENDBRANCH  22  23
ENDBRANCH  17  22
ENDBRANCH   9  13
BRANCH  11  26
ATOM     26  C   UNL     1       1.312   3.663  18.092  0.00  0.00    +0.000 C 
ATOM     27  C   UNL     1       1.961   2.304  18.216  0.00  0.00    +0.000 C 
ATOM     28  C   UNL     1       1.147   2.842  19.353  0.00  0.00    +0.000 C 
ENDBRANCH  11  26
TORSDOF 5
ENDMDL
MODEL 7
REMARK VINA RESULT:      -7.7      1.081      1.211
REMARK  Name = 
REMARK  6 active torsions:
REMARK  status: ('A' for Active; 'I' for Inactive)
REMARK    1  A    between atoms: C_1  and  C_2
REMARK    2  A    between atoms: C_9  and  C_10
REMARK    3  A    between atoms: C_13  and  N_14
REMARK    4  A    between atoms: C_15  and  O_16
REMARK    5  A    between atoms: O_16  and  C_17
REMARK    6  A    between atoms: C_22  and  C_23
REMARK                            x       y       z     vdW  Elec       q    Type
REMARK                         _______ _______ _______ _____ _____    ______ ____
ROOT
ATOM      1  C   UNL     1      -0.419   8.508  21.748  0.00  0.00    +0.000 C 
ATOM      2  C   UNL     1       0.104   9.414  20.697  0.00  0.00    +0.000 A 
ATOM      3  N   UNL     1      -0.313  10.662  20.515  0.00  0.00    +0.000 NA
ATOM      4  C   UNL     1       0.460  11.177  19.524  0.00  0.00    +0.000 A 
ATOM      5  C   UNL     1       1.375  10.252  19.086  0.00  0.00    +0.000 A 
ATOM      6  N   UNL     1       1.124   9.092  19.798  0.00  0.00    +0.000 N 
ATOM      7  C   UNL     1       1.764   7.827  19.629  0.00  0.00    +0.000 A 
ATOM      8  C   UNL     1       2.807   7.707  18.739  0.00  0.00    +0.000 A 
ATOM      9  C   UNL     1       3.364   6.453  18.596  0.00  0.00    +0.000 A 
ATOM     10  N   UNL     1       2.896   5.387  19.275  0.00  0.00    +0.000 NA
ATOM     11  C   UNL     1       1.877   5.574  20.131  0.00  0.00    +0.000 A 
ATOM     12  N   UNL     1       1.309   6.774  20.338  0.00  0.00    +0.000 NA
ENDROOT
BRANCH   9  13
ATOM     13  C   UNL     1       4.511   6.196  17.717  0.00  0.00    +0.000 A 
ATOM     14  C   UNL     1       4.431   6.353  16.338  0.00  0.00    +0.000 A 
ATOM     15  N   UNL     1       5.432   6.072  15.465  0.00  0.00    +0.000 NA
ATOM     16  C   UNL     1       6.598   5.629  15.970  0.00  0.00    +0.000 A 
ATOM     17  C   UNL     1       6.818   5.496  17.341  0.00  0.00    +0.000 A 
ATOM     18  C   UNL     1       5.747   5.755  18.202  0.00  0.00    +0.000 A 
BRANCH  16  19
ATOM     19  N   UNL     1       7.539   5.284  14.999  0.00  0.00    +0.000 N 
ATOM     20  H   UNL     1       7.974   6.169  14.736  0.00  0.00    +0.000 HD
ATOM     21  H   UNL     1       8.246   4.674  15.399  0.00  0.00    +0.000 HD
ENDBRANCH  16  19
BRANCH  17  22
ATOM     22  O   UNL     1       7.941   5.083  17.995  0.00  0.00    +0.000 OA
BRANCH  22  23
ATOM     23  C   UNL     1       8.183   5.596  19.292  0.00  0.00    +0.000 C 
ATOM     24  F   UNL     1       9.206   4.933  19.893  0.00  0.00    +0.000 F 
ATOM     25  F   UNL     1       8.620   6.874  19.126  0.00  0.00    +0.000 F 
ENDBRANCH  22  23
ENDBRANCH  17  22
ENDBRANCH   9  13
BRANCH  11  26
ATOM     26  C   UNL     1       1.345   4.382  20.886  0.00  0.00    +0.000 C 
ATOM     27  C   UNL     1       1.459   2.992  20.304  0.00  0.00    +0.000 C 
ATOM     28  C   UNL     1       2.314   3.379  21.473  0.00  0.00    +0.000 C 
ENDBRANCH  11  26
TORSDOF 5
ENDMDL
MODEL 8
REMARK VINA RESULT:      -7.6      3.993      7.362
REMARK  Name = 
REMARK  6 active torsions:
REMARK  status: ('A' for Active; 'I' for Inactive)
REMARK    1  A    between atoms: C_1  and  C_2
REMARK    2  A    between atoms: C_9  and  C_10
REMARK    3  A    between atoms: C_13  and  N_14
REMARK    4  A    between atoms: C_15  and  O_16
REMARK    5  A    between atoms: O_16  and  C_17
REMARK    6  A    between atoms: C_22  and  C_23
REMARK                            x       y       z     vdW  Elec       q    Type
REMARK                         _______ _______ _______ _____ _____    ______ ____
ROOT
ATOM      1  C   UNL     1       4.683   3.060  19.235  0.00  0.00    +0.000 C 
ATOM      2  C   UNL     1       3.489   3.282  20.087  0.00  0.00    +0.000 A 
ATOM      3  N   UNL     1       2.989   2.376  20.918  0.00  0.00    +0.000 NA
ATOM      4  C   UNL     1       1.964   2.985  21.569  0.00  0.00    +0.000 A 
ATOM      5  C   UNL     1       1.823   4.286  21.150  0.00  0.00    +0.000 A 
ATOM      6  N   UNL     1       2.768   4.476  20.157  0.00  0.00    +0.000 N 
ATOM      7  C   UNL     1       2.949   5.647  19.360  0.00  0.00    +0.000 A 
ATOM      8  C   UNL     1       2.190   6.767  19.615  0.00  0.00    +0.000 A 
ATOM      9  C   UNL     1       2.387   7.855  18.790  0.00  0.00    +0.000 A 
ATOM     10  N   UNL     1       3.261   7.820  17.766  0.00  0.00    +0.000 NA
ATOM     11  C   UNL     1       3.973   6.696  17.573  0.00  0.00    +0.000 A 
ATOM     12  N   UNL     1       3.850   5.612  18.357  0.00  0.00    +0.000 NA
ENDROOT
BRANCH   9  13
ATOM     13  C   UNL     1       1.679   9.127  18.982  0.00  0.00    +0.000 A 
ATOM     14  C   UNL     1       1.949  10.244  18.200  0.00  0.00    +0.000 A 
ATOM     15  N   UNL     1       1.378  11.465  18.366  0.00  0.00    +0.000 NA
ATOM     16  C   UNL     1       0.467  11.602  19.346  0.00  0.00    +0.000 A 
ATOM     17  C   UNL     1       0.067  10.536  20.151  0.00  0.00    +0.000 A 
ATOM     18  C   UNL     1       0.710   9.307  19.975  0.00  0.00    +0.000 A 
BRANCH  16  19
ATOM     19  N   UNL     1      -0.003  12.907  19.502  0.00  0.00    +0.000 N 
ATOM     20  H   UNL     1      -0.029  13.286  18.554  0.00  0.00    +0.000 HD
ATOM     21  H   UNL     1      -0.946  12.896  19.878  0.00  0.00    +0.000 HD
ENDBRANCH  16  19
BRANCH  17  22
ATOM     22  O   UNL     1      -0.851  10.518  21.160  0.00  0.00    +0.000 OA
BRANCH  22  23
ATOM     23  C   UNL     1      -0.391  10.268  22.476  0.00  0.00    +0.000 C 
ATOM     24  F   UNL     1      -0.936  11.150  23.355  0.00  0.00    +0.000 F 
ATOM     25  F   UNL     1      -0.877   9.048  22.829  0.00  0.00    +0.000 F 
ENDBRANCH  22  23
ENDBRANCH  17  22
ENDBRANCH   9  13
BRANCH  11  26
ATOM     26  C   UNL     1       4.945   6.650  16.422  0.00  0.00    +0.000 C 
ATOM     27  C   UNL     1       6.305   6.012  16.590  0.00  0.00    +0.000 C 
ATOM     28  C   UNL     1       5.260   5.324  15.765  0.00  0.00    +0.000 C 
ENDBRANCH  11  26
TORSDOF 5
ENDMDL
MODEL 9
REMARK VINA RESULT:      -7.6      4.113      7.417
REMARK  Name = 
REMARK  6 active torsions:
REMARK  status: ('A' for Active; 'I' for Inactive)
REMARK    1  A    between atoms: C_1  and  C_2
REMARK    2  A    between atoms: C_9  and  C_10
REMARK    3  A    between atoms: C_13  and  N_14
REMARK    4  A    between atoms: C_15  and  O_16
REMARK    5  A    between atoms: O_16  and  C_17
REMARK    6  A    between atoms: C_22  and  C_23
REMARK                            x       y       z     vdW  Elec       q    Type
REMARK                         _______ _______ _______ _____ _____    ______ ____
ROOT
ATOM      1  C   UNL     1       4.662   3.269  19.404  0.00  0.00    +0.000 C 
ATOM      2  C   UNL     1       3.333   3.496  20.023  0.00  0.00    +0.000 A 
ATOM      3  N   UNL     1       2.708   2.610  20.790  0.00  0.00    +0.000 NA
ATOM      4  C   UNL     1       1.575   3.220  21.225  0.00  0.00    +0.000 A 
ATOM      5  C   UNL     1       1.491   4.501  20.736  0.00  0.00    +0.000 A 
ATOM      6  N   UNL     1       2.593   4.676  19.917  0.00  0.00    +0.000 N 
ATOM      7  C   UNL     1       2.893   5.820  19.118  0.00  0.00    +0.000 A 
ATOM      8  C   UNL     1       2.084   6.931  19.191  0.00  0.00    +0.000 A 
ATOM      9  C   UNL     1       2.407   7.992  18.370  0.00  0.00    +0.000 A 
ATOM     10  N   UNL     1       3.449   7.939  17.517  0.00  0.00    +0.000 NA
ATOM     11  C   UNL     1       4.201   6.824  17.498  0.00  0.00    +0.000 A 
ATOM     12  N   UNL     1       3.958   5.767  18.291  0.00  0.00    +0.000 NA
ENDROOT
BRANCH   9  13
ATOM     13  C   UNL     1       1.658   9.254  18.383  0.00  0.00    +0.000 A 
ATOM     14  C   UNL     1       2.288  10.486  18.252  0.00  0.00    +0.000 A 
ATOM     15  N   UNL     1       1.663  11.690  18.319  0.00  0.00    +0.000 NA
ATOM     16  C   UNL     1       0.331  11.695  18.504  0.00  0.00    +0.000 A 
ATOM     17  C   UNL     1      -0.418  10.521  18.583  0.00  0.00    +0.000 A 
ATOM     18  C   UNL     1       0.269   9.304  18.551  0.00  0.00    +0.000 A 
BRANCH  16  19
ATOM     19  N   UNL     1      -0.215  12.971  18.647  0.00  0.00    +0.000 N 
ATOM     20  H   UNL     1      -1.158  12.892  18.266  0.00  0.00    +0.000 HD
ATOM     21  H   UNL     1      -0.276  13.217  19.631  0.00  0.00    +0.000 HD
ENDBRANCH  16  19
BRANCH  17  22
ATOM     22  O   UNL     1      -1.764  10.369  18.747  0.00  0.00    +0.000 OA
BRANCH  22  23
ATOM     23  C   UNL     1      -2.575  10.316  17.587  0.00  0.00    +0.000 C 
ATOM     24  F   UNL     1      -1.846   9.944  16.502  0.00  0.00    +0.000 F 
ATOM     25  F   UNL     1      -3.472   9.314  17.790  0.00  0.00    +0.000 F 
ENDBRANCH  22  23
ENDBRANCH  17  22
ENDBRANCH   9  13
BRANCH  11  26
ATOM     26  C   UNL     1       5.362   6.757  16.538  0.00  0.00    +0.000 C 
ATOM     27  C   UNL     1       6.282   5.558  16.529  0.00  0.00    +0.000 C 
ATOM     28  C   UNL     1       5.326   5.767  15.394  0.00  0.00    +0.000 C 
ENDBRANCH  11  26
TORSDOF 5
ENDMDL
