MODEL 1
REMARK VINA RESULT:      -6.9      0.000      0.000
REMARK  Name = 
REMARK  7 active torsions:
REMARK  status: ('A' for Active; 'I' for Inactive)
REMARK    1  A    between atoms: C_1  and  C_2
REMARK    2  A    between atoms: C_2  and  N_3
REMARK    3  A    between atoms: C_2  and  C_21
REMARK    4  A    between atoms: C_10  and  C_11
REMARK    5  A    between atoms: C_10  and  C_18
REMARK    6  A    between atoms: C_11  and  C_12
REMARK    7  A    between atoms: C_18  and  O_20
REMARK                            x       y       z     vdW  Elec       q    Type
REMARK                         _______ _______ _______ _____ _____    ______ ____
ROOT
ATOM      1  N   UNL     1       6.320   5.076  14.656  0.00  0.00    +0.000 N 
ATOM      2  C   UNL     1       5.755   4.452  15.733  0.00  0.00    +0.000 C 
ATOM      3  O   UNL     1       5.837   3.246  15.966  0.00  0.00    +0.000 OA
ATOM      4  N   UNL     1       4.993   5.258  16.545  0.00  0.00    +0.000 N 
ATOM      5  C   UNL     1       4.582   6.552  16.420  0.00  0.00    +0.000 C 
ATOM      6  O   UNL     1       4.981   7.443  15.708  0.00  0.00    +0.000 OA
ATOM      7  C   UNL     1       3.578   6.396  17.565  0.00  0.00    +0.000 C 
ATOM      8  C   UNL     1       4.026   4.891  17.615  0.00  0.00    +0.000 C 
ATOM      9  H   UNL     1       6.243   6.086  14.609  0.00  0.00    +0.000 HD
ENDROOT
BRANCH   1  11
ATOM     10  C   UNL     1       8.053   5.371  12.931  0.00  0.00    +0.000 C 
ATOM     11  C   UNL     1       7.133   4.389  13.660  0.00  0.00    +0.000 C 
BRANCH  11  12
ATOM     12  C   UNL     1       6.311   3.635  12.623  0.00  0.00    +0.000 A 
ATOM     13  C   UNL     1       4.982   4.035  12.392  0.00  0.00    +0.000 A 
ATOM     14  C   UNL     1       4.137   3.282  11.573  0.00  0.00    +0.000 A 
ATOM     15  C   UNL     1       4.608   2.122  10.967  0.00  0.00    +0.000 A 
ATOM     16  C   UNL     1       5.929   1.724  11.163  0.00  0.00    +0.000 A 
ATOM     17  C   UNL     1       6.775   2.473  11.987  0.00  0.00    +0.000 A 
ENDBRANCH  11  12
ENDBRANCH   1  11
BRANCH   8  18
ATOM     18  C   UNL     1       2.914   3.856  17.154  0.00  0.00    +0.000 C 
ATOM     19  O   UNL     1       1.735   4.129  16.954  0.00  0.00    +0.000 OA
BRANCH  18  20
ATOM     20  O   UNL     1       3.346   2.576  16.985  0.00  0.00    +0.000 OA
ATOM     21  H   UNL     1       3.975   2.247  17.676  0.00  0.00    +0.000 HD
ENDBRANCH  18  20
ENDBRANCH   8  18
BRANCH   8  22
ATOM     22  C   UNL     1       4.780   4.439  18.879  0.00  0.00    +0.000 C 
BRANCH  22  23
ATOM     23  C   UNL     1       3.857   3.856  19.928  0.00  0.00    +0.000 A 
ATOM     24  C   UNL     1       2.795   4.605  20.454  0.00  0.00    +0.000 A 
ATOM     25  C   UNL     1       1.928   4.044  21.398  0.00  0.00    +0.000 A 
ATOM     26  C   UNL     1       2.114   2.732  21.829  0.00  0.00    +0.000 A 
ATOM     27  C   UNL     1       3.169   1.978  21.318  0.00  0.00    +0.000 A 
ATOM     28  C   UNL     1       4.030   2.536  20.372  0.00  0.00    +0.000 A 
ENDBRANCH  22  23
ENDBRANCH   8  22
TORSDOF 6
ENDMDL
MODEL 2
REMARK VINA RESULT:      -6.8      0.164      1.346
REMARK  Name = 
REMARK  7 active torsions:
REMARK  status: ('A' for Active; 'I' for Inactive)
REMARK    1  A    between atoms: C_1  and  C_2
REMARK    2  A    between atoms: C_2  and  N_3
REMARK    3  A    between atoms: C_2  and  C_21
REMARK    4  A    between atoms: C_10  and  C_11
REMARK    5  A    between atoms: C_10  and  C_18
REMARK    6  A    between atoms: C_11  and  C_12
REMARK    7  A    between atoms: C_18  and  O_20
REMARK                            x       y       z     vdW  Elec       q    Type
REMARK                         _______ _______ _______ _____ _____    ______ ____
ROOT
ATOM      1  N   UNL     1       6.251   5.099  14.721  0.00  0.00    +0.000 N 
ATOM      2  C   UNL     1       5.660   4.496  15.796  0.00  0.00    +0.000 C 
ATOM      3  O   UNL     1       5.673   3.284  16.014  0.00  0.00    +0.000 OA
ATOM      4  N   UNL     1       4.953   5.334  16.625  0.00  0.00    +0.000 N 
ATOM      5  C   UNL     1       4.616   6.651  16.519  0.00  0.00    +0.000 C 
ATOM      6  O   UNL     1       5.060   7.527  15.813  0.00  0.00    +0.000 OA
ATOM      7  C   UNL     1       3.615   6.540  17.671  0.00  0.00    +0.000 C 
ATOM      8  C   UNL     1       3.975   5.011  17.699  0.00  0.00    +0.000 C 
ATOM      9  H   UNL     1       6.232   6.112  14.687  0.00  0.00    +0.000 HD
ENDROOT
BRANCH   1  11
ATOM     10  C   UNL     1       7.860   5.340  12.872  0.00  0.00    +0.000 C 
ATOM     11  C   UNL     1       7.014   4.379  13.710  0.00  0.00    +0.000 C 
BRANCH  11  12
ATOM     12  C   UNL     1       6.145   3.553  12.770  0.00  0.00    +0.000 A 
ATOM     13  C   UNL     1       6.720   2.453  12.108  0.00  0.00    +0.000 A 
ATOM     14  C   UNL     1       6.018   1.762  11.118  0.00  0.00    +0.000 A 
ATOM     15  C   UNL     1       4.726   2.153  10.780  0.00  0.00    +0.000 A 
ATOM     16  C   UNL     1       4.130   3.224  11.443  0.00  0.00    +0.000 A 
ATOM     17  C   UNL     1       4.834   3.922  12.430  0.00  0.00    +0.000 A 
ENDBRANCH  11  12
ENDBRANCH   1  11
BRANCH   8  18
ATOM     18  C   UNL     1       2.801   4.048  17.236  0.00  0.00    +0.000 C 
ATOM     19  O   UNL     1       1.623   4.373  17.125  0.00  0.00    +0.000 OA
BRANCH  18  20
ATOM     20  O   UNL     1       3.175   2.770  16.956  0.00  0.00    +0.000 OA
ATOM     21  H   UNL     1       3.881   2.677  16.267  0.00  0.00    +0.000 HD
ENDBRANCH  18  20
ENDBRANCH   8  18
BRANCH   8  22
ATOM     22  C   UNL     1       4.712   4.501  18.950  0.00  0.00    +0.000 C 
BRANCH  22  23
ATOM     23  C   UNL     1       3.777   3.860  19.954  0.00  0.00    +0.000 A 
ATOM     24  C   UNL     1       3.990   2.550  20.406  0.00  0.00    +0.000 A 
ATOM     25  C   UNL     1       3.139   1.980  21.360  0.00  0.00    +0.000 A 
ATOM     26  C   UNL     1       2.068   2.710  21.869  0.00  0.00    +0.000 A 
ATOM     27  C   UNL     1       1.842   4.011  21.425  0.00  0.00    +0.000 A 
ATOM     28  C   UNL     1       2.694   4.581  20.478  0.00  0.00    +0.000 A 
ENDBRANCH  22  23
ENDBRANCH   8  22
TORSDOF 6
ENDMDL
MODEL 3
REMARK VINA RESULT:      -6.6      0.136      1.137
REMARK  Name = 
REMARK  7 active torsions:
REMARK  status: ('A' for Active; 'I' for Inactive)
REMARK    1  A    between atoms: C_1  and  C_2
REMARK    2  A    between atoms: C_2  and  N_3
REMARK    3  A    between atoms: C_2  and  C_21
REMARK    4  A    between atoms: C_10  and  C_11
REMARK    5  A    between atoms: C_10  and  C_18
REMARK    6  A    between atoms: C_11  and  C_12
REMARK    7  A    between atoms: C_18  and  O_20
REMARK                            x       y       z     vdW  Elec       q    Type
REMARK                         _______ _______ _______ _____ _____    ______ ____
ROOT
ATOM      1  N   UNL     1       6.266   5.033  14.667  0.00  0.00    +0.000 N 
ATOM      2  C   UNL     1       5.684   4.417  15.740  0.00  0.00    +0.000 C 
ATOM      3  O   UNL     1       5.735   3.208  15.965  0.00  0.00    +0.000 OA
ATOM      4  N   UNL     1       4.939   5.236  16.555  0.00  0.00    +0.000 N 
ATOM      5  C   UNL     1       4.560   6.540  16.437  0.00  0.00    +0.000 C 
ATOM      6  O   UNL     1       4.982   7.426  15.731  0.00  0.00    +0.000 OA
ATOM      7  C   UNL     1       3.549   6.402  17.578  0.00  0.00    +0.000 C 
ATOM      8  C   UNL     1       3.960   4.886  17.620  0.00  0.00    +0.000 C 
ATOM      9  H   UNL     1       6.214   6.046  14.627  0.00  0.00    +0.000 HD
ENDROOT
BRANCH   1  11
ATOM     10  C   UNL     1       8.012   5.297  12.949  0.00  0.00    +0.000 C 
ATOM     11  C   UNL     1       7.065   4.334  13.670  0.00  0.00    +0.000 C 
BRANCH  11  12
ATOM     12  C   UNL     1       6.228   3.607  12.626  0.00  0.00    +0.000 A 
ATOM     13  C   UNL     1       4.926   4.069  12.360  0.00  0.00    +0.000 A 
ATOM     14  C   UNL     1       4.061   3.348  11.534  0.00  0.00    +0.000 A 
ATOM     15  C   UNL     1       4.486   2.158  10.953  0.00  0.00    +0.000 A 
ATOM     16  C   UNL     1       5.780   1.697  11.183  0.00  0.00    +0.000 A 
ATOM     17  C   UNL     1       6.646   2.414  12.015  0.00  0.00    +0.000 A 
ENDBRANCH  11  12
ENDBRANCH   1  11
BRANCH   8  18
ATOM     18  C   UNL     1       2.825   3.881  17.149  0.00  0.00    +0.000 C 
ATOM     19  O   UNL     1       3.010   2.713  16.819  0.00  0.00    +0.000 OA
BRANCH  18  20
ATOM     20  O   UNL     1       1.567   4.397  17.120  0.00  0.00    +0.000 OA
ATOM     21  H   UNL     1       1.476   5.263  16.647  0.00  0.00    +0.000 HD
ENDBRANCH  18  20
ENDBRANCH   8  18
BRANCH   8  22
ATOM     22  C   UNL     1       4.699   4.408  18.882  0.00  0.00    +0.000 C 
BRANCH  22  23
ATOM     23  C   UNL     1       3.764   3.811  19.912  0.00  0.00    +0.000 A 
ATOM     24  C   UNL     1       3.948   2.504  20.385  0.00  0.00    +0.000 A 
ATOM     25  C   UNL     1       3.099   1.975  21.362  0.00  0.00    +0.000 A 
ATOM     26  C   UNL     1       2.055   2.743  21.875  0.00  0.00    +0.000 A 
ATOM     27  C   UNL     1       1.858   4.042  21.411  0.00  0.00    +0.000 A 
ATOM     28  C   UNL     1       2.709   4.571  20.440  0.00  0.00    +0.000 A 
ENDBRANCH  22  23
ENDBRANCH   8  22
TORSDOF 6
ENDMDL
MODEL 4
REMARK VINA RESULT:      -6.5      5.465      7.998
REMARK  Name = 
REMARK  7 active torsions:
REMARK  status: ('A' for Active; 'I' for Inactive)
REMARK    1  A    between atoms: C_1  and  C_2
REMARK    2  A    between atoms: C_2  and  N_3
REMARK    3  A    between atoms: C_2  and  C_21
REMARK    4  A    between atoms: C_10  and  C_11
REMARK    5  A    between atoms: C_10  and  C_18
REMARK    6  A    between atoms: C_11  and  C_12
REMARK    7  A    between atoms: C_18  and  O_20
REMARK                            x       y       z     vdW  Elec       q    Type
REMARK                         _______ _______ _______ _____ _____    ______ ____
ROOT
ATOM      1  N   UNL     1       2.758   7.058  18.567  0.00  0.00    +0.000 N 
ATOM      2  C   UNL     1       2.097   8.179  18.149  0.00  0.00    +0.000 C 
ATOM      3  O   UNL     1       2.185   8.664  17.021  0.00  0.00    +0.000 OA
ATOM      4  N   UNL     1       1.350   8.815  19.112  0.00  0.00    +0.000 N 
ATOM      5  C   UNL     1       1.234   8.615  20.456  0.00  0.00    +0.000 C 
ATOM      6  O   UNL     1       1.535   7.668  21.143  0.00  0.00    +0.000 OA
ATOM      7  C   UNL     1       0.509   9.951  20.642  0.00  0.00    +0.000 C 
ATOM      8  C   UNL     1       0.742  10.173  19.105  0.00  0.00    +0.000 C 
ATOM      9  H   UNL     1       2.550   6.716  19.499  0.00  0.00    +0.000 HD
ENDROOT
BRANCH   1  11
ATOM     10  C   UNL     1       3.182   4.801  17.678  0.00  0.00    +0.000 C 
ATOM     11  C   UNL     1       3.627   6.265  17.708  0.00  0.00    +0.000 C 
BRANCH  11  12
ATOM     12  C   UNL     1       5.093   6.317  18.116  0.00  0.00    +0.000 A 
ATOM     13  C   UNL     1       5.983   7.090  17.347  0.00  0.00    +0.000 A 
ATOM     14  C   UNL     1       7.359   7.045  17.579  0.00  0.00    +0.000 A 
ATOM     15  C   UNL     1       7.869   6.235  18.589  0.00  0.00    +0.000 A 
ATOM     16  C   UNL     1       7.002   5.482  19.378  0.00  0.00    +0.000 A 
ATOM     17  C   UNL     1       5.623   5.520  19.143  0.00  0.00    +0.000 A 
ENDBRANCH  11  12
ENDBRANCH   1  11
BRANCH   8  18
ATOM     18  C   UNL     1       1.762  11.337  18.752  0.00  0.00    +0.000 C 
ATOM     19  O   UNL     1       2.128  12.214  19.529  0.00  0.00    +0.000 OA
BRANCH  18  20
ATOM     20  O   UNL     1       2.240  11.325  17.478  0.00  0.00    +0.000 OA
ATOM     21  H   UNL     1       2.575  10.449  17.160  0.00  0.00    +0.000 HD
ENDBRANCH  18  20
ENDBRANCH   8  18
BRANCH   8  22
ATOM     22  C   UNL     1      -0.514  10.186  18.214  0.00  0.00    +0.000 C 
BRANCH  22  23
ATOM     23  C   UNL     1      -1.618  11.055  18.778  0.00  0.00    +0.000 A 
ATOM     24  C   UNL     1      -2.911  11.022  18.239  0.00  0.00    +0.000 A 
ATOM     25  C   UNL     1      -3.932  11.804  18.790  0.00  0.00    +0.000 A 
ATOM     26  C   UNL     1      -3.671  12.629  19.883  0.00  0.00    +0.000 A 
ATOM     27  C   UNL     1      -2.389  12.674  20.426  0.00  0.00    +0.000 A 
ATOM     28  C   UNL     1      -1.373  11.890  19.879  0.00  0.00    +0.000 A 
ENDBRANCH  22  23
ENDBRANCH   8  22
TORSDOF 6
ENDMDL
MODEL 5
REMARK VINA RESULT:      -6.4      5.340      7.747
REMARK  Name = 
REMARK  7 active torsions:
REMARK  status: ('A' for Active; 'I' for Inactive)
REMARK    1  A    between atoms: C_1  and  C_2
REMARK    2  A    between atoms: C_2  and  N_3
REMARK    3  A    between atoms: C_2  and  C_21
REMARK    4  A    between atoms: C_10  and  C_11
REMARK    5  A    between atoms: C_10  and  C_18
REMARK    6  A    between atoms: C_11  and  C_12
REMARK    7  A    between atoms: C_18  and  O_20
REMARK                            x       y       z     vdW  Elec       q    Type
REMARK                         _______ _______ _______ _____ _____    ______ ____
ROOT
ATOM      1  N   UNL     1       2.825   7.113  19.158  0.00  0.00    +0.000 N 
ATOM      2  C   UNL     1       2.205   8.133  18.492  0.00  0.00    +0.000 C 
ATOM      3  O   UNL     1       2.466   8.477  17.339  0.00  0.00    +0.000 OA
ATOM      4  N   UNL     1       1.284   8.841  19.227  0.00  0.00    +0.000 N 
ATOM      5  C   UNL     1       0.948   8.805  20.548  0.00  0.00    +0.000 C 
ATOM      6  O   UNL     1       1.161   7.969  21.395  0.00  0.00    +0.000 OA
ATOM      7  C   UNL     1       0.156  10.109  20.434  0.00  0.00    +0.000 C 
ATOM      8  C   UNL     1       0.637  10.151  18.940  0.00  0.00    +0.000 C 
ATOM      9  H   UNL     1       2.474   6.879  20.080  0.00  0.00    +0.000 HD
ENDROOT
BRANCH   1  11
ATOM     10  C   UNL     1       4.455   6.928  17.321  0.00  0.00    +0.000 C 
ATOM     11  C   UNL     1       3.854   6.270  18.565  0.00  0.00    +0.000 C 
BRANCH  11  12
ATOM     12  C   UNL     1       3.353   4.883  18.184  0.00  0.00    +0.000 A 
ATOM     13  C   UNL     1       1.975   4.613  18.270  0.00  0.00    +0.000 A 
ATOM     14  C   UNL     1       1.483   3.319  18.088  0.00  0.00    +0.000 A 
ATOM     15  C   UNL     1       2.358   2.274  17.809  0.00  0.00    +0.000 A 
ATOM     16  C   UNL     1       3.724   2.526  17.694  0.00  0.00    +0.000 A 
ATOM     17  C   UNL     1       4.220   3.820  17.882  0.00  0.00    +0.000 A 
ENDBRANCH  11  12
ENDBRANCH   1  11
BRANCH   8  18
ATOM     18  C   UNL     1       1.662  11.317  18.607  0.00  0.00    +0.000 C 
ATOM     19  O   UNL     1       1.908  12.270  19.341  0.00  0.00    +0.000 OA
BRANCH  18  20
ATOM     20  O   UNL     1       2.287  11.216  17.403  0.00  0.00    +0.000 OA
ATOM     21  H   UNL     1       2.259  12.031  16.841  0.00  0.00    +0.000 HD
ENDBRANCH  18  20
ENDBRANCH   8  18
BRANCH   8  22
ATOM     22  C   UNL     1      -0.448   9.981  17.862  0.00  0.00    +0.000 C 
BRANCH  22  23
ATOM     23  C   UNL     1      -1.755  10.642  18.244  0.00  0.00    +0.000 A 
ATOM     24  C   UNL     1      -1.785  11.721  19.139  0.00  0.00    +0.000 A 
ATOM     25  C   UNL     1      -2.995  12.347  19.458  0.00  0.00    +0.000 A 
ATOM     26  C   UNL     1      -4.187  11.901  18.890  0.00  0.00    +0.000 A 
ATOM     27  C   UNL     1      -4.172  10.827  18.003  0.00  0.00    +0.000 A 
ATOM     28  C   UNL     1      -2.964  10.206  17.681  0.00  0.00    +0.000 A 
ENDBRANCH  22  23
ENDBRANCH   8  22
TORSDOF 6
ENDMDL
MODEL 6
REMARK VINA RESULT:      -6.3      4.371      7.921
REMARK  Name = 
REMARK  7 active torsions:
REMARK  status: ('A' for Active; 'I' for Inactive)
REMARK    1  A    between atoms: C_1  and  C_2
REMARK    2  A    between atoms: C_2  and  N_3
REMARK    3  A    between atoms: C_2  and  C_21
REMARK    4  A    between atoms: C_10  and  C_11
REMARK    5  A    between atoms: C_10  and  C_18
REMARK    6  A    between atoms: C_11  and  C_12
REMARK    7  A    between atoms: C_18  and  O_20
REMARK                            x       y       z     vdW  Elec       q    Type
REMARK                         _______ _______ _______ _____ _____    ______ ____
ROOT
ATOM      1  N   UNL     1       1.259   9.030  19.091  0.00  0.00    +0.000 N 
ATOM      2  C   UNL     1       2.048   7.998  18.664  0.00  0.00    +0.000 C 
ATOM      3  O   UNL     1       2.499   7.887  17.524  0.00  0.00    +0.000 OA
ATOM      4  N   UNL     1       2.264   7.003  19.588  0.00  0.00    +0.000 N 
ATOM      5  C   UNL     1       1.740   6.777  20.826  0.00  0.00    +0.000 C 
ATOM      6  O   UNL     1       1.146   7.512  21.579  0.00  0.00    +0.000 OA
ATOM      7  C   UNL     1       2.304   5.354  20.860  0.00  0.00    +0.000 C 
ATOM      8  C   UNL     1       2.816   5.633  19.402  0.00  0.00    +0.000 C 
ATOM      9  H   UNL     1       1.007   9.047  20.074  0.00  0.00    +0.000 HD
ENDROOT
BRANCH   1  11
ATOM     10  C   UNL     1       1.668  11.417  18.644  0.00  0.00    +0.000 C 
ATOM     11  C   UNL     1       0.886  10.161  18.253  0.00  0.00    +0.000 C 
BRANCH  11  12
ATOM     12  C   UNL     1      -0.602  10.483  18.299  0.00  0.00    +0.000 A 
ATOM     13  C   UNL     1      -1.461   9.852  17.381  0.00  0.00    +0.000 A 
ATOM     14  C   UNL     1      -2.801  10.228  17.273  0.00  0.00    +0.000 A 
ATOM     15  C   UNL     1      -3.308  11.236  18.088  0.00  0.00    +0.000 A 
ATOM     16  C   UNL     1      -2.480  11.856  19.021  0.00  0.00    +0.000 A 
ATOM     17  C   UNL     1      -1.136  11.485  19.127  0.00  0.00    +0.000 A 
ENDBRANCH  11  12
ENDBRANCH   1  11
BRANCH   8  18
ATOM     18  C   UNL     1       2.086   4.790  18.272  0.00  0.00    +0.000 C 
ATOM     19  O   UNL     1       1.466   5.267  17.326  0.00  0.00    +0.000 OA
BRANCH  18  20
ATOM     20  O   UNL     1       2.174   3.439  18.406  0.00  0.00    +0.000 OA
ATOM     21  H   UNL     1       2.465   3.120  19.298  0.00  0.00    +0.000 HD
ENDBRANCH  18  20
ENDBRANCH   8  18
BRANCH   8  22
ATOM     22  C   UNL     1       4.342   5.699  19.209  0.00  0.00    +0.000 C 
BRANCH  22  23
ATOM     23  C   UNL     1       4.760   5.414  17.782  0.00  0.00    +0.000 A 
ATOM     24  C   UNL     1       4.852   6.445  16.837  0.00  0.00    +0.000 A 
ATOM     25  C   UNL     1       5.273   6.176  15.530  0.00  0.00    +0.000 A 
ATOM     26  C   UNL     1       5.604   4.876  15.153  0.00  0.00    +0.000 A 
ATOM     27  C   UNL     1       5.512   3.841  16.082  0.00  0.00    +0.000 A 
ATOM     28  C   UNL     1       5.097   4.111  17.386  0.00  0.00    +0.000 A 
ENDBRANCH  22  23
ENDBRANCH   8  22
TORSDOF 6
ENDMDL
MODEL 7
REMARK VINA RESULT:      -6.3      5.961      8.835
REMARK  Name = 
REMARK  7 active torsions:
REMARK  status: ('A' for Active; 'I' for Inactive)
REMARK    1  A    between atoms: C_1  and  C_2
REMARK    2  A    between atoms: C_2  and  N_3
REMARK    3  A    between atoms: C_2  and  C_21
REMARK    4  A    between atoms: C_10  and  C_11
REMARK    5  A    between atoms: C_10  and  C_18
REMARK    6  A    between atoms: C_11  and  C_12
REMARK    7  A    between atoms: C_18  and  O_20
REMARK                            x       y       z     vdW  Elec       q    Type
REMARK                         _______ _______ _______ _____ _____    ______ ____
ROOT
ATOM      1  N   UNL     1       1.582   8.025  19.710  0.00  0.00    +0.000 N 
ATOM      2  C   UNL     1       1.487   9.296  19.215  0.00  0.00    +0.000 C 
ATOM      3  O   UNL     1       2.221   9.766  18.347  0.00  0.00    +0.000 OA
ATOM      4  N   UNL     1       0.535  10.089  19.812  0.00  0.00    +0.000 N 
ATOM      5  C   UNL     1      -0.262   9.895  20.900  0.00  0.00    +0.000 C 
ATOM      6  O   UNL     1      -0.562   8.884  21.491  0.00  0.00    +0.000 OA
ATOM      7  C   UNL     1      -0.655  11.374  20.939  0.00  0.00    +0.000 C 
ATOM      8  C   UNL     1       0.339  11.563  19.738  0.00  0.00    +0.000 C 
ATOM      9  H   UNL     1       0.874   7.730  20.374  0.00  0.00    +0.000 HD
ENDROOT
BRANCH   1  11
ATOM     10  C   UNL     1       3.017   7.376  17.817  0.00  0.00    +0.000 C 
ATOM     11  C   UNL     1       2.549   7.044  19.235  0.00  0.00    +0.000 C 
BRANCH  11  12
ATOM     12  C   UNL     1       2.018   5.617  19.248  0.00  0.00    +0.000 A 
ATOM     13  C   UNL     1       1.621   5.053  20.474  0.00  0.00    +0.000 A 
ATOM     14  C   UNL     1       1.280   3.701  20.568  0.00  0.00    +0.000 A 
ATOM     15  C   UNL     1       1.322   2.894  19.435  0.00  0.00    +0.000 A 
ATOM     16  C   UNL     1       1.687   3.440  18.207  0.00  0.00    +0.000 A 
ATOM     17  C   UNL     1       2.035   4.792  18.112  0.00  0.00    +0.000 A 
ENDBRANCH  11  12
ENDBRANCH   1  11
BRANCH   8  18
ATOM     18  C   UNL     1       1.640  12.405  20.084  0.00  0.00    +0.000 C 
ATOM     19  O   UNL     1       1.974  12.757  21.211  0.00  0.00    +0.000 OA
BRANCH  18  20
ATOM     20  O   UNL     1       2.411  12.747  19.017  0.00  0.00    +0.000 OA
ATOM     21  H   UNL     1       2.386  13.705  18.765  0.00  0.00    +0.000 HD
ENDBRANCH  18  20
ENDBRANCH   8  18
BRANCH   8  22
ATOM     22  C   UNL     1      -0.282  11.947  18.384  0.00  0.00    +0.000 C 
BRANCH  22  23
ATOM     23  C   UNL     1      -1.688  11.410  18.216  0.00  0.00    +0.000 A 
ATOM     24  C   UNL     1      -1.921  10.175  17.595  0.00  0.00    +0.000 A 
ATOM     25  C   UNL     1      -3.221   9.673  17.476  0.00  0.00    +0.000 A 
ATOM     26  C   UNL     1      -4.302  10.399  17.973  0.00  0.00    +0.000 A 
ATOM     27  C   UNL     1      -4.084  11.630  18.589  0.00  0.00    +0.000 A 
ATOM     28  C   UNL     1      -2.787  12.128  18.712  0.00  0.00    +0.000 A 
ENDBRANCH  22  23
ENDBRANCH   8  22
TORSDOF 6
ENDMDL
MODEL 8
REMARK VINA RESULT:      -6.3      5.960      8.806
REMARK  Name = 
REMARK  7 active torsions:
REMARK  status: ('A' for Active; 'I' for Inactive)
REMARK    1  A    between atoms: C_1  and  C_2
REMARK    2  A    between atoms: C_2  and  N_3
REMARK    3  A    between atoms: C_2  and  C_21
REMARK    4  A    between atoms: C_10  and  C_11
REMARK    5  A    between atoms: C_10  and  C_18
REMARK    6  A    between atoms: C_11  and  C_12
REMARK    7  A    between atoms: C_18  and  O_20
REMARK                            x       y       z     vdW  Elec       q    Type
REMARK                         _______ _______ _______ _____ _____    ______ ____
ROOT
ATOM      1  N   UNL     1       1.636   7.921  19.743  0.00  0.00    +0.000 N 
ATOM      2  C   UNL     1       1.502   9.178  19.223  0.00  0.00    +0.000 C 
ATOM      3  O   UNL     1       2.224   9.653  18.346  0.00  0.00    +0.000 OA
ATOM      4  N   UNL     1       0.527   9.954  19.803  0.00  0.00    +0.000 N 
ATOM      5  C   UNL     1      -0.266   9.757  20.894  0.00  0.00    +0.000 C 
ATOM      6  O   UNL     1      -0.536   8.749  21.504  0.00  0.00    +0.000 OA
ATOM      7  C   UNL     1      -0.704  11.224  20.903  0.00  0.00    +0.000 C 
ATOM      8  C   UNL     1       0.286  11.419  19.699  0.00  0.00    +0.000 C 
ATOM      9  H   UNL     1       0.936   7.617  20.412  0.00  0.00    +0.000 HD
ENDROOT
BRANCH   1  11
ATOM     10  C   UNL     1       3.044   7.239  17.841  0.00  0.00    +0.000 C 
ATOM     11  C   UNL     1       2.632   6.961  19.288  0.00  0.00    +0.000 C 
BRANCH  11  12
ATOM     12  C   UNL     1       2.169   5.514  19.390  0.00  0.00    +0.000 A 
ATOM     13  C   UNL     1       2.045   4.757  18.210  0.00  0.00    +0.000 A 
ATOM     14  C   UNL     1       1.474   3.483  18.228  0.00  0.00    +0.000 A 
ATOM     15  C   UNL     1       1.024   2.940  19.427  0.00  0.00    +0.000 A 
ATOM     16  C   UNL     1       1.161   3.662  20.610  0.00  0.00    +0.000 A 
ATOM     17  C   UNL     1       1.728   4.941  20.594  0.00  0.00    +0.000 A 
ENDBRANCH  11  12
ENDBRANCH   1  11
BRANCH   8  18
ATOM     18  C   UNL     1       1.560  12.307  20.029  0.00  0.00    +0.000 C 
ATOM     19  O   UNL     1       2.310  12.803  19.193  0.00  0.00    +0.000 OA
BRANCH  18  20
ATOM     20  O   UNL     1       1.805  12.503  21.353  0.00  0.00    +0.000 OA
ATOM     21  H   UNL     1       1.586  11.738  21.942  0.00  0.00    +0.000 HD
ENDBRANCH  18  20
ENDBRANCH   8  18
BRANCH   8  22
ATOM     22  C   UNL     1      -0.345  11.757  18.337  0.00  0.00    +0.000 C 
BRANCH  22  23
ATOM     23  C   UNL     1      -1.784  11.300  18.234  0.00  0.00    +0.000 A 
ATOM     24  C   UNL     1      -2.832  12.098  18.714  0.00  0.00    +0.000 A 
ATOM     25  C   UNL     1      -4.161  11.682  18.582  0.00  0.00    +0.000 A 
ATOM     26  C   UNL     1      -4.458  10.464  17.972  0.00  0.00    +0.000 A 
ATOM     27  C   UNL     1      -3.425   9.659  17.495  0.00  0.00    +0.000 A 
ATOM     28  C   UNL     1      -2.100  10.078  17.622  0.00  0.00    +0.000 A 
ENDBRANCH  22  23
ENDBRANCH   8  22
TORSDOF 6
ENDMDL
MODEL 9
REMARK VINA RESULT:      -6.2      5.919      8.448
REMARK  Name = 
REMARK  7 active torsions:
REMARK  status: ('A' for Active; 'I' for Inactive)
REMARK    1  A    between atoms: C_1  and  C_2
REMARK    2  A    between atoms: C_2  and  N_3
REMARK    3  A    between atoms: C_2  and  C_21
REMARK    4  A    between atoms: C_10  and  C_11
REMARK    5  A    between atoms: C_10  and  C_18
REMARK    6  A    between atoms: C_11  and  C_12
REMARK    7  A    between atoms: C_18  and  O_20
REMARK                            x       y       z     vdW  Elec       q    Type
REMARK                         _______ _______ _______ _____ _____    ______ ____
ROOT
ATOM      1  N   UNL     1       2.229   7.514  18.793  0.00  0.00    +0.000 N 
ATOM      2  C   UNL     1       1.710   8.713  18.393  0.00  0.00    +0.000 C 
ATOM      3  O   UNL     1       1.738   9.137  17.237  0.00  0.00    +0.000 OA
ATOM      4  N   UNL     1       1.198   9.497  19.399  0.00  0.00    +0.000 N 
ATOM      5  C   UNL     1       1.214   9.366  20.756  0.00  0.00    +0.000 C 
ATOM      6  O   UNL     1       1.440   8.407  21.455  0.00  0.00    +0.000 OA
ATOM      7  C   UNL     1       0.741  10.809  20.951  0.00  0.00    +0.000 C 
ATOM      8  C   UNL     1       0.819  10.936  19.388  0.00  0.00    +0.000 C 
ATOM      9  H   UNL     1       2.083   7.243  19.760  0.00  0.00    +0.000 HD
ENDROOT
BRANCH   1  11
ATOM     10  C   UNL     1       2.173   5.188  17.984  0.00  0.00    +0.000 C 
ATOM     11  C   UNL     1       2.848   6.558  17.885  0.00  0.00    +0.000 C 
BRANCH  11  12
ATOM     12  C   UNL     1       4.342   6.379  18.121  0.00  0.00    +0.000 A 
ATOM     13  C   UNL     1       5.245   6.961  17.213  0.00  0.00    +0.000 A 
ATOM     14  C   UNL     1       6.614   6.695  17.290  0.00  0.00    +0.000 A 
ATOM     15  C   UNL     1       7.104   5.851  18.281  0.00  0.00    +0.000 A 
ATOM     16  C   UNL     1       6.228   5.285  19.206  0.00  0.00    +0.000 A 
ATOM     17  C   UNL     1       4.856   5.545  19.127  0.00  0.00    +0.000 A 
ENDBRANCH  11  12
ENDBRANCH   1  11
BRANCH   8  18
ATOM     18  C   UNL     1       1.963  11.901  18.859  0.00  0.00    +0.000 C 
ATOM     19  O   UNL     1       2.575  12.713  19.547  0.00  0.00    +0.000 OA
BRANCH  18  20
ATOM     20  O   UNL     1       2.251  11.790  17.534  0.00  0.00    +0.000 OA
ATOM     21  H   UNL     1       3.214  11.836  17.304  0.00  0.00    +0.000 HD
ENDBRANCH  18  20
ENDBRANCH   8  18
BRANCH   8  22
ATOM     22  C   UNL     1      -0.517  11.127  18.646  0.00  0.00    +0.000 C 
BRANCH  22  23
ATOM     23  C   UNL     1      -1.436  12.104  19.346  0.00  0.00    +0.000 A 
ATOM     24  C   UNL     1      -0.954  13.324  19.840  0.00  0.00    +0.000 A 
ATOM     25  C   UNL     1      -1.820  14.235  20.455  0.00  0.00    +0.000 A 
ATOM     26  C   UNL     1      -3.175  13.936  20.586  0.00  0.00    +0.000 A 
ATOM     27  C   UNL     1      -3.666  12.724  20.104  0.00  0.00    +0.000 A 
ATOM     28  C   UNL     1      -2.803  11.819  19.486  0.00  0.00    +0.000 A 
ENDBRANCH  22  23
ENDBRANCH   8  22
TORSDOF 6
ENDMDL
