MODEL 1
REMARK VINA RESULT:      -7.0      0.000      0.000
REMARK  Name = 
REMARK  5 active torsions:
REMARK  status: ('A' for Active; 'I' for Inactive)
REMARK    1  A    between atoms: P_2  and  O_3
REMARK    2  A    between atoms: P_2  and  O_4
REMARK    3  A    between atoms: P_2  and  C_5
REMARK    4  A    between atoms: C_5  and  C_6
REMARK    5  A    between atoms: C_8  and  O_9
REMARK                            x       y       z     vdW  Elec       q    Type
REMARK                         _______ _______ _______ _____ _____    ______ ____
ROOT
ATOM      1  C   UNL     1       4.702   3.766  17.488  0.00  0.00    +0.000 A 
ATOM      2  C   UNL     1       5.155   4.217  18.733  0.00  0.00    +0.000 A 
ATOM      3  C   UNL     1       6.305   4.973  18.770  0.00  0.00    +0.000 A 
ATOM      4  N   UNL     1       7.014   5.315  17.685  0.00  0.00    +0.000 NA
ATOM      5  C   UNL     1       6.581   4.904  16.486  0.00  0.00    +0.000 A 
ATOM      6  C   UNL     1       7.340   5.227  15.371  0.00  0.00    +0.000 A 
ATOM      7  C   UNL     1       6.977   4.819  14.087  0.00  0.00    +0.000 A 
ATOM      8 CL   UNL     1       8.031   5.219  12.778  0.00  0.00    +0.000 Cl
ATOM      9  C   UNL     1       5.801   4.100  13.898  0.00  0.00    +0.000 A 
ATOM     10 CL   UNL     1       5.269   3.556  12.350  0.00  0.00    +0.000 Cl
ATOM     11  C   UNL     1       5.013   3.774  15.006  0.00  0.00    +0.000 A 
ATOM     12  C   UNL     1       5.404   4.137  16.316  0.00  0.00    +0.000 A 
ENDROOT
BRANCH   3  13
ATOM     13  O   UNL     1       6.822   5.410  19.953  0.00  0.00    +0.000 OA
ATOM     14  H   UNL     1       7.611   5.939  19.763  0.00  0.00    +0.000 HD
ENDBRANCH   3  13
BRANCH   1  15
ATOM     15  C   UNL     1       3.467   2.891  17.464  0.00  0.00    +0.000 C 
BRANCH  15  17
ATOM     16  O   UNL     1       1.128   3.723  19.754  0.00  0.00    +0.000 OA
ATOM     17  P   UNL     1       2.200   3.341  18.705  0.00  0.00    +0.000 P 
BRANCH  17  18
ATOM     18  O   UNL     1       1.731   1.764  18.731  0.00  0.00    +0.000 OA
ATOM     19  H   UNL     1       0.956   1.706  19.326  0.00  0.00    +0.000 HD
ENDBRANCH  17  18
BRANCH  17  20
ATOM     20  O   UNL     1       1.231   3.798  17.461  0.00  0.00    +0.000 OA
ATOM     21  H   UNL     1       0.422   4.194  17.845  0.00  0.00    +0.000 HD
ENDBRANCH  17  20
ENDBRANCH  15  17
ENDBRANCH   1  15
TORSDOF 5
ENDMDL
MODEL 2
REMARK VINA RESULT:      -6.9      4.874      6.186
REMARK  Name = 
REMARK  5 active torsions:
REMARK  status: ('A' for Active; 'I' for Inactive)
REMARK    1  A    between atoms: P_2  and  O_3
REMARK    2  A    between atoms: P_2  and  O_4
REMARK    3  A    between atoms: P_2  and  C_5
REMARK    4  A    between atoms: C_5  and  C_6
REMARK    5  A    between atoms: C_8  and  O_9
REMARK                            x       y       z     vdW  Elec       q    Type
REMARK                         _______ _______ _______ _____ _____    ______ ____
ROOT
ATOM      1  C   UNL     1       4.024   5.022  18.013  0.00  0.00    +0.000 A 
ATOM      2  C   UNL     1       4.145   3.791  18.669  0.00  0.00    +0.000 A 
ATOM      3  C   UNL     1       3.490   3.628  19.869  0.00  0.00    +0.000 A 
ATOM      4  N   UNL     1       2.732   4.571  20.444  0.00  0.00    +0.000 NA
ATOM      5  C   UNL     1       2.594   5.747  19.818  0.00  0.00    +0.000 A 
ATOM      6  C   UNL     1       1.841   6.733  20.438  0.00  0.00    +0.000 A 
ATOM      7  C   UNL     1       1.665   7.995  19.869  0.00  0.00    +0.000 A 
ATOM      8 CL   UNL     1       0.764   9.169  20.760  0.00  0.00    +0.000 Cl
ATOM      9  C   UNL     1       2.222   8.275  18.626  0.00  0.00    +0.000 A 
ATOM     10 CL   UNL     1       2.055   9.803  17.844  0.00  0.00    +0.000 Cl
ATOM     11  C   UNL     1       2.974   7.292  17.976  0.00  0.00    +0.000 A 
ATOM     12  C   UNL     1       3.202   6.030  18.573  0.00  0.00    +0.000 A 
ENDROOT
BRANCH   3  13
ATOM     13  O   UNL     1       3.599   2.468  20.577  0.00  0.00    +0.000 OA
ATOM     14  H   UNL     1       4.479   2.440  20.980  0.00  0.00    +0.000 HD
ENDBRANCH   3  13
BRANCH   1  15
ATOM     15  C   UNL     1       4.792   5.209  16.723  0.00  0.00    +0.000 C 
BRANCH  15  17
ATOM     16  O   UNL     1       8.029   4.259  16.878  0.00  0.00    +0.000 OA
ATOM     17  P   UNL     1       6.546   4.695  16.807  0.00  0.00    +0.000 P 
BRANCH  17  18
ATOM     18  O   UNL     1       6.871   5.770  15.604  0.00  0.00    +0.000 OA
ATOM     19  H   UNL     1       6.630   6.658  15.940  0.00  0.00    +0.000 HD
ENDBRANCH  17  18
BRANCH  17  20
ATOM     20  O   UNL     1       6.161   3.436  15.826  0.00  0.00    +0.000 OA
ATOM     21  H   UNL     1       5.426   3.724  15.247  0.00  0.00    +0.000 HD
ENDBRANCH  17  20
ENDBRANCH  15  17
ENDBRANCH   1  15
TORSDOF 5
ENDMDL
MODEL 3
REMARK VINA RESULT:      -6.9      4.699      6.086
REMARK  Name = 
REMARK  5 active torsions:
REMARK  status: ('A' for Active; 'I' for Inactive)
REMARK    1  A    between atoms: P_2  and  O_3
REMARK    2  A    between atoms: P_2  and  O_4
REMARK    3  A    between atoms: P_2  and  C_5
REMARK    4  A    between atoms: C_5  and  C_6
REMARK    5  A    between atoms: C_8  and  O_9
REMARK                            x       y       z     vdW  Elec       q    Type
REMARK                         _______ _______ _______ _____ _____    ______ ____
ROOT
ATOM      1  C   UNL     1       4.724   6.175  17.623  0.00  0.00    +0.000 A 
ATOM      2  C   UNL     1       4.151   7.391  17.233  0.00  0.00    +0.000 A 
ATOM      3  C   UNL     1       2.946   7.749  17.792  0.00  0.00    +0.000 A 
ATOM      4  N   UNL     1       2.290   7.011  18.698  0.00  0.00    +0.000 NA
ATOM      5  C   UNL     1       2.835   5.854  19.093  0.00  0.00    +0.000 A 
ATOM      6  C   UNL     1       2.133   5.076  20.000  0.00  0.00    +0.000 A 
ATOM      7  C   UNL     1       2.615   3.845  20.447  0.00  0.00    +0.000 A 
ATOM      8 CL   UNL     1       1.626   2.927  21.526  0.00  0.00    +0.000 Cl
ATOM      9  C   UNL     1       3.855   3.390  20.009  0.00  0.00    +0.000 A 
ATOM     10 CL   UNL     1       4.533   1.885  20.509  0.00  0.00    +0.000 Cl
ATOM     11  C   UNL     1       4.587   4.164  19.104  0.00  0.00    +0.000 A 
ATOM     12  C   UNL     1       4.078   5.386  18.605  0.00  0.00    +0.000 A 
ENDROOT
BRANCH   3  13
ATOM     13  O   UNL     1       2.315   8.901  17.425  0.00  0.00    +0.000 OA
ATOM     14  H   UNL     1       1.484   8.666  16.987  0.00  0.00    +0.000 HD
ENDBRANCH   3  13
BRANCH   1  15
ATOM     15  C   UNL     1       6.023   5.765  16.963  0.00  0.00    +0.000 C 
BRANCH  15  17
ATOM     16  O   UNL     1       5.644   4.248  13.969  0.00  0.00    +0.000 OA
ATOM     17  P   UNL     1       5.817   4.943  15.342  0.00  0.00    +0.000 P 
BRANCH  17  18
ATOM     18  O   UNL     1       6.143   3.508  16.079  0.00  0.00    +0.000 OA
ATOM     19  H   UNL     1       6.864   3.673  16.721  0.00  0.00    +0.000 HD
ENDBRANCH  17  18
BRANCH  17  20
ATOM     20  O   UNL     1       7.377   5.335  15.012  0.00  0.00    +0.000 OA
ATOM     21  H   UNL     1       7.950   4.755  15.554  0.00  0.00    +0.000 HD
ENDBRANCH  17  20
ENDBRANCH  15  17
ENDBRANCH   1  15
TORSDOF 5
ENDMDL
MODEL 4
REMARK VINA RESULT:      -6.8      4.346      5.518
REMARK  Name = 
REMARK  5 active torsions:
REMARK  status: ('A' for Active; 'I' for Inactive)
REMARK    1  A    between atoms: P_2  and  O_3
REMARK    2  A    between atoms: P_2  and  O_4
REMARK    3  A    between atoms: P_2  and  C_5
REMARK    4  A    between atoms: C_5  and  C_6
REMARK    5  A    between atoms: C_8  and  O_9
REMARK                            x       y       z     vdW  Elec       q    Type
REMARK                         _______ _______ _______ _____ _____    ______ ____
ROOT
ATOM      1  C   UNL     1       6.014   4.387  17.099  0.00  0.00    +0.000 A 
ATOM      2  C   UNL     1       7.212   4.922  17.587  0.00  0.00    +0.000 A 
ATOM      3  C   UNL     1       7.213   5.465  18.852  0.00  0.00    +0.000 A 
ATOM      4  N   UNL     1       6.139   5.502  19.653  0.00  0.00    +0.000 NA
ATOM      5  C   UNL     1       4.991   4.978  19.205  0.00  0.00    +0.000 A 
ATOM      6  C   UNL     1       3.873   5.056  20.022  0.00  0.00    +0.000 A 
ATOM      7  C   UNL     1       2.632   4.558  19.625  0.00  0.00    +0.000 A 
ATOM      8 CL   UNL     1       1.292   4.769  20.695  0.00  0.00    +0.000 Cl
ATOM      9  C   UNL     1       2.504   3.926  18.393  0.00  0.00    +0.000 A 
ATOM     10 CL   UNL     1       1.012   3.277  17.819  0.00  0.00    +0.000 Cl
ATOM     11  C   UNL     1       3.620   3.824  17.557  0.00  0.00    +0.000 A 
ATOM     12  C   UNL     1       4.868   4.377  17.930  0.00  0.00    +0.000 A 
ENDROOT
BRANCH   3  13
ATOM     13  O   UNL     1       8.336   6.038  19.371  0.00  0.00    +0.000 OA
ATOM     14  H   UNL     1       9.082   5.440  19.213  0.00  0.00    +0.000 HD
ENDBRANCH   3  13
BRANCH   1  15
ATOM     15  C   UNL     1       6.011   3.841  15.687  0.00  0.00    +0.000 C 
BRANCH  15  17
ATOM     16  O   UNL     1       7.958   5.559  13.527  0.00  0.00    +0.000 OA
ATOM     17  P   UNL     1       7.066   4.772  14.517  0.00  0.00    +0.000 P 
BRANCH  17  18
ATOM     18  O   UNL     1       5.997   6.020  14.618  0.00  0.00    +0.000 OA
ATOM     19  H   UNL     1       6.488   6.836  14.393  0.00  0.00    +0.000 HD
ENDBRANCH  17  18
BRANCH  17  20
ATOM     20  O   UNL     1       6.306   3.981  13.296  0.00  0.00    +0.000 OA
ATOM     21  H   UNL     1       6.445   3.021  13.432  0.00  0.00    +0.000 HD
ENDBRANCH  17  20
ENDBRANCH  15  17
ENDBRANCH   1  15
TORSDOF 5
ENDMDL
MODEL 5
REMARK VINA RESULT:      -6.8      4.341      5.849
REMARK  Name = 
REMARK  5 active torsions:
REMARK  status: ('A' for Active; 'I' for Inactive)
REMARK    1  A    between atoms: P_2  and  O_3
REMARK    2  A    between atoms: P_2  and  O_4
REMARK    3  A    between atoms: P_2  and  C_5
REMARK    4  A    between atoms: C_5  and  C_6
REMARK    5  A    between atoms: C_8  and  O_9
REMARK                            x       y       z     vdW  Elec       q    Type
REMARK                         _______ _______ _______ _____ _____    ______ ____
ROOT
ATOM      1  C   UNL     1       4.722   6.127  17.638  0.00  0.00    +0.000 A 
ATOM      2  C   UNL     1       4.277   7.448  17.506  0.00  0.00    +0.000 A 
ATOM      3  C   UNL     1       2.931   7.696  17.650  0.00  0.00    +0.000 A 
ATOM      4  N   UNL     1       2.018   6.753  17.922  0.00  0.00    +0.000 NA
ATOM      5  C   UNL     1       2.433   5.488  18.068  0.00  0.00    +0.000 A 
ATOM      6  C   UNL     1       1.480   4.510  18.309  0.00  0.00    +0.000 A 
ATOM      7  C   UNL     1       1.821   3.165  18.450  0.00  0.00    +0.000 A 
ATOM      8 CL   UNL     1       0.545   2.023  18.680  0.00  0.00    +0.000 Cl
ATOM      9  C   UNL     1       3.157   2.782  18.389  0.00  0.00    +0.000 A 
ATOM     10 CL   UNL     1       3.674   1.144  18.554  0.00  0.00    +0.000 Cl
ATOM     11  C   UNL     1       4.137   3.752  18.159  0.00  0.00    +0.000 A 
ATOM     12  C   UNL     1       3.792   5.109  17.960  0.00  0.00    +0.000 A 
ENDROOT
BRANCH   3  13
ATOM     13  O   UNL     1       2.427   8.954  17.494  0.00  0.00    +0.000 OA
ATOM     14  H   UNL     1       2.560   9.222  16.573  0.00  0.00    +0.000 HD
ENDBRANCH   3  13
BRANCH   1  15
ATOM     15  C   UNL     1       6.196   5.857  17.424  0.00  0.00    +0.000 C 
BRANCH  15  17
ATOM     16  O   UNL     1       7.934   5.296  20.265  0.00  0.00    +0.000 OA
ATOM     17  P   UNL     1       7.137   5.554  18.963  0.00  0.00    +0.000 P 
BRANCH  17  18
ATOM     18  O   UNL     1       8.151   6.775  18.529  0.00  0.00    +0.000 OA
ATOM     19  H   UNL     1       8.102   7.453  19.235  0.00  0.00    +0.000 HD
ENDBRANCH  17  18
BRANCH  17  20
ATOM     20  O   UNL     1       7.939   4.362  18.167  0.00  0.00    +0.000 OA
ATOM     21  H   UNL     1       8.876   4.636  18.088  0.00  0.00    +0.000 HD
ENDBRANCH  17  20
ENDBRANCH  15  17
ENDBRANCH   1  15
TORSDOF 5
ENDMDL
MODEL 6
REMARK VINA RESULT:      -6.8      4.563      5.936
REMARK  Name = 
REMARK  5 active torsions:
REMARK  status: ('A' for Active; 'I' for Inactive)
REMARK    1  A    between atoms: P_2  and  O_3
REMARK    2  A    between atoms: P_2  and  O_4
REMARK    3  A    between atoms: P_2  and  C_5
REMARK    4  A    between atoms: C_5  and  C_6
REMARK    5  A    between atoms: C_8  and  O_9
REMARK                            x       y       z     vdW  Elec       q    Type
REMARK                         _______ _______ _______ _____ _____    ______ ____
ROOT
ATOM      1  C   UNL     1       4.767   6.064  17.938  0.00  0.00    +0.000 A 
ATOM      2  C   UNL     1       4.329   7.378  17.733  0.00  0.00    +0.000 A 
ATOM      3  C   UNL     1       2.974   7.617  17.729  0.00  0.00    +0.000 A 
ATOM      4  N   UNL     1       2.044   6.670  17.921  0.00  0.00    +0.000 NA
ATOM      5  C   UNL     1       2.450   5.413  18.135  0.00  0.00    +0.000 A 
ATOM      6  C   UNL     1       1.484   4.431  18.293  0.00  0.00    +0.000 A 
ATOM      7  C   UNL     1       1.817   3.091  18.495  0.00  0.00    +0.000 A 
ATOM      8 CL   UNL     1       0.532   1.943  18.612  0.00  0.00    +0.000 Cl
ATOM      9  C   UNL     1       3.155   2.720  18.584  0.00  0.00    +0.000 A 
ATOM     10 CL   UNL     1       3.662   1.090  18.835  0.00  0.00    +0.000 Cl
ATOM     11  C   UNL     1       4.146   3.694  18.440  0.00  0.00    +0.000 A 
ATOM     12  C   UNL     1       3.815   5.044  18.179  0.00  0.00    +0.000 A 
ENDROOT
BRANCH   3  13
ATOM     13  O   UNL     1       2.480   8.867  17.496  0.00  0.00    +0.000 OA
ATOM     14  H   UNL     1       1.686   8.782  16.948  0.00  0.00    +0.000 HD
ENDBRANCH   3  13
BRANCH   1  15
ATOM     15  C   UNL     1       6.257   5.804  17.887  0.00  0.00    +0.000 C 
BRANCH  15  17
ATOM     16  O   UNL     1       7.460   5.205  14.787  0.00  0.00    +0.000 OA
ATOM     17  P   UNL     1       6.908   5.479  16.208  0.00  0.00    +0.000 P 
BRANCH  17  18
ATOM     18  O   UNL     1       7.980   4.425  16.878  0.00  0.00    +0.000 OA
ATOM     19  H   UNL     1       7.859   4.471  17.848  0.00  0.00    +0.000 HD
ENDBRANCH  17  18
BRANCH  17  20
ATOM     20  O   UNL     1       7.842   6.819  16.376  0.00  0.00    +0.000 OA
ATOM     21  H   UNL     1       8.207   6.814  17.285  0.00  0.00    +0.000 HD
ENDBRANCH  17  20
ENDBRANCH  15  17
ENDBRANCH   1  15
TORSDOF 5
ENDMDL
MODEL 7
REMARK VINA RESULT:      -6.7      4.318      5.910
REMARK  Name = 
REMARK  5 active torsions:
REMARK  status: ('A' for Active; 'I' for Inactive)
REMARK    1  A    between atoms: P_2  and  O_3
REMARK    2  A    between atoms: P_2  and  O_4
REMARK    3  A    between atoms: P_2  and  C_5
REMARK    4  A    between atoms: C_5  and  C_6
REMARK    5  A    between atoms: C_8  and  O_9
REMARK                            x       y       z     vdW  Elec       q    Type
REMARK                         _______ _______ _______ _____ _____    ______ ____
ROOT
ATOM      1  C   UNL     1       4.281   6.049  16.961  0.00  0.00    +0.000 A 
ATOM      2  C   UNL     1       3.957   7.408  17.046  0.00  0.00    +0.000 A 
ATOM      3  C   UNL     1       3.011   7.793  17.969  0.00  0.00    +0.000 A 
ATOM      4  N   UNL     1       2.387   6.947  18.800  0.00  0.00    +0.000 NA
ATOM      5  C   UNL     1       2.700   5.647  18.741  0.00  0.00    +0.000 A 
ATOM      6  C   UNL     1       2.022   4.772  19.576  0.00  0.00    +0.000 A 
ATOM      7  C   UNL     1       2.268   3.398  19.563  0.00  0.00    +0.000 A 
ATOM      8 CL   UNL     1       1.317   2.393  20.597  0.00  0.00    +0.000 Cl
ATOM      9  C   UNL     1       3.247   2.881  18.721  0.00  0.00    +0.000 A 
ATOM     10 CL   UNL     1       3.622   1.199  18.638  0.00  0.00    +0.000 Cl
ATOM     11  C   UNL     1       3.952   3.745  17.879  0.00  0.00    +0.000 A 
ATOM     12  C   UNL     1       3.669   5.131  17.848  0.00  0.00    +0.000 A 
ENDROOT
BRANCH   3  13
ATOM     13  O   UNL     1       2.621   9.095  18.075  0.00  0.00    +0.000 OA
ATOM     14  H   UNL     1       3.262   9.643  17.599  0.00  0.00    +0.000 HD
ENDBRANCH   3  13
BRANCH   1  15
ATOM     15  C   UNL     1       5.284   5.630  15.907  0.00  0.00    +0.000 C 
BRANCH  15  17
ATOM     16  O   UNL     1       8.121   4.278  17.145  0.00  0.00    +0.000 OA
ATOM     17  P   UNL     1       6.821   4.898  16.578  0.00  0.00    +0.000 P 
BRANCH  17  18
ATOM     18  O   UNL     1       7.531   6.376  16.438  0.00  0.00    +0.000 OA
ATOM     19  H   UNL     1       6.826   7.011  16.200  0.00  0.00    +0.000 HD
ENDBRANCH  17  18
BRANCH  17  20
ATOM     20  O   UNL     1       7.169   4.384  15.058  0.00  0.00    +0.000 OA
ATOM     21  H   UNL     1       7.630   5.114  14.596  0.00  0.00    +0.000 HD
ENDBRANCH  17  20
ENDBRANCH  15  17
ENDBRANCH   1  15
TORSDOF 5
ENDMDL
MODEL 8
REMARK VINA RESULT:      -6.7      1.019      1.193
REMARK  Name = 
REMARK  5 active torsions:
REMARK  status: ('A' for Active; 'I' for Inactive)
REMARK    1  A    between atoms: P_2  and  O_3
REMARK    2  A    between atoms: P_2  and  O_4
REMARK    3  A    between atoms: P_2  and  C_5
REMARK    4  A    between atoms: C_5  and  C_6
REMARK    5  A    between atoms: C_8  and  O_9
REMARK                            x       y       z     vdW  Elec       q    Type
REMARK                         _______ _______ _______ _____ _____    ______ ____
ROOT
ATOM      1  C   UNL     1       4.971   3.987  17.744  0.00  0.00    +0.000 A 
ATOM      2  C   UNL     1       5.535   4.455  18.936  0.00  0.00    +0.000 A 
ATOM      3  C   UNL     1       6.709   5.169  18.862  0.00  0.00    +0.000 A 
ATOM      4  N   UNL     1       7.342   5.456  17.716  0.00  0.00    +0.000 NA
ATOM      5  C   UNL     1       6.804   5.030  16.567  0.00  0.00    +0.000 A 
ATOM      6  C   UNL     1       7.484   5.295  15.388  0.00  0.00    +0.000 A 
ATOM      7  C   UNL     1       7.009   4.867  14.148  0.00  0.00    +0.000 A 
ATOM      8 CL   UNL     1       7.971   5.194  12.751  0.00  0.00    +0.000 Cl
ATOM      9  C   UNL     1       5.798   4.187  14.072  0.00  0.00    +0.000 A 
ATOM     10 CL   UNL     1       5.129   3.622  12.585  0.00  0.00    +0.000 Cl
ATOM     11  C   UNL     1       5.088   3.919  15.246  0.00  0.00    +0.000 A 
ATOM     12  C   UNL     1       5.592   4.302  16.511  0.00  0.00    +0.000 A 
ENDROOT
BRANCH   3  13
ATOM     13  O   UNL     1       7.331   5.619  19.990  0.00  0.00    +0.000 OA
ATOM     14  H   UNL     1       7.972   6.298  19.732  0.00  0.00    +0.000 HD
ENDBRANCH   3  13
BRANCH   1  15
ATOM     15  C   UNL     1       3.709   3.158  17.840  0.00  0.00    +0.000 C 
BRANCH  15  17
ATOM     16  O   UNL     1       2.845   2.299  20.991  0.00  0.00    +0.000 OA
ATOM     17  P   UNL     1       3.241   2.693  19.547  0.00  0.00    +0.000 P 
BRANCH  17  18
ATOM     18  O   UNL     1       4.449   1.575  19.524  0.00  0.00    +0.000 OA
ATOM     19  H   UNL     1       4.180   0.851  20.126  0.00  0.00    +0.000 HD
ENDBRANCH  17  18
BRANCH  17  20
ATOM     20  O   UNL     1       2.085   1.723  18.902  0.00  0.00    +0.000 OA
ATOM     21  H   UNL     1       1.719   1.174  19.626  0.00  0.00    +0.000 HD
ENDBRANCH  17  20
ENDBRANCH  15  17
ENDBRANCH   1  15
TORSDOF 5
ENDMDL
MODEL 9
REMARK VINA RESULT:      -6.6      0.660      1.038
REMARK  Name = 
REMARK  5 active torsions:
REMARK  status: ('A' for Active; 'I' for Inactive)
REMARK    1  A    between atoms: P_2  and  O_3
REMARK    2  A    between atoms: P_2  and  O_4
REMARK    3  A    between atoms: P_2  and  C_5
REMARK    4  A    between atoms: C_5  and  C_6
REMARK    5  A    between atoms: C_8  and  O_9
REMARK                            x       y       z     vdW  Elec       q    Type
REMARK                         _______ _______ _______ _____ _____    ______ ____
ROOT
ATOM      1  C   UNL     1       5.201   3.846  17.878  0.00  0.00    +0.000 A 
ATOM      2  C   UNL     1       5.740   4.370  19.059  0.00  0.00    +0.000 A 
ATOM      3  C   UNL     1       6.833   5.201  18.960  0.00  0.00    +0.000 A 
ATOM      4  N   UNL     1       7.407   5.552  17.801  0.00  0.00    +0.000 NA
ATOM      5  C   UNL     1       6.889   5.072  16.663  0.00  0.00    +0.000 A 
ATOM      6  C   UNL     1       7.512   5.406  15.470  0.00  0.00    +0.000 A 
ATOM      7  C   UNL     1       7.055   4.931  14.240  0.00  0.00    +0.000 A 
ATOM      8 CL   UNL     1       7.946   5.356  12.822  0.00  0.00    +0.000 Cl
ATOM      9  C   UNL     1       5.919   4.130  14.189  0.00  0.00    +0.000 A 
ATOM     10 CL   UNL     1       5.279   3.499  12.717  0.00  0.00    +0.000 Cl
ATOM     11  C   UNL     1       5.267   3.790  15.378  0.00  0.00    +0.000 A 
ATOM     12  C   UNL     1       5.758   4.223  16.632  0.00  0.00    +0.000 A 
ENDROOT
BRANCH   3  13
ATOM     13  O   UNL     1       7.430   5.712  20.074  0.00  0.00    +0.000 OA
ATOM     14  H   UNL     1       8.292   5.282  20.181  0.00  0.00    +0.000 HD
ENDBRANCH   3  13
BRANCH   1  15
ATOM     15  C   UNL     1       4.034   2.891  18.001  0.00  0.00    +0.000 C 
BRANCH  15  17
ATOM     16  O   UNL     1       1.024   4.277  17.342  0.00  0.00    +0.000 OA
ATOM     17  P   UNL     1       2.404   3.642  17.645  0.00  0.00    +0.000 P 
BRANCH  17  18
ATOM     18  O   UNL     1       2.251   3.963  19.252  0.00  0.00    +0.000 OA
ATOM     19  H   UNL     1       3.031   3.573  19.697  0.00  0.00    +0.000 HD
ENDBRANCH  17  18
BRANCH  17  20
ATOM     20  O   UNL     1       1.762   2.132  17.700  0.00  0.00    +0.000 OA
ATOM     21  H   UNL     1       1.409   1.926  16.810  0.00  0.00    +0.000 HD
ENDBRANCH  17  20
ENDBRANCH  15  17
ENDBRANCH   1  15
TORSDOF 5
ENDMDL
