MODEL 1
REMARK VINA RESULT:      -7.7      0.000      0.000
REMARK  Name = 
REMARK  2 active torsions:
REMARK  status: ('A' for Active; 'I' for Inactive)
REMARK    1  A    between atoms: C_4  and  C_5
REMARK    2  A    between atoms: C_7  and  C_8
REMARK                            x       y       z     vdW  Elec       q    Type
REMARK                         _______ _______ _______ _____ _____    ______ ____
ROOT
ATOM      1  C   UNL     1       6.354   5.997  17.139  0.00  0.00    +0.000 A 
ATOM      2  C   UNL     1       6.556   5.590  15.818  0.00  0.00    +0.000 A 
ATOM      3  C   UNL     1       5.743   4.611  15.270  0.00  0.00    +0.000 A 
ATOM      4  N   UNL     1       4.711   4.063  15.951  0.00  0.00    +0.000 NA
ATOM      5  C   UNL     1       4.506   4.445  17.243  0.00  0.00    +0.000 A 
ATOM      6  C   UNL     1       5.315   5.394  17.882  0.00  0.00    +0.000 A 
ATOM      7  C   UNL     1       5.076   5.760  19.322  0.00  0.00    +0.000 C 
ATOM      8  C   UNL     1       3.912   5.107  20.061  0.00  0.00    +0.000 C 
ATOM      9  C   UNL     1       3.081   4.129  19.288  0.00  0.00    +0.000 A 
ATOM     10  C   UNL     1       1.997   3.530  19.957  0.00  0.00    +0.000 A 
ATOM     11  C   UNL     1       1.181   2.613  19.306  0.00  0.00    +0.000 A 
ATOM     12  C   UNL     1       1.441   2.292  17.980  0.00  0.00    +0.000 A 
ATOM     13  C   UNL     1       2.519   2.883  17.311  0.00  0.00    +0.000 A 
ATOM     14  C   UNL     1       3.365   3.813  17.946  0.00  0.00    +0.000 A 
ENDROOT
BRANCH   1  18
ATOM     15  C   UNL     1       8.682   8.445  18.653  0.00  0.00    +0.000 A 
ATOM     16  C   UNL     1       7.958   9.129  17.706  0.00  0.00    +0.000 A 
ATOM     17  O   UNL     1       7.051   8.308  17.125  0.00  0.00    +0.000 OA
ATOM     18  C   UNL     1       7.210   7.066  17.665  0.00  0.00    +0.000 A 
ATOM     19  C   UNL     1       8.187   7.118  18.641  0.00  0.00    +0.000 A 
ENDBRANCH   1  18
BRANCH   3  20
ATOM     20  C   UNL     1       5.935   4.105  13.900  0.00  0.00    +0.000 A 
ATOM     21  C   UNL     1       5.081   3.344  13.121  0.00  0.00    +0.000 A 
ATOM     22  C   UNL     1       5.617   3.047  11.831  0.00  0.00    +0.000 A 
ATOM     23  C   UNL     1       6.877   3.573  11.665  0.00  0.00    +0.000 A 
ATOM     24  S   UNL     1       7.404   4.414  13.052  0.00  0.00    +0.000 S 
ENDBRANCH   3  20
TORSDOF 2
ENDMDL
MODEL 2
REMARK VINA RESULT:      -6.6      9.035     11.267
REMARK  Name = 
REMARK  2 active torsions:
REMARK  status: ('A' for Active; 'I' for Inactive)
REMARK    1  A    between atoms: C_4  and  C_5
REMARK    2  A    between atoms: C_7  and  C_8
REMARK                            x       y       z     vdW  Elec       q    Type
REMARK                         _______ _______ _______ _____ _____    ______ ____
ROOT
ATOM      1  C   UNL     1       0.278  10.838  18.752  0.00  0.00    +0.000 A 
ATOM      2  C   UNL     1      -1.112  10.701  18.735  0.00  0.00    +0.000 A 
ATOM      3  C   UNL     1      -1.912  11.833  18.750  0.00  0.00    +0.000 A 
ATOM      4  N   UNL     1      -1.397  13.083  18.724  0.00  0.00    +0.000 NA
ATOM      5  C   UNL     1      -0.043  13.232  18.747  0.00  0.00    +0.000 A 
ATOM      6  C   UNL     1       0.832  12.137  18.781  0.00  0.00    +0.000 A 
ATOM      7  C   UNL     1       2.320  12.347  18.843  0.00  0.00    +0.000 C 
ATOM      8  C   UNL     1       2.861  13.773  18.828  0.00  0.00    +0.000 C 
ATOM      9  C   UNL     1       1.854  14.879  18.756  0.00  0.00    +0.000 A 
ATOM     10  C   UNL     1       2.343  16.199  18.731  0.00  0.00    +0.000 A 
ATOM     11  C   UNL     1       1.470  17.278  18.665  0.00  0.00    +0.000 A 
ATOM     12  C   UNL     1       0.102  17.045  18.621  0.00  0.00    +0.000 A 
ATOM     13  C   UNL     1      -0.390  15.734  18.650  0.00  0.00    +0.000 A 
ATOM     14  C   UNL     1       0.470  14.621  18.720  0.00  0.00    +0.000 A 
ENDROOT
BRANCH   1  18
ATOM     15  C   UNL     1       2.399   7.841  18.273  0.00  0.00    +0.000 A 
ATOM     16  C   UNL     1       2.032   7.851  19.597  0.00  0.00    +0.000 A 
ATOM     17  O   UNL     1       1.219   8.905  19.850  0.00  0.00    +0.000 OA
ATOM     18  C   UNL     1       1.086   9.615  18.694  0.00  0.00    +0.000 A 
ATOM     19  C   UNL     1       1.774   8.968  17.684  0.00  0.00    +0.000 A 
ENDBRANCH   1  18
BRANCH   3  20
ATOM     20  C   UNL     1      -3.382  11.756  18.782  0.00  0.00    +0.000 A 
ATOM     21  C   UNL     1      -4.242  11.081  17.931  0.00  0.00    +0.000 A 
ATOM     22  C   UNL     1      -5.615  11.238  18.285  0.00  0.00    +0.000 A 
ATOM     23  C   UNL     1      -5.773  12.047  19.386  0.00  0.00    +0.000 A 
ATOM     24  S   UNL     1      -4.277  12.608  19.984  0.00  0.00    +0.000 S 
ENDBRANCH   3  20
TORSDOF 2
ENDMDL
MODEL 3
REMARK VINA RESULT:      -6.6      8.749     11.123
REMARK  Name = 
REMARK  2 active torsions:
REMARK  status: ('A' for Active; 'I' for Inactive)
REMARK    1  A    between atoms: C_4  and  C_5
REMARK    2  A    between atoms: C_7  and  C_8
REMARK                            x       y       z     vdW  Elec       q    Type
REMARK                         _______ _______ _______ _____ _____    ______ ____
ROOT
ATOM      1  C   UNL     1      -1.096  12.378  19.991  0.00  0.00    +0.000 A 
ATOM      2  C   UNL     1      -0.554  11.097  19.859  0.00  0.00    +0.000 A 
ATOM      3  C   UNL     1       0.707  10.940  19.307  0.00  0.00    +0.000 A 
ATOM      4  N   UNL     1       1.471  11.993  18.937  0.00  0.00    +0.000 NA
ATOM      5  C   UNL     1       0.953  13.248  19.054  0.00  0.00    +0.000 A 
ATOM      6  C   UNL     1      -0.333  13.485  19.558  0.00  0.00    +0.000 A 
ATOM      7  C   UNL     1      -0.880  14.884  19.636  0.00  0.00    +0.000 C 
ATOM      8  C   UNL     1       0.006  16.044  19.193  0.00  0.00    +0.000 C 
ATOM      9  C   UNL     1       1.378  15.699  18.701  0.00  0.00    +0.000 A 
ATOM     10  C   UNL     1       2.209  16.763  18.300  0.00  0.00    +0.000 A 
ATOM     11  C   UNL     1       3.494  16.522  17.832  0.00  0.00    +0.000 A 
ATOM     12  C   UNL     1       3.959  15.215  17.762  0.00  0.00    +0.000 A 
ATOM     13  C   UNL     1       3.136  14.154  18.156  0.00  0.00    +0.000 A 
ATOM     14  C   UNL     1       1.828  14.366  18.632  0.00  0.00    +0.000 A 
ENDROOT
BRANCH   1  18
ATOM     15  C   UNL     1      -4.259  12.746  21.879  0.00  0.00    +0.000 A 
ATOM     16  C   UNL     1      -4.606  12.650  20.553  0.00  0.00    +0.000 A 
ATOM     17  O   UNL     1      -3.499  12.476  19.791  0.00  0.00    +0.000 OA
ATOM     18  C   UNL     1      -2.416  12.500  20.619  0.00  0.00    +0.000 A 
ATOM     19  C   UNL     1      -2.848  12.630  21.925  0.00  0.00    +0.000 A 
ENDBRANCH   1  18
BRANCH   3  20
ATOM     20  C   UNL     1       1.314   9.615  19.096  0.00  0.00    +0.000 A 
ATOM     21  C   UNL     1       1.812   9.056  17.931  0.00  0.00    +0.000 A 
ATOM     22  C   UNL     1       2.330   7.740  18.120  0.00  0.00    +0.000 A 
ATOM     23  C   UNL     1       2.195   7.316  19.422  0.00  0.00    +0.000 A 
ATOM     24  S   UNL     1       1.451   8.498  20.402  0.00  0.00    +0.000 S 
ENDBRANCH   3  20
TORSDOF 2
ENDMDL
MODEL 4
REMARK VINA RESULT:      -6.6      3.633      5.807
REMARK  Name = 
REMARK  2 active torsions:
REMARK  status: ('A' for Active; 'I' for Inactive)
REMARK    1  A    between atoms: C_4  and  C_5
REMARK    2  A    between atoms: C_7  and  C_8
REMARK                            x       y       z     vdW  Elec       q    Type
REMARK                         _______ _______ _______ _____ _____    ______ ____
ROOT
ATOM      1  C   UNL     1       2.815   4.836  19.542  0.00  0.00    +0.000 A 
ATOM      2  C   UNL     1       3.731   4.539  18.531  0.00  0.00    +0.000 A 
ATOM      3  C   UNL     1       4.086   5.520  17.618  0.00  0.00    +0.000 A 
ATOM      4  N   UNL     1       3.619   6.786  17.699  0.00  0.00    +0.000 NA
ATOM      5  C   UNL     1       2.720   7.089  18.677  0.00  0.00    +0.000 A 
ATOM      6  C   UNL     1       2.275   6.140  19.607  0.00  0.00    +0.000 A 
ATOM      7  C   UNL     1       1.253   6.507  20.648  0.00  0.00    +0.000 C 
ATOM      8  C   UNL     1       0.738   7.942  20.696  0.00  0.00    +0.000 C 
ATOM      9  C   UNL     1       1.295   8.896  19.684  0.00  0.00    +0.000 A 
ATOM     10  C   UNL     1       0.834  10.226  19.727  0.00  0.00    +0.000 A 
ATOM     11  C   UNL     1       1.304  11.169  18.821  0.00  0.00    +0.000 A 
ATOM     12  C   UNL     1       2.239  10.789  17.866  0.00  0.00    +0.000 A 
ATOM     13  C   UNL     1       2.697   9.467  17.817  0.00  0.00    +0.000 A 
ATOM     14  C   UNL     1       2.237   8.489  18.720  0.00  0.00    +0.000 A 
ENDROOT
BRANCH   1  18
ATOM     15  C   UNL     1       1.685   2.286  21.976  0.00  0.00    +0.000 A 
ATOM     16  C   UNL     1       2.993   1.990  21.682  0.00  0.00    +0.000 A 
ATOM     17  O   UNL     1       3.497   2.904  20.818  0.00  0.00    +0.000 OA
ATOM     18  C   UNL     1       2.499   3.780  20.511  0.00  0.00    +0.000 A 
ATOM     19  C   UNL     1       1.370   3.452  21.237  0.00  0.00    +0.000 A 
ENDBRANCH   1  18
BRANCH   3  20
ATOM     20  C   UNL     1       5.009   5.257  16.501  0.00  0.00    +0.000 A 
ATOM     21  C   UNL     1       4.792   4.538  15.337  0.00  0.00    +0.000 A 
ATOM     22  C   UNL     1       5.933   4.505  14.480  0.00  0.00    +0.000 A 
ATOM     23  C   UNL     1       7.002   5.183  15.020  0.00  0.00    +0.000 A 
ATOM     24  S   UNL     1       6.627   5.850  16.545  0.00  0.00    +0.000 S 
ENDBRANCH   3  20
TORSDOF 2
ENDMDL
MODEL 5
REMARK VINA RESULT:      -6.5      1.734      5.473
REMARK  Name = 
REMARK  2 active torsions:
REMARK  status: ('A' for Active; 'I' for Inactive)
REMARK    1  A    between atoms: C_4  and  C_5
REMARK    2  A    between atoms: C_7  and  C_8
REMARK                            x       y       z     vdW  Elec       q    Type
REMARK                         _______ _______ _______ _____ _____    ______ ____
ROOT
ATOM      1  C   UNL     1       6.306   5.823  16.794  0.00  0.00    +0.000 A 
ATOM      2  C   UNL     1       5.204   5.296  17.471  0.00  0.00    +0.000 A 
ATOM      3  C   UNL     1       4.400   4.356  16.846  0.00  0.00    +0.000 A 
ATOM      4  N   UNL     1       4.673   3.878  15.611  0.00  0.00    +0.000 NA
ATOM      5  C   UNL     1       5.741   4.386  14.935  0.00  0.00    +0.000 A 
ATOM      6  C   UNL     1       6.573   5.374  15.481  0.00  0.00    +0.000 A 
ATOM      7  C   UNL     1       7.720   5.935  14.686  0.00  0.00    +0.000 C 
ATOM      8  C   UNL     1       7.985   5.381  13.289  0.00  0.00    +0.000 C 
ATOM      9  C   UNL     1       7.065   4.303  12.802  0.00  0.00    +0.000 A 
ATOM     10  C   UNL     1       7.308   3.777  11.519  0.00  0.00    +0.000 A 
ATOM     11  C   UNL     1       6.499   2.776  10.998  0.00  0.00    +0.000 A 
ATOM     12  C   UNL     1       5.441   2.292  11.758  0.00  0.00    +0.000 A 
ATOM     13  C   UNL     1       5.194   2.814  13.033  0.00  0.00    +0.000 A 
ATOM     14  C   UNL     1       5.995   3.831  13.586  0.00  0.00    +0.000 A 
ENDROOT
BRANCH   1  18
ATOM     15  C   UNL     1       8.573   7.975  18.776  0.00  0.00    +0.000 A 
ATOM     16  C   UNL     1       7.999   8.785  17.827  0.00  0.00    +0.000 A 
ATOM     17  O   UNL     1       7.122   8.077  17.075  0.00  0.00    +0.000 OA
ATOM     18  C   UNL     1       7.153   6.784  17.508  0.00  0.00    +0.000 A 
ATOM     19  C   UNL     1       8.014   6.688  18.585  0.00  0.00    +0.000 A 
ENDBRANCH   1  18
BRANCH   3  20
ATOM     20  C   UNL     1       3.197   3.799  17.488  0.00  0.00    +0.000 A 
ATOM     21  C   UNL     1       1.999   4.423  17.791  0.00  0.00    +0.000 A 
ATOM     22  C   UNL     1       1.056   3.550  18.413  0.00  0.00    +0.000 A 
ATOM     23  C   UNL     1       1.566   2.284  18.589  0.00  0.00    +0.000 A 
ATOM     24  S   UNL     1       3.165   2.155  18.007  0.00  0.00    +0.000 S 
ENDBRANCH   3  20
TORSDOF 2
ENDMDL
MODEL 6
REMARK VINA RESULT:      -6.5      3.853      7.089
REMARK  Name = 
REMARK  2 active torsions:
REMARK  status: ('A' for Active; 'I' for Inactive)
REMARK    1  A    between atoms: C_4  and  C_5
REMARK    2  A    between atoms: C_7  and  C_8
REMARK                            x       y       z     vdW  Elec       q    Type
REMARK                         _______ _______ _______ _____ _____    ______ ____
ROOT
ATOM      1  C   UNL     1       2.506   5.002  19.497  0.00  0.00    +0.000 A 
ATOM      2  C   UNL     1       2.005   6.303  19.580  0.00  0.00    +0.000 A 
ATOM      3  C   UNL     1       2.447   7.266  18.686  0.00  0.00    +0.000 A 
ATOM      4  N   UNL     1       3.314   6.982  17.687  0.00  0.00    +0.000 NA
ATOM      5  C   UNL     1       3.815   5.719  17.598  0.00  0.00    +0.000 A 
ATOM      6  C   UNL     1       3.454   4.703  18.494  0.00  0.00    +0.000 A 
ATOM      7  C   UNL     1       4.060   3.331  18.382  0.00  0.00    +0.000 C 
ATOM      8  C   UNL     1       5.047   3.055  17.252  0.00  0.00    +0.000 C 
ATOM      9  C   UNL     1       5.348   4.191  16.322  0.00  0.00    +0.000 A 
ATOM     10  C   UNL     1       6.249   3.943  15.269  0.00  0.00    +0.000 A 
ATOM     11  C   UNL     1       6.577   4.947  14.367  0.00  0.00    +0.000 A 
ATOM     12  C   UNL     1       6.006   6.205  14.510  0.00  0.00    +0.000 A 
ATOM     13  C   UNL     1       5.113   6.457  15.558  0.00  0.00    +0.000 A 
ATOM     14  C   UNL     1       4.763   5.460  16.489  0.00  0.00    +0.000 A 
ENDROOT
BRANCH   1  18
ATOM     15  C   UNL     1       0.950   2.394  21.614  0.00  0.00    +0.000 A 
ATOM     16  C   UNL     1       2.034   2.867  22.313  0.00  0.00    +0.000 A 
ATOM     17  O   UNL     1       2.643   3.858  21.618  0.00  0.00    +0.000 OA
ATOM     18  C   UNL     1       1.979   4.006  20.436  0.00  0.00    +0.000 A 
ATOM     19  C   UNL     1       0.901   3.141  20.412  0.00  0.00    +0.000 A 
ENDBRANCH   1  18
BRANCH   3  20
ATOM     20  C   UNL     1       1.994   8.666  18.751  0.00  0.00    +0.000 A 
ATOM     21  C   UNL     1       2.213   9.699  17.855  0.00  0.00    +0.000 A 
ATOM     22  C   UNL     1       1.607  10.926  18.259  0.00  0.00    +0.000 A 
ATOM     23  C   UNL     1       0.958  10.807  19.465  0.00  0.00    +0.000 A 
ATOM     24  S   UNL     1       1.079   9.228  20.100  0.00  0.00    +0.000 S 
ENDBRANCH   3  20
TORSDOF 2
ENDMDL
MODEL 7
REMARK VINA RESULT:      -6.4      8.908     11.174
REMARK  Name = 
REMARK  2 active torsions:
REMARK  status: ('A' for Active; 'I' for Inactive)
REMARK    1  A    between atoms: C_4  and  C_5
REMARK    2  A    between atoms: C_7  and  C_8
REMARK                            x       y       z     vdW  Elec       q    Type
REMARK                         _______ _______ _______ _____ _____    ______ ____
ROOT
ATOM      1  C   UNL     1       0.362  10.902  18.680  0.00  0.00    +0.000 A 
ATOM      2  C   UNL     1      -1.024  10.746  18.601  0.00  0.00    +0.000 A 
ATOM      3  C   UNL     1      -1.841  11.866  18.595  0.00  0.00    +0.000 A 
ATOM      4  N   UNL     1      -1.343  13.124  18.608  0.00  0.00    +0.000 NA
ATOM      5  C   UNL     1       0.006  13.291  18.691  0.00  0.00    +0.000 A 
ATOM      6  C   UNL     1       0.894  12.208  18.750  0.00  0.00    +0.000 A 
ATOM      7  C   UNL     1       2.375  12.438  18.879  0.00  0.00    +0.000 C 
ATOM      8  C   UNL     1       2.896  13.872  18.906  0.00  0.00    +0.000 C 
ATOM      9  C   UNL     1       1.876  14.965  18.805  0.00  0.00    +0.000 A 
ATOM     10  C   UNL     1       2.347  16.292  18.818  0.00  0.00    +0.000 A 
ATOM     11  C   UNL     1       1.462  17.359  18.727  0.00  0.00    +0.000 A 
ATOM     12  C   UNL     1       0.100  17.107  18.621  0.00  0.00    +0.000 A 
ATOM     13  C   UNL     1      -0.373  15.790  18.612  0.00  0.00    +0.000 A 
ATOM     14  C   UNL     1       0.499  14.688  18.704  0.00  0.00    +0.000 A 
ENDROOT
BRANCH   1  18
ATOM     15  C   UNL     1       2.323   7.770  18.901  0.00  0.00    +0.000 A 
ATOM     16  C   UNL     1       2.506   8.255  17.629  0.00  0.00    +0.000 A 
ATOM     17  O   UNL     1       1.845   9.428  17.475  0.00  0.00    +0.000 OA
ATOM     18  C   UNL     1       1.190   9.692  18.641  0.00  0.00    +0.000 A 
ATOM     19  C   UNL     1       1.490   8.706  19.562  0.00  0.00    +0.000 A 
ENDBRANCH   1  18
BRANCH   3  20
ATOM     20  C   UNL     1      -3.309  11.768  18.562  0.00  0.00    +0.000 A 
ATOM     21  C   UNL     1      -4.237  12.206  19.492  0.00  0.00    +0.000 A 
ATOM     22  C   UNL     1      -5.585  11.935  19.107  0.00  0.00    +0.000 A 
ATOM     23  C   UNL     1      -5.653  11.276  17.902  0.00  0.00    +0.000 A 
ATOM     24  S   UNL     1      -4.104  10.991  17.244  0.00  0.00    +0.000 S 
ENDBRANCH   3  20
TORSDOF 2
ENDMDL
MODEL 8
REMARK VINA RESULT:      -6.4     11.248     13.051
REMARK  Name = 
REMARK  2 active torsions:
REMARK  status: ('A' for Active; 'I' for Inactive)
REMARK    1  A    between atoms: C_4  and  C_5
REMARK    2  A    between atoms: C_7  and  C_8
REMARK                            x       y       z     vdW  Elec       q    Type
REMARK                         _______ _______ _______ _____ _____    ______ ____
ROOT
ATOM      1  C   UNL     1      -3.240  11.728  18.434  0.00  0.00    +0.000 A 
ATOM      2  C   UNL     1      -2.082  12.335  18.926  0.00  0.00    +0.000 A 
ATOM      3  C   UNL     1      -2.118  12.996  20.144  0.00  0.00    +0.000 A 
ATOM      4  N   UNL     1      -3.229  13.030  20.915  0.00  0.00    +0.000 NA
ATOM      5  C   UNL     1      -4.368  12.448  20.445  0.00  0.00    +0.000 A 
ATOM      6  C   UNL     1      -4.423  11.803  19.202  0.00  0.00    +0.000 A 
ATOM      7  C   UNL     1      -5.711  11.205  18.705  0.00  0.00    +0.000 C 
ATOM      8  C   UNL     1      -6.947  11.280  19.597  0.00  0.00    +0.000 C 
ATOM      9  C   UNL     1      -6.785  11.958  20.923  0.00  0.00    +0.000 A 
ATOM     10  C   UNL     1      -7.916  12.022  21.759  0.00  0.00    +0.000 A 
ATOM     11  C   UNL     1      -7.845  12.635  23.003  0.00  0.00    +0.000 A 
ATOM     12  C   UNL     1      -6.641  13.187  23.422  0.00  0.00    +0.000 A 
ATOM     13  C   UNL     1      -5.514  13.129  22.593  0.00  0.00    +0.000 A 
ATOM     14  C   UNL     1      -5.557  12.516  21.326  0.00  0.00    +0.000 A 
ENDROOT
BRANCH   1  18
ATOM     15  C   UNL     1      -2.829   9.650  15.398  0.00  0.00    +0.000 A 
ATOM     16  C   UNL     1      -3.639  10.702  15.044  0.00  0.00    +0.000 A 
ATOM     17  O   UNL     1      -3.811  11.536  16.097  0.00  0.00    +0.000 OA
ATOM     18  C   UNL     1      -3.145  11.005  17.161  0.00  0.00    +0.000 A 
ATOM     19  C   UNL     1      -2.494   9.854  16.759  0.00  0.00    +0.000 A 
ENDBRANCH   1  18
BRANCH   3  20
ATOM     20  C   UNL     1      -0.946  13.696  20.694  0.00  0.00    +0.000 A 
ATOM     21  C   UNL     1       0.267  13.981  20.088  0.00  0.00    +0.000 A 
ATOM     22  C   UNL     1       1.166  14.686  20.944  0.00  0.00    +0.000 A 
ATOM     23  C   UNL     1       0.627  14.903  22.190  0.00  0.00    +0.000 A 
ATOM     24  S   UNL     1      -0.949  14.263  22.322  0.00  0.00    +0.000 S 
ENDBRANCH   3  20
TORSDOF 2
ENDMDL
MODEL 9
REMARK VINA RESULT:      -6.3      9.440     11.219
REMARK  Name = 
REMARK  2 active torsions:
REMARK  status: ('A' for Active; 'I' for Inactive)
REMARK    1  A    between atoms: C_4  and  C_5
REMARK    2  A    between atoms: C_7  and  C_8
REMARK                            x       y       z     vdW  Elec       q    Type
REMARK                         _______ _______ _______ _____ _____    ______ ____
ROOT
ATOM      1  C   UNL     1       0.078  10.822  19.207  0.00  0.00    +0.000 A 
ATOM      2  C   UNL     1       0.533  11.836  20.053  0.00  0.00    +0.000 A 
ATOM      3  C   UNL     1      -0.344  12.825  20.469  0.00  0.00    +0.000 A 
ATOM      4  N   UNL     1      -1.653  12.821  20.132  0.00  0.00    +0.000 NA
ATOM      5  C   UNL     1      -2.110  11.841  19.302  0.00  0.00    +0.000 A 
ATOM      6  C   UNL     1      -1.274  10.834  18.800  0.00  0.00    +0.000 A 
ATOM      7  C   UNL     1      -1.812   9.792  17.856  0.00  0.00    +0.000 C 
ATOM      8  C   UNL     1      -3.291   9.831  17.486  0.00  0.00    +0.000 C 
ATOM      9  C   UNL     1      -4.114  10.924  18.097  0.00  0.00    +0.000 A 
ATOM     10  C   UNL     1      -5.483  10.961  17.771  0.00  0.00    +0.000 A 
ATOM     11  C   UNL     1      -6.311  11.944  18.298  0.00  0.00    +0.000 A 
ATOM     12  C   UNL     1      -5.776  12.896  19.157  0.00  0.00    +0.000 A 
ATOM     13  C   UNL     1      -4.414  12.865  19.481  0.00  0.00    +0.000 A 
ATOM     14  C   UNL     1      -3.550  11.882  18.960  0.00  0.00    +0.000 A 
ENDROOT
BRANCH   1  18
ATOM     15  C   UNL     1       2.560   8.373  17.962  0.00  0.00    +0.000 A 
ATOM     16  C   UNL     1       2.149   7.920  19.192  0.00  0.00    +0.000 A 
ATOM     17  O   UNL     1       1.206   8.747  19.705  0.00  0.00    +0.000 OA
ATOM     18  C   UNL     1       1.029   9.773  18.824  0.00  0.00    +0.000 A 
ATOM     19  C   UNL     1       1.825   9.558  17.714  0.00  0.00    +0.000 A 
ENDBRANCH   1  18
BRANCH   3  20
ATOM     20  C   UNL     1       0.085  13.947  21.322  0.00  0.00    +0.000 A 
ATOM     21  C   UNL     1       1.328  14.550  21.415  0.00  0.00    +0.000 A 
ATOM     22  C   UNL     1       1.360  15.621  22.358  0.00  0.00    +0.000 A 
ATOM     23  C   UNL     1       0.145  15.797  22.978  0.00  0.00    +0.000 A 
ATOM     24  S   UNL     1      -1.020  14.680  22.425  0.00  0.00    +0.000 S 
ENDBRANCH   3  20
TORSDOF 2
ENDMDL
