MODEL 1
REMARK VINA RESULT:      -7.5      0.000      0.000
REMARK  Name = 
REMARK  6 active torsions:
REMARK  status: ('A' for Active; 'I' for Inactive)
REMARK    1  A    between atoms: C_4  and  C_5
REMARK    2  A    between atoms: C_5  and  C_6
REMARK    3  A    between atoms: C_6  and  N_7
REMARK    4  A    between atoms: N_10  and  C_11
REMARK    5  A    between atoms: C_11  and  C_12
REMARK    6  A    between atoms: C_12  and  C_13
REMARK                            x       y       z     vdW  Elec       q    Type
REMARK                         _______ _______ _______ _____ _____    ______ ____
ROOT
ATOM      1  N   UNL     1       7.734   7.806  17.994  0.00  0.00    +0.000 N 
ATOM      2  C   UNL     1       8.201   6.801  18.822  0.00  0.00    +0.000 A 
ATOM      3  C   UNL     1       7.502   5.676  18.501  0.00  0.00    +0.000 A 
ATOM      4  N   UNL     1       6.617   6.015  17.488  0.00  0.00    +0.000 N 
ATOM      5  C   UNL     1       6.827   7.301  17.153  0.00  0.00    +0.000 A 
ENDROOT
BRANCH   1   6
ATOM      6  C   UNL     1       8.247   9.197  17.980  0.00  0.00    +0.000 C 
BRANCH   6   7
ATOM      7  C   UNL     1       9.049   9.574  19.231  0.00  0.00    +0.000 C 
BRANCH   7  11
ATOM      8  C   UNL     1      11.454  13.159  18.934  0.00  0.00    +0.000 A 
ATOM      9  C   UNL     1      11.132  12.635  20.183  0.00  0.00    +0.000 A 
ATOM     10  C   UNL     1      10.332  11.492  20.282  0.00  0.00    +0.000 A 
ATOM     11  C   UNL     1       9.843  10.860  19.131  0.00  0.00    +0.000 A 
ATOM     12  C   UNL     1      10.175  11.400  17.876  0.00  0.00    +0.000 A 
ATOM     13  C   UNL     1      10.971  12.545  17.780  0.00  0.00    +0.000 A 
ENDBRANCH   7  11
ENDBRANCH   6   7
ENDBRANCH   1   6
BRANCH   4  14
ATOM     14  C   UNL     1       5.659   5.150  16.781  0.00  0.00    +0.000 C 
BRANCH  14  15
ATOM     15  C   UNL     1       4.190   5.526  16.999  0.00  0.00    +0.000 C 
BRANCH  15  16
ATOM     16  C   UNL     1       3.373   4.367  17.512  0.00  0.00    +0.000 A 
ATOM     17  C   UNL     1       3.947   3.092  17.609  0.00  0.00    +0.000 A 
ATOM     18  C   UNL     1       3.194   2.016  18.083  0.00  0.00    +0.000 A 
ATOM     19  C   UNL     1       1.865   2.202  18.454  0.00  0.00    +0.000 A 
ATOM     20  C   UNL     1       1.283   3.463  18.346  0.00  0.00    +0.000 A 
ATOM     21  C   UNL     1       2.035   4.545  17.875  0.00  0.00    +0.000 A 
ENDBRANCH  15  16
ENDBRANCH  14  15
ENDBRANCH   4  14
TORSDOF 6
ENDMDL
MODEL 2
REMARK VINA RESULT:      -7.5      1.183      9.428
REMARK  Name = 
REMARK  6 active torsions:
REMARK  status: ('A' for Active; 'I' for Inactive)
REMARK    1  A    between atoms: C_4  and  C_5
REMARK    2  A    between atoms: C_5  and  C_6
REMARK    3  A    between atoms: C_6  and  N_7
REMARK    4  A    between atoms: N_10  and  C_11
REMARK    5  A    between atoms: C_11  and  C_12
REMARK    6  A    between atoms: C_12  and  C_13
REMARK                            x       y       z     vdW  Elec       q    Type
REMARK                         _______ _______ _______ _____ _____    ______ ____
ROOT
ATOM      1  N   UNL     1       6.104   5.865  17.786  0.00  0.00    +0.000 N 
ATOM      2  C   UNL     1       7.139   5.538  18.642  0.00  0.00    +0.000 A 
ATOM      3  C   UNL     1       7.975   6.615  18.673  0.00  0.00    +0.000 A 
ATOM      4  N   UNL     1       7.437   7.577  17.831  0.00  0.00    +0.000 N 
ATOM      5  C   UNL     1       6.264   7.120  17.357  0.00  0.00    +0.000 A 
ENDROOT
BRANCH   1   6
ATOM      6  C   UNL     1       4.946   4.989  17.485  0.00  0.00    +0.000 C 
BRANCH   6   7
ATOM      7  C   UNL     1       3.589   5.619  17.821  0.00  0.00    +0.000 C 
BRANCH   7  11
ATOM      8  C   UNL     1       0.720   3.145  19.911  0.00  0.00    +0.000 A 
ATOM      9  C   UNL     1       1.177   4.326  20.490  0.00  0.00    +0.000 A 
ATOM     10  C   UNL     1       2.126   5.113  19.829  0.00  0.00    +0.000 A 
ATOM     11  C   UNL     1       2.628   4.726  18.579  0.00  0.00    +0.000 A 
ATOM     12  C   UNL     1       2.158   3.532  18.006  0.00  0.00    +0.000 A 
ATOM     13  C   UNL     1       1.214   2.745  18.672  0.00  0.00    +0.000 A 
ENDBRANCH   7  11
ENDBRANCH   6   7
ENDBRANCH   1   6
BRANCH   4  14
ATOM     14  C   UNL     1       7.949   8.926  17.538  0.00  0.00    +0.000 C 
BRANCH  14  15
ATOM     15  C   UNL     1       8.752   9.557  18.679  0.00  0.00    +0.000 C 
BRANCH  15  16
ATOM     16  C   UNL     1       9.404  10.854  18.270  0.00  0.00    +0.000 A 
ATOM     17  C   UNL     1      10.801  10.960  18.244  0.00  0.00    +0.000 A 
ATOM     18  C   UNL     1      11.409  12.159  17.867  0.00  0.00    +0.000 A 
ATOM     19  C   UNL     1      10.629  13.260  17.523  0.00  0.00    +0.000 A 
ATOM     20  C   UNL     1       9.240  13.167  17.561  0.00  0.00    +0.000 A 
ATOM     21  C   UNL     1       8.626  11.965  17.934  0.00  0.00    +0.000 A 
ENDBRANCH  15  16
ENDBRANCH  14  15
ENDBRANCH   4  14
TORSDOF 6
ENDMDL
MODEL 3
REMARK VINA RESULT:      -7.5      1.227      9.215
REMARK  Name = 
REMARK  6 active torsions:
REMARK  status: ('A' for Active; 'I' for Inactive)
REMARK    1  A    between atoms: C_4  and  C_5
REMARK    2  A    between atoms: C_5  and  C_6
REMARK    3  A    between atoms: C_6  and  N_7
REMARK    4  A    between atoms: N_10  and  C_11
REMARK    5  A    between atoms: C_11  and  C_12
REMARK    6  A    between atoms: C_12  and  C_13
REMARK                            x       y       z     vdW  Elec       q    Type
REMARK                         _______ _______ _______ _____ _____    ______ ____
ROOT
ATOM      1  N   UNL     1       5.597   5.868  17.681  0.00  0.00    +0.000 N 
ATOM      2  C   UNL     1       6.230   5.018  18.569  0.00  0.00    +0.000 A 
ATOM      3  C   UNL     1       7.374   5.646  18.963  0.00  0.00    +0.000 A 
ATOM      4  N   UNL     1       7.423   6.864  18.302  0.00  0.00    +0.000 N 
ATOM      5  C   UNL     1       6.295   7.002  17.580  0.00  0.00    +0.000 A 
ENDROOT
BRANCH   1   6
ATOM      6  C   UNL     1       4.293   5.595  17.030  0.00  0.00    +0.000 C 
BRANCH   6   7
ATOM      7  C   UNL     1       3.084   6.076  17.842  0.00  0.00    +0.000 C 
BRANCH   7  11
ATOM      8  C   UNL     1       0.789   3.059  19.929  0.00  0.00    +0.000 A 
ATOM      9  C   UNL     1       1.270   4.171  20.616  0.00  0.00    +0.000 A 
ATOM     10  C   UNL     1       2.036   5.133  19.949  0.00  0.00    +0.000 A 
ATOM     11  C   UNL     1       2.330   4.993  18.586  0.00  0.00    +0.000 A 
ATOM     12  C   UNL     1       1.839   3.866  17.906  0.00  0.00    +0.000 A 
ATOM     13  C   UNL     1       1.078   2.903  18.575  0.00  0.00    +0.000 A 
ENDBRANCH   7  11
ENDBRANCH   6   7
ENDBRANCH   1   6
BRANCH   4  14
ATOM     14  C   UNL     1       8.444   7.920  18.402  0.00  0.00    +0.000 C 
BRANCH  14  15
ATOM     15  C   UNL     1       8.024   9.263  17.797  0.00  0.00    +0.000 C 
BRANCH  15  16
ATOM     16  C   UNL     1       8.794  10.419  18.382  0.00  0.00    +0.000 A 
ATOM     17  C   UNL     1       8.813  11.656  17.723  0.00  0.00    +0.000 A 
ATOM     18  C   UNL     1       9.526  12.729  18.261  0.00  0.00    +0.000 A 
ATOM     19  C   UNL     1      10.230  12.574  19.453  0.00  0.00    +0.000 A 
ATOM     20  C   UNL     1      10.228  11.344  20.106  0.00  0.00    +0.000 A 
ATOM     21  C   UNL     1       9.512  10.267  19.572  0.00  0.00    +0.000 A 
ENDBRANCH  15  16
ENDBRANCH  14  15
ENDBRANCH   4  14
TORSDOF 6
ENDMDL
MODEL 4
REMARK VINA RESULT:      -7.5      0.265      1.083
REMARK  Name = 
REMARK  6 active torsions:
REMARK  status: ('A' for Active; 'I' for Inactive)
REMARK    1  A    between atoms: C_4  and  C_5
REMARK    2  A    between atoms: C_5  and  C_6
REMARK    3  A    between atoms: C_6  and  N_7
REMARK    4  A    between atoms: N_10  and  C_11
REMARK    5  A    between atoms: C_11  and  C_12
REMARK    6  A    between atoms: C_12  and  C_13
REMARK                            x       y       z     vdW  Elec       q    Type
REMARK                         _______ _______ _______ _____ _____    ______ ____
ROOT
ATOM      1  N   UNL     1       7.763   7.630  18.023  0.00  0.00    +0.000 N 
ATOM      2  C   UNL     1       8.203   6.709  18.956  0.00  0.00    +0.000 A 
ATOM      3  C   UNL     1       7.552   5.541  18.689  0.00  0.00    +0.000 A 
ATOM      4  N   UNL     1       6.721   5.773  17.602  0.00  0.00    +0.000 N 
ATOM      5  C   UNL     1       6.920   7.033  17.175  0.00  0.00    +0.000 A 
ENDROOT
BRANCH   1   6
ATOM      6  C   UNL     1       8.242   9.030  17.924  0.00  0.00    +0.000 C 
BRANCH   6   7
ATOM      7  C   UNL     1       8.934   9.538  19.195  0.00  0.00    +0.000 C 
BRANCH   7  11
ATOM      8  C   UNL     1      11.601  12.898  18.632  0.00  0.00    +0.000 A 
ATOM      9  C   UNL     1      11.409  12.363  19.903  0.00  0.00    +0.000 A 
ATOM     10  C   UNL     1      10.526  11.296  20.092  0.00  0.00    +0.000 A 
ATOM     11  C   UNL     1       9.824  10.749  19.009  0.00  0.00    +0.000 A 
ATOM     12  C   UNL     1      10.027  11.299  17.731  0.00  0.00    +0.000 A 
ATOM     13  C   UNL     1      10.906  12.369  17.546  0.00  0.00    +0.000 A 
ENDBRANCH   7  11
ENDBRANCH   6   7
ENDBRANCH   1   6
BRANCH   4  14
ATOM     14  C   UNL     1       5.828   4.826  16.915  0.00  0.00    +0.000 C 
BRANCH  14  15
ATOM     15  C   UNL     1       4.359   5.258  16.878  0.00  0.00    +0.000 C 
BRANCH  15  16
ATOM     16  C   UNL     1       3.436   4.194  17.414  0.00  0.00    +0.000 A 
ATOM     17  C   UNL     1       2.120   4.519  17.771  0.00  0.00    +0.000 A 
ATOM     18  C   UNL     1       1.262   3.537  18.269  0.00  0.00    +0.000 A 
ATOM     19  C   UNL     1       1.712   2.228  18.421  0.00  0.00    +0.000 A 
ATOM     20  C   UNL     1       3.023   1.899  18.082  0.00  0.00    +0.000 A 
ATOM     21  C   UNL     1       3.885   2.881  17.579  0.00  0.00    +0.000 A 
ENDBRANCH  15  16
ENDBRANCH  14  15
ENDBRANCH   4  14
TORSDOF 6
ENDMDL
MODEL 5
REMARK VINA RESULT:      -7.4      0.319      1.072
REMARK  Name = 
REMARK  6 active torsions:
REMARK  status: ('A' for Active; 'I' for Inactive)
REMARK    1  A    between atoms: C_4  and  C_5
REMARK    2  A    between atoms: C_5  and  C_6
REMARK    3  A    between atoms: C_6  and  N_7
REMARK    4  A    between atoms: N_10  and  C_11
REMARK    5  A    between atoms: C_11  and  C_12
REMARK    6  A    between atoms: C_12  and  C_13
REMARK                            x       y       z     vdW  Elec       q    Type
REMARK                         _______ _______ _______ _____ _____    ______ ____
ROOT
ATOM      1  N   UNL     1       7.686   7.740  17.943  0.00  0.00    +0.000 N 
ATOM      2  C   UNL     1       8.177   6.756  18.781  0.00  0.00    +0.000 A 
ATOM      3  C   UNL     1       7.467   5.624  18.510  0.00  0.00    +0.000 A 
ATOM      4  N   UNL     1       6.551   5.940  17.517  0.00  0.00    +0.000 N 
ATOM      5  C   UNL     1       6.753   7.217  17.143  0.00  0.00    +0.000 A 
ENDROOT
BRANCH   1   6
ATOM      6  C   UNL     1       8.201   9.130  17.878  0.00  0.00    +0.000 C 
BRANCH   6   7
ATOM      7  C   UNL     1       8.992   9.556  19.121  0.00  0.00    +0.000 C 
BRANCH   7  11
ATOM      8  C   UNL     1      10.853  13.455  18.890  0.00  0.00    +0.000 A 
ATOM      9  C   UNL     1      10.143  12.954  17.802  0.00  0.00    +0.000 A 
ATOM     10  C   UNL     1       9.565  11.682  17.864  0.00  0.00    +0.000 A 
ATOM     11  C   UNL     1       9.690  10.896  19.018  0.00  0.00    +0.000 A 
ATOM     12  C   UNL     1      10.409  11.414  20.108  0.00  0.00    +0.000 A 
ATOM     13  C   UNL     1      10.991  12.683  20.042  0.00  0.00    +0.000 A 
ENDBRANCH   7  11
ENDBRANCH   6   7
ENDBRANCH   1   6
BRANCH   4  14
ATOM     14  C   UNL     1       5.571   5.059  16.862  0.00  0.00    +0.000 C 
BRANCH  14  15
ATOM     15  C   UNL     1       4.110   5.451  17.106  0.00  0.00    +0.000 C 
BRANCH  15  16
ATOM     16  C   UNL     1       3.285   4.295  17.612  0.00  0.00    +0.000 A 
ATOM     17  C   UNL     1       3.859   3.022  17.733  0.00  0.00    +0.000 A 
ATOM     18  C   UNL     1       3.099   1.949  18.201  0.00  0.00    +0.000 A 
ATOM     19  C   UNL     1       1.761   2.135  18.541  0.00  0.00    +0.000 A 
ATOM     20  C   UNL     1       1.179   3.394  18.408  0.00  0.00    +0.000 A 
ATOM     21  C   UNL     1       1.939   4.473  17.944  0.00  0.00    +0.000 A 
ENDBRANCH  15  16
ENDBRANCH  14  15
ENDBRANCH   4  14
TORSDOF 6
ENDMDL
MODEL 6
REMARK VINA RESULT:      -7.4      0.855      9.575
REMARK  Name = 
REMARK  6 active torsions:
REMARK  status: ('A' for Active; 'I' for Inactive)
REMARK    1  A    between atoms: C_4  and  C_5
REMARK    2  A    between atoms: C_5  and  C_6
REMARK    3  A    between atoms: C_6  and  N_7
REMARK    4  A    between atoms: N_10  and  C_11
REMARK    5  A    between atoms: C_11  and  C_12
REMARK    6  A    between atoms: C_12  and  C_13
REMARK                            x       y       z     vdW  Elec       q    Type
REMARK                         _______ _______ _______ _____ _____    ______ ____
ROOT
ATOM      1  N   UNL     1       6.601   5.796  17.510  0.00  0.00    +0.000 N 
ATOM      2  C   UNL     1       7.520   5.570  18.517  0.00  0.00    +0.000 A 
ATOM      3  C   UNL     1       8.166   6.752  18.729  0.00  0.00    +0.000 A 
ATOM      4  N   UNL     1       7.633   7.676  17.841  0.00  0.00    +0.000 N 
ATOM      5  C   UNL     1       6.636   7.084  17.158  0.00  0.00    +0.000 A 
ENDROOT
BRANCH   1   6
ATOM      6  C   UNL     1       5.654   4.782  16.985  0.00  0.00    +0.000 C 
BRANCH   6   7
ATOM      7  C   UNL     1       4.179   5.165  17.154  0.00  0.00    +0.000 C 
BRANCH   7  11
ATOM      8  C   UNL     1       1.701   2.107  18.952  0.00  0.00    +0.000 A 
ATOM      9  C   UNL     1       1.115   3.217  18.349  0.00  0.00    +0.000 A 
ATOM     10  C   UNL     1       1.915   4.220  17.792  0.00  0.00    +0.000 A 
ATOM     11  C   UNL     1       3.312   4.125  17.833  0.00  0.00    +0.000 A 
ATOM     12  C   UNL     1       3.891   3.000  18.445  0.00  0.00    +0.000 A 
ATOM     13  C   UNL     1       3.090   2.001  19.005  0.00  0.00    +0.000 A 
ENDBRANCH   7  11
ENDBRANCH   6   7
ENDBRANCH   1   6
BRANCH   4  14
ATOM     14  C   UNL     1       7.974   9.099  17.687  0.00  0.00    +0.000 C 
BRANCH  14  15
ATOM     15  C   UNL     1       8.894   9.649  18.781  0.00  0.00    +0.000 C 
BRANCH  15  16
ATOM     16  C   UNL     1       9.552  10.945  18.378  0.00  0.00    +0.000 A 
ATOM     17  C   UNL     1       8.773  12.011  17.910  0.00  0.00    +0.000 A 
ATOM     18  C   UNL     1       9.377  13.212  17.534  0.00  0.00    +0.000 A 
ATOM     19  C   UNL     1      10.761  13.354  17.614  0.00  0.00    +0.000 A 
ATOM     20  C   UNL     1      11.543  12.293  18.064  0.00  0.00    +0.000 A 
ATOM     21  C   UNL     1      10.940  11.089  18.446  0.00  0.00    +0.000 A 
ENDBRANCH  15  16
ENDBRANCH  14  15
ENDBRANCH   4  14
TORSDOF 6
ENDMDL
MODEL 7
REMARK VINA RESULT:      -7.4      1.175      9.403
REMARK  Name = 
REMARK  6 active torsions:
REMARK  status: ('A' for Active; 'I' for Inactive)
REMARK    1  A    between atoms: C_4  and  C_5
REMARK    2  A    between atoms: C_5  and  C_6
REMARK    3  A    between atoms: C_6  and  N_7
REMARK    4  A    between atoms: N_10  and  C_11
REMARK    5  A    between atoms: C_11  and  C_12
REMARK    6  A    between atoms: C_12  and  C_13
REMARK                            x       y       z     vdW  Elec       q    Type
REMARK                         _______ _______ _______ _____ _____    ______ ____
ROOT
ATOM      1  N   UNL     1       6.231   5.481  18.028  0.00  0.00    +0.000 N 
ATOM      2  C   UNL     1       5.794   6.308  17.010  0.00  0.00    +0.000 A 
ATOM      3  C   UNL     1       6.577   7.423  17.051  0.00  0.00    +0.000 A 
ATOM      4  N   UNL     1       7.472   7.259  18.098  0.00  0.00    +0.000 N 
ATOM      5  C   UNL     1       7.283   6.039  18.632  0.00  0.00    +0.000 A 
ENDROOT
BRANCH   1   6
ATOM      6  C   UNL     1       5.676   4.137  18.323  0.00  0.00    +0.000 C 
BRANCH   6   7
ATOM      7  C   UNL     1       4.332   3.859  17.641  0.00  0.00    +0.000 C 
BRANCH   7  11
ATOM      8  C   UNL     1       0.860   3.637  20.214  0.00  0.00    +0.000 A 
ATOM      9  C   UNL     1       1.919   4.480  20.540  0.00  0.00    +0.000 A 
ATOM     10  C   UNL     1       3.054   4.532  19.725  0.00  0.00    +0.000 A 
ATOM     11  C   UNL     1       3.143   3.740  18.572  0.00  0.00    +0.000 A 
ATOM     12  C   UNL     1       2.067   2.893  18.255  0.00  0.00    +0.000 A 
ATOM     13  C   UNL     1       0.936   2.839  19.074  0.00  0.00    +0.000 A 
ENDBRANCH   7  11
ENDBRANCH   6   7
ENDBRANCH   1   6
BRANCH   4  14
ATOM     14  C   UNL     1       8.540   8.171  18.540  0.00  0.00    +0.000 C 
BRANCH  14  15
ATOM     15  C   UNL     1       8.360   9.622  18.083  0.00  0.00    +0.000 C 
BRANCH  15  16
ATOM     16  C   UNL     1       9.391  10.543  18.684  0.00  0.00    +0.000 A 
ATOM     17  C   UNL     1      10.323  11.188  17.860  0.00  0.00    +0.000 A 
ATOM     18  C   UNL     1      11.280  12.040  18.412  0.00  0.00    +0.000 A 
ATOM     19  C   UNL     1      11.321  12.248  19.789  0.00  0.00    +0.000 A 
ATOM     20  C   UNL     1      10.408  11.598  20.616  0.00  0.00    +0.000 A 
ATOM     21  C   UNL     1       9.444  10.746  20.066  0.00  0.00    +0.000 A 
ENDBRANCH  15  16
ENDBRANCH  14  15
ENDBRANCH   4  14
TORSDOF 6
ENDMDL
MODEL 8
REMARK VINA RESULT:      -7.3      1.034      9.382
REMARK  Name = 
REMARK  6 active torsions:
REMARK  status: ('A' for Active; 'I' for Inactive)
REMARK    1  A    between atoms: C_4  and  C_5
REMARK    2  A    between atoms: C_5  and  C_6
REMARK    3  A    between atoms: C_6  and  N_7
REMARK    4  A    between atoms: N_10  and  C_11
REMARK    5  A    between atoms: C_11  and  C_12
REMARK    6  A    between atoms: C_12  and  C_13
REMARK                            x       y       z     vdW  Elec       q    Type
REMARK                         _______ _______ _______ _____ _____    ______ ____
ROOT
ATOM      1  N   UNL     1       5.830   6.378  17.478  0.00  0.00    +0.000 N 
ATOM      2  C   UNL     1       6.813   5.691  18.167  0.00  0.00    +0.000 A 
ATOM      3  C   UNL     1       7.831   6.574  18.378  0.00  0.00    +0.000 A 
ATOM      4  N   UNL     1       7.454   7.781  17.808  0.00  0.00    +0.000 N 
ATOM      5  C   UNL     1       6.203   7.652  17.327  0.00  0.00    +0.000 A 
ENDROOT
BRANCH   1   6
ATOM      6  C   UNL     1       4.524   5.805  17.072  0.00  0.00    +0.000 C 
BRANCH   6   7
ATOM      7  C   UNL     1       3.338   6.326  17.892  0.00  0.00    +0.000 C 
BRANCH   7  11
ATOM      8  C   UNL     1       0.864   3.371  19.860  0.00  0.00    +0.000 A 
ATOM      9  C   UNL     1       1.350   4.463  20.574  0.00  0.00    +0.000 A 
ATOM     10  C   UNL     1       2.173   5.404  19.947  0.00  0.00    +0.000 A 
ATOM     11  C   UNL     1       2.520   5.263  18.597  0.00  0.00    +0.000 A 
ATOM     12  C   UNL     1       2.023   4.156  17.888  0.00  0.00    +0.000 A 
ATOM     13  C   UNL     1       1.205   3.214  18.518  0.00  0.00    +0.000 A 
ENDBRANCH   7  11
ENDBRANCH   6   7
ENDBRANCH   1   6
BRANCH   4  14
ATOM     14  C   UNL     1       8.193   9.053  17.785  0.00  0.00    +0.000 C 
BRANCH  14  15
ATOM     15  C   UNL     1       8.967   9.356  19.072  0.00  0.00    +0.000 C 
BRANCH  15  16
ATOM     16  C   UNL     1       9.539  10.751  19.081  0.00  0.00    +0.000 A 
ATOM     17  C   UNL     1       9.970  11.325  20.284  0.00  0.00    +0.000 A 
ATOM     18  C   UNL     1      10.499  12.617  20.298  0.00  0.00    +0.000 A 
ATOM     19  C   UNL     1      10.593  13.346  19.114  0.00  0.00    +0.000 A 
ATOM     20  C   UNL     1      10.153  12.788  17.917  0.00  0.00    +0.000 A 
ATOM     21  C   UNL     1       9.625  11.491  17.899  0.00  0.00    +0.000 A 
ENDBRANCH  15  16
ENDBRANCH  14  15
ENDBRANCH   4  14
TORSDOF 6
ENDMDL
MODEL 9
REMARK VINA RESULT:      -7.3      0.923      9.332
REMARK  Name = 
REMARK  6 active torsions:
REMARK  status: ('A' for Active; 'I' for Inactive)
REMARK    1  A    between atoms: C_4  and  C_5
REMARK    2  A    between atoms: C_5  and  C_6
REMARK    3  A    between atoms: C_6  and  N_7
REMARK    4  A    between atoms: N_10  and  C_11
REMARK    5  A    between atoms: C_11  and  C_12
REMARK    6  A    between atoms: C_12  and  C_13
REMARK                            x       y       z     vdW  Elec       q    Type
REMARK                         _______ _______ _______ _____ _____    ______ ____
ROOT
ATOM      1  N   UNL     1       6.727   5.281  17.461  0.00  0.00    +0.000 N 
ATOM      2  C   UNL     1       7.467   5.146  18.621  0.00  0.00    +0.000 A 
ATOM      3  C   UNL     1       8.025   6.364  18.872  0.00  0.00    +0.000 A 
ATOM      4  N   UNL     1       7.621   7.219  17.858  0.00  0.00    +0.000 N 
ATOM      5  C   UNL     1       6.777   6.551  17.050  0.00  0.00    +0.000 A 
ENDROOT
BRANCH   1   6
ATOM      6  C   UNL     1       5.920   4.202  16.842  0.00  0.00    +0.000 C 
BRANCH   6   7
ATOM      7  C   UNL     1       4.465   4.598  16.565  0.00  0.00    +0.000 C 
BRANCH   7  11
ATOM      8  C   UNL     1       1.578   2.605  19.098  0.00  0.00    +0.000 A 
ATOM      9  C   UNL     1       2.703   1.920  18.647  0.00  0.00    +0.000 A 
ATOM     10  C   UNL     1       3.623   2.553  17.806  0.00  0.00    +0.000 A 
ATOM     11  C   UNL     1       3.427   3.882  17.404  0.00  0.00    +0.000 A 
ATOM     12  C   UNL     1       2.287   4.561  17.867  0.00  0.00    +0.000 A 
ATOM     13  C   UNL     1       1.367   3.924  18.704  0.00  0.00    +0.000 A 
ENDBRANCH   7  11
ENDBRANCH   6   7
ENDBRANCH   1   6
BRANCH   4  14
ATOM     14  C   UNL     1       7.934   8.647  17.685  0.00  0.00    +0.000 C 
BRANCH  14  15
ATOM     15  C   UNL     1       8.743   9.259  18.832  0.00  0.00    +0.000 C 
BRANCH  15  16
ATOM     16  C   UNL     1       9.208  10.659  18.521  0.00  0.00    +0.000 A 
ATOM     17  C   UNL     1      10.447  11.109  18.996  0.00  0.00    +0.000 A 
ATOM     18  C   UNL     1      10.881  12.405  18.711  0.00  0.00    +0.000 A 
ATOM     19  C   UNL     1      10.080  13.261  17.960  0.00  0.00    +0.000 A 
ATOM     20  C   UNL     1       8.841  12.826  17.497  0.00  0.00    +0.000 A 
ATOM     21  C   UNL     1       8.403  11.526  17.777  0.00  0.00    +0.000 A 
ENDBRANCH  15  16
ENDBRANCH  14  15
ENDBRANCH   4  14
TORSDOF 6
ENDMDL
