MODEL 1
REMARK VINA RESULT:      -8.8      0.000      0.000
REMARK  Name = 
REMARK  8 active torsions:
REMARK  status: ('A' for Active; 'I' for Inactive)
REMARK    1  A    between atoms: C_1  and  C_2
REMARK    2  A    between atoms: N_4  and  C_5
REMARK    3  A    between atoms: C_8  and  C_9
REMARK    4  A    between atoms: N_12  and  C_13
REMARK    5  A    between atoms: C_13  and  C_14
REMARK    6  A    between atoms: C_14  and  C_15
REMARK    7  A    between atoms: C_15  and  N_16
REMARK    8  A    between atoms: C_17  and  C_18
REMARK                            x       y       z     vdW  Elec       q    Type
REMARK                         _______ _______ _______ _____ _____    ______ ____
ROOT
ATOM      1  C   UNL     1       1.217   9.336  21.283  0.00  0.00    +0.000 C 
ENDROOT
BRANCH   1   5
ATOM      2  C   UNL     1      -0.924  12.417  19.049  0.00  0.00    +0.000 C 
ATOM      3  C   UNL     1      -0.843  10.986  18.485  0.00  0.00    +0.000 C 
ATOM      4  C   UNL     1      -0.385   9.944  19.518  0.00  0.00    +0.000 C 
ATOM      5  N   UNL     1       0.880  10.285  20.184  0.00  0.00    +0.000 NA
ATOM      6  C   UNL     1       0.846  11.659  20.727  0.00  0.00    +0.000 C 
ATOM      7  C   UNL     1       0.434  12.721  19.702  0.00  0.00    +0.000 C 
BRANCH   2  11
ATOM      8  C   UNL     1      -4.402  13.192  21.597  0.00  0.00    +0.000 A 
ATOM      9  C   UNL     1      -3.133  13.605  21.985  0.00  0.00    +0.000 A 
ATOM     10  C   UNL     1      -2.019  13.375  21.170  0.00  0.00    +0.000 A 
ATOM     11  C   UNL     1      -2.133  12.745  19.925  0.00  0.00    +0.000 A 
ATOM     12  C   UNL     1      -3.420  12.326  19.541  0.00  0.00    +0.000 A 
ATOM     13  C   UNL     1      -4.538  12.542  20.367  0.00  0.00    +0.000 A 
BRANCH   8  17
ATOM     14  C   UNL     1      -7.150  13.060  24.186  0.00  0.00    +0.000 C 
ATOM     15  C   UNL     1      -5.755  12.830  23.666  0.00  0.00    +0.000 C 
ATOM     16  O   UNL     1      -4.945  12.201  24.340  0.00  0.00    +0.000 OA
ATOM     17  N   UNL     1      -5.549  13.358  22.404  0.00  0.00    +0.000 N 
ATOM     18  H   UNL     1      -6.278  13.952  22.034  0.00  0.00    +0.000 HD
ENDBRANCH   8  17
ENDBRANCH   2  11
ENDBRANCH   1   5
BRANCH   1  19
ATOM     19  C   UNL     1       1.153   7.852  20.899  0.00  0.00    +0.000 C 
BRANCH  19  20
ATOM     20  C   UNL     1       2.175   7.311  19.885  0.00  0.00    +0.000 C 
BRANCH  20  21
ATOM     21  N   UNL     1       2.273   5.952  19.401  0.00  0.00    +0.000 N 
ATOM     22  C   UNL     1       2.368   5.698  18.037  0.00  0.00    +0.000 A 
ATOM     23  N   UNL     1       1.313   4.896  17.801  0.00  0.00    +0.000 NA
ATOM     24  C   UNL     1       1.352   4.079  18.919  0.00  0.00    +0.000 A 
ATOM     25  C   UNL     1       0.976   2.730  19.001  0.00  0.00    +0.000 A 
ATOM     26  C   UNL     1       1.828   1.911  19.749  0.00  0.00    +0.000 A 
ATOM     27  C   UNL     1       2.892   2.461  20.475  0.00  0.00    +0.000 A 
ATOM     28  C   UNL     1       3.044   3.852  20.640  0.00  0.00    +0.000 A 
ATOM     29  C   UNL     1       2.185   4.668  19.892  0.00  0.00    +0.000 A 
BRANCH  22  30
ATOM     30  C   UNL     1       3.740   5.545  17.483  0.00  0.00    +0.000 A 
ATOM     31  C   UNL     1       4.521   6.648  17.136  0.00  0.00    +0.000 A 
ATOM     32  C   UNL     1       5.662   6.479  16.339  0.00  0.00    +0.000 A 
ATOM     33  C   UNL     1       6.014   5.212  15.868  0.00  0.00    +0.000 A 
ATOM     34 CL   UNL     1       7.381   5.008  14.848  0.00  0.00    +0.000 Cl
ATOM     35  C   UNL     1       5.249   4.105  16.197  0.00  0.00    +0.000 A 
ATOM     36  C   UNL     1       4.140   4.275  17.015  0.00  0.00    +0.000 A 
ENDBRANCH  22  30
ENDBRANCH  20  21
ENDBRANCH  19  20
ENDBRANCH   1  19
TORSDOF 7
ENDMDL
MODEL 2
REMARK VINA RESULT:      -8.4      1.790      2.442
REMARK  Name = 
REMARK  8 active torsions:
REMARK  status: ('A' for Active; 'I' for Inactive)
REMARK    1  A    between atoms: C_1  and  C_2
REMARK    2  A    between atoms: N_4  and  C_5
REMARK    3  A    between atoms: C_8  and  C_9
REMARK    4  A    between atoms: N_12  and  C_13
REMARK    5  A    between atoms: C_13  and  C_14
REMARK    6  A    between atoms: C_14  and  C_15
REMARK    7  A    between atoms: C_15  and  N_16
REMARK    8  A    between atoms: C_17  and  C_18
REMARK                            x       y       z     vdW  Elec       q    Type
REMARK                         _______ _______ _______ _____ _____    ______ ____
ROOT
ATOM      1  C   UNL     1       1.190   9.559  18.033  0.00  0.00    +0.000 C 
ENDROOT
BRANCH   1   5
ATOM      2  C   UNL     1      -0.028  11.585  21.703  0.00  0.00    +0.000 C 
ATOM      3  C   UNL     1       1.033  12.232  20.795  0.00  0.00    +0.000 C 
ATOM      4  C   UNL     1       1.103  11.608  19.392  0.00  0.00    +0.000 C 
ATOM      5  N   UNL     1       1.280  10.149  19.399  0.00  0.00    +0.000 NA
ATOM      6  C   UNL     1       0.286   9.493  20.273  0.00  0.00    +0.000 C 
ATOM      7  C   UNL     1       0.230  10.070  21.691  0.00  0.00    +0.000 C 
BRANCH   2  11
ATOM      8  C   UNL     1      -4.158  12.875  21.014  0.00  0.00    +0.000 A 
ATOM      9  C   UNL     1      -3.354  12.476  19.953  0.00  0.00    +0.000 A 
ATOM     10  C   UNL     1      -2.038  12.048  20.166  0.00  0.00    +0.000 A 
ATOM     11  C   UNL     1      -1.484  11.979  21.450  0.00  0.00    +0.000 A 
ATOM     12  C   UNL     1      -2.303  12.389  22.518  0.00  0.00    +0.000 A 
ATOM     13  C   UNL     1      -3.620  12.835  22.303  0.00  0.00    +0.000 A 
BRANCH   8  17
ATOM     14  C   UNL     1      -7.856  13.409  20.458  0.00  0.00    +0.000 C 
ATOM     15  C   UNL     1      -6.634  12.606  20.818  0.00  0.00    +0.000 C 
ATOM     16  O   UNL     1      -6.732  11.400  21.023  0.00  0.00    +0.000 OA
ATOM     17  N   UNL     1      -5.474  13.359  20.846  0.00  0.00    +0.000 N 
ATOM     18  H   UNL     1      -5.580  14.361  20.772  0.00  0.00    +0.000 HD
ENDBRANCH   8  17
ENDBRANCH   2  11
ENDBRANCH   1   5
BRANCH   1  19
ATOM     19  C   UNL     1       2.097   8.345  17.792  0.00  0.00    +0.000 C 
BRANCH  19  20
ATOM     20  C   UNL     1       1.446   6.960  17.635  0.00  0.00    +0.000 C 
BRANCH  20  21
ATOM     21  N   UNL     1       1.899   5.721  18.226  0.00  0.00    +0.000 N 
ATOM     22  C   UNL     1       2.732   4.866  17.514  0.00  0.00    +0.000 A 
ATOM     23  N   UNL     1       2.039   3.712  17.490  0.00  0.00    +0.000 NA
ATOM     24  C   UNL     1       1.537   3.684  18.781  0.00  0.00    +0.000 A 
ATOM     25  C   UNL     1       1.288   2.553  19.572  0.00  0.00    +0.000 A 
ATOM     26  C   UNL     1       1.668   2.659  20.913  0.00  0.00    +0.000 A 
ATOM     27  C   UNL     1       2.126   3.878  21.431  0.00  0.00    +0.000 A 
ATOM     28  C   UNL     1       2.052   5.077  20.697  0.00  0.00    +0.000 A 
ATOM     29  C   UNL     1       1.666   4.965  19.355  0.00  0.00    +0.000 A 
BRANCH  22  30
ATOM     30  C   UNL     1       4.194   5.018  17.743  0.00  0.00    +0.000 A 
ATOM     31  C   UNL     1       4.839   4.397  18.814  0.00  0.00    +0.000 A 
ATOM     32  C   UNL     1       6.130   4.800  19.185  0.00  0.00    +0.000 A 
ATOM     33  C   UNL     1       6.771   5.836  18.503  0.00  0.00    +0.000 A 
ATOM     34 CL   UNL     1       8.331   6.368  18.988  0.00  0.00    +0.000 Cl
ATOM     35  C   UNL     1       6.146   6.467  17.440  0.00  0.00    +0.000 A 
ATOM     36  C   UNL     1       4.881   6.041  17.057  0.00  0.00    +0.000 A 
ENDBRANCH  22  30
ENDBRANCH  20  21
ENDBRANCH  19  20
ENDBRANCH   1  19
TORSDOF 7
ENDMDL
MODEL 3
REMARK VINA RESULT:      -8.3      1.425      1.950
REMARK  Name = 
REMARK  8 active torsions:
REMARK  status: ('A' for Active; 'I' for Inactive)
REMARK    1  A    between atoms: C_1  and  C_2
REMARK    2  A    between atoms: N_4  and  C_5
REMARK    3  A    between atoms: C_8  and  C_9
REMARK    4  A    between atoms: N_12  and  C_13
REMARK    5  A    between atoms: C_13  and  C_14
REMARK    6  A    between atoms: C_14  and  C_15
REMARK    7  A    between atoms: C_15  and  N_16
REMARK    8  A    between atoms: C_17  and  C_18
REMARK                            x       y       z     vdW  Elec       q    Type
REMARK                         _______ _______ _______ _____ _____    ______ ____
ROOT
ATOM      1  C   UNL     1       0.808   9.720  18.235  0.00  0.00    +0.000 C 
ENDROOT
BRANCH   1   5
ATOM      2  C   UNL     1       0.009  13.127  20.846  0.00  0.00    +0.000 C 
ATOM      3  C   UNL     1       0.323  13.367  19.358  0.00  0.00    +0.000 C 
ATOM      4  C   UNL     1       0.229  12.097  18.498  0.00  0.00    +0.000 C 
ATOM      5  N   UNL     1       1.039  10.978  19.000  0.00  0.00    +0.000 NA
ATOM      6  C   UNL     1       0.775  10.727  20.432  0.00  0.00    +0.000 C 
ATOM      7  C   UNL     1       0.906  11.971  21.315  0.00  0.00    +0.000 C 
BRANCH   2  11
ATOM      8  C   UNL     1      -4.190  12.802  22.051  0.00  0.00    +0.000 A 
ATOM      9  C   UNL     1      -3.841  13.427  20.859  0.00  0.00    +0.000 A 
ATOM     10  C   UNL     1      -2.503  13.521  20.459  0.00  0.00    +0.000 A 
ATOM     11  C   UNL     1      -1.465  12.974  21.223  0.00  0.00    +0.000 A 
ATOM     12  C   UNL     1      -1.826  12.348  22.429  0.00  0.00    +0.000 A 
ATOM     13  C   UNL     1      -3.169  12.266  22.840  0.00  0.00    +0.000 A 
BRANCH   8  17
ATOM     14  C   UNL     1      -7.899  12.319  22.583  0.00  0.00    +0.000 C 
ATOM     15  C   UNL     1      -6.576  12.075  21.906  0.00  0.00    +0.000 C 
ATOM     16  O   UNL     1      -6.524  11.382  20.894  0.00  0.00    +0.000 OA
ATOM     17  N   UNL     1      -5.520  12.723  22.520  0.00  0.00    +0.000 N 
ATOM     18  H   UNL     1      -5.709  13.156  23.414  0.00  0.00    +0.000 HD
ENDBRANCH   8  17
ENDBRANCH   2  11
ENDBRANCH   1   5
BRANCH   1  19
ATOM     19  C   UNL     1       1.972   8.721  18.266  0.00  0.00    +0.000 C 
BRANCH  19  20
ATOM     20  C   UNL     1       1.995   7.652  19.372  0.00  0.00    +0.000 C 
BRANCH  20  21
ATOM     21  N   UNL     1       2.160   6.228  19.192  0.00  0.00    +0.000 N 
ATOM     22  C   UNL     1       2.477   5.710  17.942  0.00  0.00    +0.000 A 
ATOM     23  N   UNL     1       1.469   4.851  17.701  0.00  0.00    +0.000 NA
ATOM     24  C   UNL     1       1.314   4.274  18.951  0.00  0.00    +0.000 A 
ATOM     25  C   UNL     1       0.918   2.960  19.238  0.00  0.00    +0.000 A 
ATOM     26  C   UNL     1       1.627   2.327  20.264  0.00  0.00    +0.000 A 
ATOM     27  C   UNL     1       2.560   3.037  21.031  0.00  0.00    +0.000 A 
ATOM     28  C   UNL     1       2.695   4.435  20.937  0.00  0.00    +0.000 A 
ATOM     29  C   UNL     1       1.980   5.065  19.910  0.00  0.00    +0.000 A 
BRANCH  22  30
ATOM     30  C   UNL     1       3.921   5.483  17.662  0.00  0.00    +0.000 A 
ATOM     31  C   UNL     1       4.359   4.422  16.868  0.00  0.00    +0.000 A 
ATOM     32  C   UNL     1       5.710   4.050  16.877  0.00  0.00    +0.000 A 
ATOM     33  C   UNL     1       6.624   4.720  17.694  0.00  0.00    +0.000 A 
ATOM     34 CL   UNL     1       8.270   4.233  17.747  0.00  0.00    +0.000 Cl
ATOM     35  C   UNL     1       6.208   5.772  18.493  0.00  0.00    +0.000 A 
ATOM     36  C   UNL     1       4.874   6.157  18.455  0.00  0.00    +0.000 A 
ENDBRANCH  22  30
ENDBRANCH  20  21
ENDBRANCH  19  20
ENDBRANCH   1  19
TORSDOF 7
ENDMDL
MODEL 4
REMARK VINA RESULT:      -8.3      3.126      5.189
REMARK  Name = 
REMARK  8 active torsions:
REMARK  status: ('A' for Active; 'I' for Inactive)
REMARK    1  A    between atoms: C_1  and  C_2
REMARK    2  A    between atoms: N_4  and  C_5
REMARK    3  A    between atoms: C_8  and  C_9
REMARK    4  A    between atoms: N_12  and  C_13
REMARK    5  A    between atoms: C_13  and  C_14
REMARK    6  A    between atoms: C_14  and  C_15
REMARK    7  A    between atoms: C_15  and  N_16
REMARK    8  A    between atoms: C_17  and  C_18
REMARK                            x       y       z     vdW  Elec       q    Type
REMARK                         _______ _______ _______ _____ _____    ______ ____
ROOT
ATOM      1  C   UNL     1       0.815   8.753  21.057  0.00  0.00    +0.000 C 
ENDROOT
BRANCH   1   5
ATOM      2  C   UNL     1      -0.247  12.762  19.693  0.00  0.00    +0.000 C 
ATOM      3  C   UNL     1      -0.596  12.331  21.129  0.00  0.00    +0.000 C 
ATOM      4  C   UNL     1       0.137  11.059  21.584  0.00  0.00    +0.000 C 
ATOM      5  N   UNL     1      -0.029   9.919  20.670  0.00  0.00    +0.000 NA
ATOM      6  C   UNL     1       0.284  10.299  19.277  0.00  0.00    +0.000 C 
ATOM      7  C   UNL     1      -0.470  11.540  18.788  0.00  0.00    +0.000 C 
BRANCH   2  11
ATOM      8  C   UNL     1       3.679  14.647  19.220  0.00  0.00    +0.000 A 
ATOM      9  C   UNL     1       3.102  13.940  18.172  0.00  0.00    +0.000 A 
ATOM     10  C   UNL     1       1.841  13.348  18.310  0.00  0.00    +0.000 A 
ATOM     11  C   UNL     1       1.099  13.460  19.491  0.00  0.00    +0.000 A 
ATOM     12  C   UNL     1       1.692  14.173  20.549  0.00  0.00    +0.000 A 
ATOM     13  C   UNL     1       2.966  14.755  20.417  0.00  0.00    +0.000 A 
BRANCH   8  17
ATOM     14  C   UNL     1       6.731  16.839  18.828  0.00  0.00    +0.000 C 
ATOM     15  C   UNL     1       5.266  16.569  19.055  0.00  0.00    +0.000 C 
ATOM     16  O   UNL     1       4.472  17.504  19.111  0.00  0.00    +0.000 OA
ATOM     17  N   UNL     1       4.967  15.222  19.147  0.00  0.00    +0.000 N 
ATOM     18  H   UNL     1       5.749  14.584  19.201  0.00  0.00    +0.000 HD
ENDBRANCH   8  17
ENDBRANCH   2  11
ENDBRANCH   1   5
BRANCH   1  19
ATOM     19  C   UNL     1       1.661   8.162  19.921  0.00  0.00    +0.000 C 
BRANCH  19  20
ATOM     20  C   UNL     1       2.518   6.919  20.213  0.00  0.00    +0.000 C 
BRANCH  20  21
ATOM     21  N   UNL     1       2.484   5.661  19.501  0.00  0.00    +0.000 N 
ATOM     22  C   UNL     1       2.486   5.641  18.111  0.00  0.00    +0.000 A 
ATOM     23  N   UNL     1       1.361   4.964  17.812  0.00  0.00    +0.000 NA
ATOM     24  C   UNL     1       1.395   3.966  18.772  0.00  0.00    +0.000 A 
ATOM     25  C   UNL     1       0.921   2.652  18.650  0.00  0.00    +0.000 A 
ATOM     26  C   UNL     1       1.745   1.660  19.191  0.00  0.00    +0.000 A 
ATOM     27  C   UNL     1       2.885   2.004  19.928  0.00  0.00    +0.000 A 
ATOM     28  C   UNL     1       3.154   3.331  20.315  0.00  0.00    +0.000 A 
ATOM     29  C   UNL     1       2.323   4.320  19.774  0.00  0.00    +0.000 A 
BRANCH  22  30
ATOM     30  C   UNL     1       3.811   5.493  17.449  0.00  0.00    +0.000 A 
ATOM     31  C   UNL     1       4.594   6.600  17.117  0.00  0.00    +0.000 A 
ATOM     32  C   UNL     1       5.670   6.457  16.230  0.00  0.00    +0.000 A 
ATOM     33  C   UNL     1       5.954   5.215  15.656  0.00  0.00    +0.000 A 
ATOM     34 CL   UNL     1       7.239   5.047  14.528  0.00  0.00    +0.000 Cl
ATOM     35  C   UNL     1       5.186   4.107  15.970  0.00  0.00    +0.000 A 
ATOM     36  C   UNL     1       4.142   4.248  16.875  0.00  0.00    +0.000 A 
ENDBRANCH  22  30
ENDBRANCH  20  21
ENDBRANCH  19  20
ENDBRANCH   1  19
TORSDOF 7
ENDMDL
MODEL 5
REMARK VINA RESULT:      -8.2      3.202      4.390
REMARK  Name = 
REMARK  8 active torsions:
REMARK  status: ('A' for Active; 'I' for Inactive)
REMARK    1  A    between atoms: C_1  and  C_2
REMARK    2  A    between atoms: N_4  and  C_5
REMARK    3  A    between atoms: C_8  and  C_9
REMARK    4  A    between atoms: N_12  and  C_13
REMARK    5  A    between atoms: C_13  and  C_14
REMARK    6  A    between atoms: C_14  and  C_15
REMARK    7  A    between atoms: C_15  and  N_16
REMARK    8  A    between atoms: C_17  and  C_18
REMARK                            x       y       z     vdW  Elec       q    Type
REMARK                         _______ _______ _______ _____ _____    ______ ____
ROOT
ATOM      1  C   UNL     1       1.826   9.871  19.647  0.00  0.00    +0.000 C 
ENDROOT
BRANCH   1   5
ATOM      2  C   UNL     1      -1.985  11.976  19.323  0.00  0.00    +0.000 C 
ATOM      3  C   UNL     1      -0.669  12.755  19.143  0.00  0.00    +0.000 C 
ATOM      4  C   UNL     1       0.555  11.850  18.927  0.00  0.00    +0.000 C 
ATOM      5  N   UNL     1       0.725  10.824  19.966  0.00  0.00    +0.000 NA
ATOM      6  C   UNL     1      -0.524  10.064  20.177  0.00  0.00    +0.000 C 
ATOM      7  C   UNL     1      -1.750  10.945  20.438  0.00  0.00    +0.000 C 
BRANCH   2  11
ATOM      8  C   UNL     1      -3.796  10.484  15.623  0.00  0.00    +0.000 A 
ATOM      9  C   UNL     1      -2.544  10.037  16.030  0.00  0.00    +0.000 A 
ATOM     10  C   UNL     1      -1.965  10.497  17.218  0.00  0.00    +0.000 A 
ATOM     11  C   UNL     1      -2.625  11.403  18.057  0.00  0.00    +0.000 A 
ATOM     12  C   UNL     1      -3.889  11.854  17.637  0.00  0.00    +0.000 A 
ATOM     13  C   UNL     1      -4.465  11.404  16.435  0.00  0.00    +0.000 A 
BRANCH   8  17
ATOM     14  C   UNL     1      -4.707   9.574  12.071  0.00  0.00    +0.000 C 
ATOM     15  C   UNL     1      -3.758   9.811  13.217  0.00  0.00    +0.000 C 
ATOM     16  O   UNL     1      -2.546   9.777  13.027  0.00  0.00    +0.000 OA
ATOM     17  N   UNL     1      -4.401  10.087  14.411  0.00  0.00    +0.000 N 
ATOM     18  H   UNL     1      -5.404   9.958  14.428  0.00  0.00    +0.000 HD
ENDBRANCH   8  17
ENDBRANCH   2  11
ENDBRANCH   1   5
BRANCH   1  19
ATOM     19  C   UNL     1       1.385   8.414  19.459  0.00  0.00    +0.000 C 
BRANCH  19  20
ATOM     20  C   UNL     1       2.368   7.293  19.839  0.00  0.00    +0.000 C 
BRANCH  20  21
ATOM     21  N   UNL     1       2.383   5.945  19.317  0.00  0.00    +0.000 N 
ATOM     22  C   UNL     1       2.454   5.723  17.947  0.00  0.00    +0.000 A 
ATOM     23  N   UNL     1       1.352   4.990  17.697  0.00  0.00    +0.000 NA
ATOM     24  C   UNL     1       1.350   4.143  18.793  0.00  0.00    +0.000 A 
ATOM     25  C   UNL     1       0.897   2.817  18.842  0.00  0.00    +0.000 A 
ATOM     26  C   UNL     1       1.704   1.929  19.560  0.00  0.00    +0.000 A 
ATOM     27  C   UNL     1       2.803   2.396  20.292  0.00  0.00    +0.000 A 
ATOM     28  C   UNL     1       3.038   3.770  20.493  0.00  0.00    +0.000 A 
ATOM     29  C   UNL     1       2.223   4.655  19.775  0.00  0.00    +0.000 A 
BRANCH  22  30
ATOM     30  C   UNL     1       3.811   5.505  17.377  0.00  0.00    +0.000 A 
ATOM     31  C   UNL     1       4.686   6.565  17.135  0.00  0.00    +0.000 A 
ATOM     32  C   UNL     1       5.813   6.374  16.323  0.00  0.00    +0.000 A 
ATOM     33  C   UNL     1       6.057   5.132  15.733  0.00  0.00    +0.000 A 
ATOM     34 CL   UNL     1       7.407   4.908  14.695  0.00  0.00    +0.000 Cl
ATOM     35  C   UNL     1       5.197   4.069  15.956  0.00  0.00    +0.000 A 
ATOM     36  C   UNL     1       4.102   4.256  16.789  0.00  0.00    +0.000 A 
ENDBRANCH  22  30
ENDBRANCH  20  21
ENDBRANCH  19  20
ENDBRANCH   1  19
TORSDOF 7
ENDMDL
MODEL 6
REMARK VINA RESULT:      -8.2      0.946      1.301
REMARK  Name = 
REMARK  8 active torsions:
REMARK  status: ('A' for Active; 'I' for Inactive)
REMARK    1  A    between atoms: C_1  and  C_2
REMARK    2  A    between atoms: N_4  and  C_5
REMARK    3  A    between atoms: C_8  and  C_9
REMARK    4  A    between atoms: N_12  and  C_13
REMARK    5  A    between atoms: C_13  and  C_14
REMARK    6  A    between atoms: C_14  and  C_15
REMARK    7  A    between atoms: C_15  and  N_16
REMARK    8  A    between atoms: C_17  and  C_18
REMARK                            x       y       z     vdW  Elec       q    Type
REMARK                         _______ _______ _______ _____ _____    ______ ____
ROOT
ATOM      1  C   UNL     1       0.582   9.637  18.816  0.00  0.00    +0.000 C 
ENDROOT
BRANCH   1   5
ATOM      2  C   UNL     1       0.390  13.657  20.508  0.00  0.00    +0.000 C 
ATOM      3  C   UNL     1       0.391  13.475  18.979  0.00  0.00    +0.000 C 
ATOM      4  C   UNL     1       0.103  12.033  18.532  0.00  0.00    +0.000 C 
ATOM      5  N   UNL     1       0.985  11.033  19.150  0.00  0.00    +0.000 NA
ATOM      6  C   UNL     1       1.020  11.185  20.619  0.00  0.00    +0.000 C 
ATOM      7  C   UNL     1       1.349  12.606  21.088  0.00  0.00    +0.000 C 
BRANCH   2  11
ATOM      8  C   UNL     1      -3.565  13.669  22.392  0.00  0.00    +0.000 A 
ATOM      9  C   UNL     1      -2.424  13.406  23.142  0.00  0.00    +0.000 A 
ATOM     10  C   UNL     1      -1.155  13.416  22.550  0.00  0.00    +0.000 A 
ATOM     11  C   UNL     1      -0.976  13.711  21.194  0.00  0.00    +0.000 A 
ATOM     12  C   UNL     1      -2.136  13.972  20.442  0.00  0.00    +0.000 A 
ATOM     13  C   UNL     1      -3.413  13.947  21.031  0.00  0.00    +0.000 A 
BRANCH   8  17
ATOM     14  C   UNL     1      -6.804  12.885  24.172  0.00  0.00    +0.000 C 
ATOM     15  C   UNL     1      -5.318  12.796  23.944  0.00  0.00    +0.000 C 
ATOM     16  O   UNL     1      -4.641  12.019  24.611  0.00  0.00    +0.000 OA
ATOM     17  N   UNL     1      -4.870  13.625  22.932  0.00  0.00    +0.000 N 
ATOM     18  H   UNL     1      -5.533  14.292  22.562  0.00  0.00    +0.000 HD
ENDBRANCH   8  17
ENDBRANCH   2  11
ENDBRANCH   1   5
BRANCH   1  19
ATOM     19  C   UNL     1       1.744   8.689  18.490  0.00  0.00    +0.000 C 
BRANCH  19  20
ATOM     20  C   UNL     1       2.115   7.601  19.512  0.00  0.00    +0.000 C 
BRANCH  20  21
ATOM     21  N   UNL     1       2.232   6.183  19.258  0.00  0.00    +0.000 N 
ATOM     22  C   UNL     1       2.367   5.711  17.957  0.00  0.00    +0.000 A 
ATOM     23  N   UNL     1       1.322   4.872  17.825  0.00  0.00    +0.000 NA
ATOM     24  C   UNL     1       1.331   4.249  19.062  0.00  0.00    +0.000 A 
ATOM     25  C   UNL     1       0.958   2.928  19.352  0.00  0.00    +0.000 A 
ATOM     26  C   UNL     1       1.790   2.249  20.247  0.00  0.00    +0.000 A 
ATOM     27  C   UNL     1       2.830   2.918  20.903  0.00  0.00    +0.000 A 
ATOM     28  C   UNL     1       2.973   4.318  20.844  0.00  0.00    +0.000 A 
ATOM     29  C   UNL     1       2.134   4.994  19.949  0.00  0.00    +0.000 A 
BRANCH  22  30
ATOM     30  C   UNL     1       3.755   5.481  17.474  0.00  0.00    +0.000 A 
ATOM     31  C   UNL     1       4.657   6.532  17.298  0.00  0.00    +0.000 A 
ATOM     32  C   UNL     1       5.830   6.333  16.558  0.00  0.00    +0.000 A 
ATOM     33  C   UNL     1       6.098   5.093  15.974  0.00  0.00    +0.000 A 
ATOM     34 CL   UNL     1       7.509   4.860  15.023  0.00  0.00    +0.000 Cl
ATOM     35  C   UNL     1       5.213   4.039  16.134  0.00  0.00    +0.000 A 
ATOM     36  C   UNL     1       4.069   4.233  16.895  0.00  0.00    +0.000 A 
ENDBRANCH  22  30
ENDBRANCH  20  21
ENDBRANCH  19  20
ENDBRANCH   1  19
TORSDOF 7
ENDMDL
MODEL 7
REMARK VINA RESULT:      -8.2      5.285      7.700
REMARK  Name = 
REMARK  8 active torsions:
REMARK  status: ('A' for Active; 'I' for Inactive)
REMARK    1  A    between atoms: C_1  and  C_2
REMARK    2  A    between atoms: N_4  and  C_5
REMARK    3  A    between atoms: C_8  and  C_9
REMARK    4  A    between atoms: N_12  and  C_13
REMARK    5  A    between atoms: C_13  and  C_14
REMARK    6  A    between atoms: C_14  and  C_15
REMARK    7  A    between atoms: C_15  and  N_16
REMARK    8  A    between atoms: C_17  and  C_18
REMARK                            x       y       z     vdW  Elec       q    Type
REMARK                         _______ _______ _______ _____ _____    ______ ____
ROOT
ATOM      1  C   UNL     1       8.800   9.132  19.168  0.00  0.00    +0.000 C 
ENDROOT
BRANCH   1   5
ATOM      2  C   UNL     1       9.750  13.391  19.035  0.00  0.00    +0.000 C 
ATOM      3  C   UNL     1      10.125  12.491  17.843  0.00  0.00    +0.000 C 
ATOM      4  C   UNL     1       9.427  11.122  17.864  0.00  0.00    +0.000 C 
ATOM      5  N   UNL     1       9.611  10.381  19.121  0.00  0.00    +0.000 NA
ATOM      6  C   UNL     1       9.274  11.219  20.290  0.00  0.00    +0.000 C 
ATOM      7  C   UNL     1       9.992  12.572  20.313  0.00  0.00    +0.000 C 
BRANCH   2  11
ATOM      8  C   UNL     1       5.768  15.209  18.861  0.00  0.00    +0.000 A 
ATOM      9  C   UNL     1       6.522  15.265  20.027  0.00  0.00    +0.000 A 
ATOM     10  C   UNL     1       7.801  14.700  20.086  0.00  0.00    +0.000 A 
ATOM     11  C   UNL     1       8.385  14.079  18.976  0.00  0.00    +0.000 A 
ATOM     12  C   UNL     1       7.614  14.022  17.801  0.00  0.00    +0.000 A 
ATOM     13  C   UNL     1       6.322  14.576  17.745  0.00  0.00    +0.000 A 
BRANCH   8  17
ATOM     14  C   UNL     1       2.044  15.835  18.740  0.00  0.00    +0.000 C 
ATOM     15  C   UNL     1       3.287  15.073  19.121  0.00  0.00    +0.000 C 
ATOM     16  O   UNL     1       3.192  13.977  19.665  0.00  0.00    +0.000 OA
ATOM     17  N   UNL     1       4.456  15.722  18.765  0.00  0.00    +0.000 N 
ATOM     18  H   UNL     1       4.366  16.672  18.433  0.00  0.00    +0.000 HD
ENDBRANCH   8  17
ENDBRANCH   2  11
ENDBRANCH   1   5
BRANCH   1  19
ATOM     19  C   UNL     1       8.013   8.824  17.887  0.00  0.00    +0.000 C 
BRANCH  19  20
ATOM     20  C   UNL     1       7.876   7.357  17.442  0.00  0.00    +0.000 C 
BRANCH  20  21
ATOM     21  N   UNL     1       6.661   6.575  17.412  0.00  0.00    +0.000 N 
ATOM     22  C   UNL     1       5.871   6.548  16.269  0.00  0.00    +0.000 A 
ATOM     23  N   UNL     1       4.675   6.980  16.712  0.00  0.00    +0.000 NA
ATOM     24  C   UNL     1       4.597   6.325  17.930  0.00  0.00    +0.000 A 
ATOM     25  C   UNL     1       3.442   5.851  18.568  0.00  0.00    +0.000 A 
ATOM     26  C   UNL     1       3.554   4.589  19.159  0.00  0.00    +0.000 A 
ATOM     27  C   UNL     1       4.792   3.936  19.220  0.00  0.00    +0.000 A 
ATOM     28  C   UNL     1       5.994   4.580  18.867  0.00  0.00    +0.000 A 
ATOM     29  C   UNL     1       5.876   5.846  18.280  0.00  0.00    +0.000 A 
BRANCH  22  30
ATOM     30  C   UNL     1       6.112   5.428  15.320  0.00  0.00    +0.000 A 
ATOM     31  C   UNL     1       7.257   5.372  14.524  0.00  0.00    +0.000 A 
ATOM     32  C   UNL     1       7.312   4.493  13.433  0.00  0.00    +0.000 A 
ATOM     33  C   UNL     1       6.218   3.683  13.121  0.00  0.00    +0.000 A 
ATOM     34 CL   UNL     1       6.262   2.643  11.755  0.00  0.00    +0.000 Cl
ATOM     35  C   UNL     1       5.071   3.727  13.896  0.00  0.00    +0.000 A 
ATOM     36  C   UNL     1       5.036   4.576  14.995  0.00  0.00    +0.000 A 
ENDBRANCH  22  30
ENDBRANCH  20  21
ENDBRANCH  19  20
ENDBRANCH   1  19
TORSDOF 7
ENDMDL
MODEL 8
REMARK VINA RESULT:      -8.1      2.281      4.106
REMARK  Name = 
REMARK  8 active torsions:
REMARK  status: ('A' for Active; 'I' for Inactive)
REMARK    1  A    between atoms: C_1  and  C_2
REMARK    2  A    between atoms: N_4  and  C_5
REMARK    3  A    between atoms: C_8  and  C_9
REMARK    4  A    between atoms: N_12  and  C_13
REMARK    5  A    between atoms: C_13  and  C_14
REMARK    6  A    between atoms: C_14  and  C_15
REMARK    7  A    between atoms: C_15  and  N_16
REMARK    8  A    between atoms: C_17  and  C_18
REMARK                            x       y       z     vdW  Elec       q    Type
REMARK                         _______ _______ _______ _____ _____    ______ ____
ROOT
ATOM      1  C   UNL     1       1.292   9.496  18.286  0.00  0.00    +0.000 C 
ENDROOT
BRANCH   1   5
ATOM      2  C   UNL     1      -0.059  11.698  21.806  0.00  0.00    +0.000 C 
ATOM      3  C   UNL     1       1.010  12.316  20.887  0.00  0.00    +0.000 C 
ATOM      4  C   UNL     1       1.127  11.616  19.524  0.00  0.00    +0.000 C 
ATOM      5  N   UNL     1       1.336  10.164  19.619  0.00  0.00    +0.000 NA
ATOM      6  C   UNL     1       0.335   9.536  20.506  0.00  0.00    +0.000 C 
ATOM      7  C   UNL     1       0.232  10.191  21.887  0.00  0.00    +0.000 C 
BRANCH   2  11
ATOM      8  C   UNL     1      -4.204  12.846  20.972  0.00  0.00    +0.000 A 
ATOM      9  C   UNL     1      -3.324  12.564  19.933  0.00  0.00    +0.000 A 
ATOM     10  C   UNL     1      -2.002  12.181  20.192  0.00  0.00    +0.000 A 
ATOM     11  C   UNL     1      -1.517  12.043  21.497  0.00  0.00    +0.000 A 
ATOM     12  C   UNL     1      -2.411  12.335  22.543  0.00  0.00    +0.000 A 
ATOM     13  C   UNL     1      -3.735  12.735  22.284  0.00  0.00    +0.000 A 
BRANCH   8  17
ATOM     14  C   UNL     1      -7.916  13.238  20.389  0.00  0.00    +0.000 C 
ATOM     15  C   UNL     1      -6.674  12.505  20.824  0.00  0.00    +0.000 C 
ATOM     16  O   UNL     1      -6.744  11.326  21.159  0.00  0.00    +0.000 OA
ATOM     17  N   UNL     1      -5.531  13.281  20.763  0.00  0.00    +0.000 N 
ATOM     18  H   UNL     1      -5.659  14.267  20.583  0.00  0.00    +0.000 HD
ENDBRANCH   8  17
ENDBRANCH   2  11
ENDBRANCH   1   5
BRANCH   1  19
ATOM     19  C   UNL     1       2.036   8.156  18.210  0.00  0.00    +0.000 C 
BRANCH  19  20
ATOM     20  C   UNL     1       3.390   8.107  17.483  0.00  0.00    +0.000 C 
BRANCH  20  21
ATOM     21  N   UNL     1       4.257   6.958  17.350  0.00  0.00    +0.000 N 
ATOM     22  C   UNL     1       4.363   6.035  18.384  0.00  0.00    +0.000 A 
ATOM     23  N   UNL     1       5.680   6.038  18.664  0.00  0.00    +0.000 NA
ATOM     24  C   UNL     1       6.217   6.093  17.389  0.00  0.00    +0.000 A 
ATOM     25  C   UNL     1       7.420   5.524  16.947  0.00  0.00    +0.000 A 
ATOM     26  C   UNL     1       7.371   4.906  15.694  0.00  0.00    +0.000 A 
ATOM     27  C   UNL     1       6.222   4.997  14.897  0.00  0.00    +0.000 A 
ATOM     28  C   UNL     1       5.152   5.852  15.224  0.00  0.00    +0.000 A 
ATOM     29  C   UNL     1       5.208   6.472  16.479  0.00  0.00    +0.000 A 
BRANCH  22  30
ATOM     30  C   UNL     1       3.476   4.843  18.305  0.00  0.00    +0.000 A 
ATOM     31  C   UNL     1       2.227   4.895  17.685  0.00  0.00    +0.000 A 
ATOM     32  C   UNL     1       1.296   3.869  17.895  0.00  0.00    +0.000 A 
ATOM     33  C   UNL     1       1.599   2.799  18.741  0.00  0.00    +0.000 A 
ATOM     34 CL   UNL     1       0.441   1.567  19.042  0.00  0.00    +0.000 Cl
ATOM     35  C   UNL     1       2.832   2.732  19.369  0.00  0.00    +0.000 A 
ATOM     36  C   UNL     1       3.762   3.735  19.131  0.00  0.00    +0.000 A 
ENDBRANCH  22  30
ENDBRANCH  20  21
ENDBRANCH  19  20
ENDBRANCH   1  19
TORSDOF 7
ENDMDL
MODEL 9
REMARK VINA RESULT:      -8.1      0.895      1.058
REMARK  Name = 
REMARK  8 active torsions:
REMARK  status: ('A' for Active; 'I' for Inactive)
REMARK    1  A    between atoms: C_1  and  C_2
REMARK    2  A    between atoms: N_4  and  C_5
REMARK    3  A    between atoms: C_8  and  C_9
REMARK    4  A    between atoms: N_12  and  C_13
REMARK    5  A    between atoms: C_13  and  C_14
REMARK    6  A    between atoms: C_14  and  C_15
REMARK    7  A    between atoms: C_15  and  N_16
REMARK    8  A    between atoms: C_17  and  C_18
REMARK                            x       y       z     vdW  Elec       q    Type
REMARK                         _______ _______ _______ _____ _____    ______ ____
ROOT
ATOM      1  C   UNL     1       0.708   9.339  19.822  0.00  0.00    +0.000 C 
ENDROOT
BRANCH   1   5
ATOM      2  C   UNL     1      -0.147  13.616  19.994  0.00  0.00    +0.000 C 
ATOM      3  C   UNL     1       0.288  12.982  18.661  0.00  0.00    +0.000 C 
ATOM      4  C   UNL     1       0.207  11.447  18.657  0.00  0.00    +0.000 C 
ATOM      5  N   UNL     1       0.932  10.812  19.767  0.00  0.00    +0.000 NA
ATOM      6  C   UNL     1       0.551  11.406  21.064  0.00  0.00    +0.000 C 
ATOM      7  C   UNL     1       0.665  12.933  21.106  0.00  0.00    +0.000 C 
BRANCH   2  11
ATOM      8  C   UNL     1      -4.437  13.695  20.879  0.00  0.00    +0.000 A 
ATOM      9  C   UNL     1      -3.605  14.721  21.313  0.00  0.00    +0.000 A 
ATOM     10  C   UNL     1      -2.236  14.711  21.021  0.00  0.00    +0.000 A 
ATOM     11  C   UNL     1      -1.651  13.689  20.265  0.00  0.00    +0.000 A 
ATOM     12  C   UNL     1      -2.498  12.652  19.833  0.00  0.00    +0.000 A 
ATOM     13  C   UNL     1      -3.872  12.652  20.139  0.00  0.00    +0.000 A 
BRANCH   8  17
ATOM     14  C   UNL     1      -7.903  12.953  22.188  0.00  0.00    +0.000 C 
ATOM     15  C   UNL     1      -6.397  12.947  22.236  0.00  0.00    +0.000 C 
ATOM     16  O   UNL     1      -5.815  12.344  23.133  0.00  0.00    +0.000 OA
ATOM     17  N   UNL     1      -5.814  13.635  21.187  0.00  0.00    +0.000 N 
ATOM     18  H   UNL     1      -6.431  14.178  20.600  0.00  0.00    +0.000 HD
ENDBRANCH   8  17
ENDBRANCH   2  11
ENDBRANCH   1   5
BRANCH   1  19
ATOM     19  C   UNL     1       1.802   8.493  19.156  0.00  0.00    +0.000 C 
BRANCH  19  20
ATOM     20  C   UNL     1       2.314   7.242  19.890  0.00  0.00    +0.000 C 
BRANCH  20  21
ATOM     21  N   UNL     1       2.366   5.896  19.368  0.00  0.00    +0.000 N 
ATOM     22  C   UNL     1       2.424   5.676  17.996  0.00  0.00    +0.000 A 
ATOM     23  N   UNL     1       1.344   4.908  17.762  0.00  0.00    +0.000 NA
ATOM     24  C   UNL     1       1.386   4.060  18.857  0.00  0.00    +0.000 A 
ATOM     25  C   UNL     1       0.978   2.720  18.912  0.00  0.00    +0.000 A 
ATOM     26  C   UNL     1       1.824   1.859  19.618  0.00  0.00    +0.000 A 
ATOM     27  C   UNL     1       2.917   2.363  20.334  0.00  0.00    +0.000 A 
ATOM     28  C   UNL     1       3.109   3.744  20.533  0.00  0.00    +0.000 A 
ATOM     29  C   UNL     1       2.256   4.601  19.827  0.00  0.00    +0.000 A 
BRANCH  22  30
ATOM     30  C   UNL     1       3.780   5.504  17.407  0.00  0.00    +0.000 A 
ATOM     31  C   UNL     1       4.593   6.595  17.098  0.00  0.00    +0.000 A 
ATOM     32  C   UNL     1       5.711   6.426  16.271  0.00  0.00    +0.000 A 
ATOM     33  C   UNL     1       6.010   5.173  15.732  0.00  0.00    +0.000 A 
ATOM     34 CL   UNL     1       7.349   4.972  14.675  0.00  0.00    +0.000 Cl
ATOM     35  C   UNL     1       5.213   4.078  16.022  0.00  0.00    +0.000 A 
ATOM     36  C   UNL     1       4.125   4.246  16.869  0.00  0.00    +0.000 A 
ENDBRANCH  22  30
ENDBRANCH  20  21
ENDBRANCH  19  20
ENDBRANCH   1  19
TORSDOF 7
ENDMDL
