MODEL 1
REMARK VINA RESULT:      -9.0      0.000      0.000
REMARK  Name = 
REMARK  6 active torsions:
REMARK  status: ('A' for Active; 'I' for Inactive)
REMARK    1  A    between atoms: C_2  and  C_3
REMARK    2  A    between atoms: C_3  and  N_4
REMARK    3  A    between atoms: N_13  and  C_14
REMARK    4  A    between atoms: N_13  and  C_23
REMARK    5  A    between atoms: C_14  and  C_15
REMARK    6  A    between atoms: C_26  and  C_27
REMARK                            x       y       z     vdW  Elec       q    Type
REMARK                         _______ _______ _______ _____ _____    ______ ____
ROOT
ATOM      1  O   UNL     1      -0.253  12.905  19.606  0.00  0.00    +0.000 OA
ATOM      2  C   UNL     1       0.496  12.012  19.192  0.00  0.00    +0.000 C 
ATOM      3  N   UNL     1       0.047  10.705  19.000  0.00  0.00    +0.000 N 
ENDROOT
BRANCH   3   4
ATOM      4  C   UNL     1       0.952   9.618  18.976  0.00  0.00    +0.000 A 
ATOM      5  C   UNL     1       1.516   9.215  17.766  0.00  0.00    +0.000 A 
ATOM      6  C   UNL     1       2.243   8.024  17.696  0.00  0.00    +0.000 A 
ATOM      7  C   UNL     1       2.440   7.215  18.829  0.00  0.00    +0.000 A 
ATOM      8  C   UNL     1       1.938   7.697  20.055  0.00  0.00    +0.000 A 
ATOM      9  C   UNL     1       1.200   8.887  20.131  0.00  0.00    +0.000 A 
BRANCH   7  10
ATOM     10  C   UNL     1       3.088   5.884  18.713  0.00  0.00    +0.000 A 
ATOM     11  C   UNL     1       4.272   5.556  19.392  0.00  0.00    +0.000 A 
ATOM     12  C   UNL     1       4.893   4.321  19.200  0.00  0.00    +0.000 A 
ATOM     13  C   UNL     1       4.301   3.416  18.339  0.00  0.00    +0.000 A 
ATOM     14  N   UNL     1       3.159   3.666  17.672  0.00  0.00    +0.000 NA
ATOM     15  C   UNL     1       2.594   4.886  17.865  0.00  0.00    +0.000 A 
ENDBRANCH   7  10
ENDBRANCH   3   4
BRANCH   2  16
ATOM     16  C   UNL     1       1.944  12.354  18.878  0.00  0.00    +0.000 C 
BRANCH  16  17
ATOM     17  N   UNL     1       2.540  13.345  19.749  0.00  0.00    +0.000 N 
ATOM     18  N   UNL     1       2.489  13.138  21.082  0.00  0.00    +0.000 NA
ATOM     19  N   UNL     1       3.074  14.169  21.675  0.00  0.00    +0.000 NA
ATOM     20  C   UNL     1       3.477  15.043  20.704  0.00  0.00    +0.000 A 
ATOM     21  C   UNL     1       4.147  16.270  20.806  0.00  0.00    +0.000 A 
ATOM     22  C   UNL     1       4.449  16.968  19.630  0.00  0.00    +0.000 A 
ATOM     23  C   UNL     1       4.065  16.467  18.386  0.00  0.00    +0.000 A 
ATOM     24  C   UNL     1       3.375  15.254  18.269  0.00  0.00    +0.000 A 
ATOM     25  C   UNL     1       3.120  14.552  19.452  0.00  0.00    +0.000 A 
ENDBRANCH  16  17
ENDBRANCH   2  16
BRANCH   3  26
ATOM     26  C   UNL     1      -1.353  10.384  19.317  0.00  0.00    +0.000 C 
BRANCH  26  27
ATOM     27  C   UNL     1      -2.293  10.707  18.176  0.00  0.00    +0.000 A 
ATOM     28  C   UNL     1      -3.444  11.476  18.398  0.00  0.00    +0.000 A 
ATOM     29  C   UNL     1      -4.336  11.713  17.355  0.00  0.00    +0.000 A 
ATOM     30  F   UNL     1      -5.434  12.444  17.589  0.00  0.00    +0.000 F 
ATOM     31  C   UNL     1      -4.115  11.204  16.083  0.00  0.00    +0.000 A 
ATOM     32  C   UNL     1      -2.966  10.458  15.850  0.00  0.00    +0.000 A 
ATOM     33 CL   UNL     1      -2.675   9.808  14.284  0.00  0.00    +0.000 Cl
ATOM     34  C   UNL     1      -2.056  10.216  16.882  0.00  0.00    +0.000 A 
ENDBRANCH  26  27
ENDBRANCH   3  26
TORSDOF 6
ENDMDL
MODEL 2
REMARK VINA RESULT:      -8.8      1.567      1.831
REMARK  Name = 
REMARK  6 active torsions:
REMARK  status: ('A' for Active; 'I' for Inactive)
REMARK    1  A    between atoms: C_2  and  C_3
REMARK    2  A    between atoms: C_3  and  N_4
REMARK    3  A    between atoms: N_13  and  C_14
REMARK    4  A    between atoms: N_13  and  C_23
REMARK    5  A    between atoms: C_14  and  C_15
REMARK    6  A    between atoms: C_26  and  C_27
REMARK                            x       y       z     vdW  Elec       q    Type
REMARK                         _______ _______ _______ _____ _____    ______ ____
ROOT
ATOM      1  O   UNL     1      -0.220  13.746  19.224  0.00  0.00    +0.000 OA
ATOM      2  C   UNL     1       0.430  12.721  18.988  0.00  0.00    +0.000 C 
ATOM      3  N   UNL     1      -0.141  11.451  19.077  0.00  0.00    +0.000 N 
ENDROOT
BRANCH   3   4
ATOM      4  C   UNL     1       0.662  10.300  19.259  0.00  0.00    +0.000 A 
ATOM      5  C   UNL     1       1.304   9.725  18.163  0.00  0.00    +0.000 A 
ATOM      6  C   UNL     1       1.925   8.481  18.291  0.00  0.00    +0.000 A 
ATOM      7  C   UNL     1       1.937   7.786  19.513  0.00  0.00    +0.000 A 
ATOM      8  C   UNL     1       1.362   8.436  20.624  0.00  0.00    +0.000 A 
ATOM      9  C   UNL     1       0.729   9.681  20.502  0.00  0.00    +0.000 A 
BRANCH   7  10
ATOM     10  C   UNL     1       2.473   6.404  19.601  0.00  0.00    +0.000 A 
ATOM     11  C   UNL     1       1.966   5.451  20.498  0.00  0.00    +0.000 A 
ATOM     12  C   UNL     1       2.545   4.185  20.604  0.00  0.00    +0.000 A 
ATOM     13  C   UNL     1       3.619   3.883  19.788  0.00  0.00    +0.000 A 
ATOM     14  N   UNL     1       4.139   4.749  18.899  0.00  0.00    +0.000 NA
ATOM     15  C   UNL     1       3.566   5.979  18.837  0.00  0.00    +0.000 A 
ENDBRANCH   7  10
ENDBRANCH   3   4
BRANCH   2  16
ATOM     16  C   UNL     1       1.889  12.852  18.582  0.00  0.00    +0.000 C 
BRANCH  16  17
ATOM     17  N   UNL     1       2.740  13.497  19.560  0.00  0.00    +0.000 N 
ATOM     18  N   UNL     1       2.570  13.183  20.862  0.00  0.00    +0.000 NA
ATOM     19  N   UNL     1       3.434  13.898  21.567  0.00  0.00    +0.000 NA
ATOM     20  C   UNL     1       4.139  14.686  20.701  0.00  0.00    +0.000 A 
ATOM     21  C   UNL     1       5.167  15.608  20.941  0.00  0.00    +0.000 A 
ATOM     22  C   UNL     1       5.728  16.285  19.850  0.00  0.00    +0.000 A 
ATOM     23  C   UNL     1       5.253  16.068  18.556  0.00  0.00    +0.000 A 
ATOM     24  C   UNL     1       4.211  15.167  18.303  0.00  0.00    +0.000 A 
ATOM     25  C   UNL     1       3.693  14.471  19.400  0.00  0.00    +0.000 A 
ENDBRANCH  16  17
ENDBRANCH   2  16
BRANCH   3  26
ATOM     26  C   UNL     1      -1.550  11.335  19.481  0.00  0.00    +0.000 C 
BRANCH  26  27
ATOM     27  C   UNL     1      -2.485  11.236  18.296  0.00  0.00    +0.000 A 
ATOM     28  C   UNL     1      -2.019  10.773  17.058  0.00  0.00    +0.000 A 
ATOM     29  C   UNL     1      -2.872  10.747  15.957  0.00  0.00    +0.000 A 
ATOM     30  F   UNL     1      -2.405  10.308  14.780  0.00  0.00    +0.000 F 
ATOM     31  C   UNL     1      -4.189  11.172  16.051  0.00  0.00    +0.000 A 
ATOM     32  C   UNL     1      -4.665  11.613  17.280  0.00  0.00    +0.000 A 
ATOM     33 CL   UNL     1      -6.292  12.154  17.418  0.00  0.00    +0.000 Cl
ATOM     34  C   UNL     1      -3.827  11.639  18.397  0.00  0.00    +0.000 A 
ENDBRANCH  26  27
ENDBRANCH   3  26
TORSDOF 6
ENDMDL
MODEL 3
REMARK VINA RESULT:      -8.7      1.729      1.983
REMARK  Name = 
REMARK  6 active torsions:
REMARK  status: ('A' for Active; 'I' for Inactive)
REMARK    1  A    between atoms: C_2  and  C_3
REMARK    2  A    between atoms: C_3  and  N_4
REMARK    3  A    between atoms: N_13  and  C_14
REMARK    4  A    between atoms: N_13  and  C_23
REMARK    5  A    between atoms: C_14  and  C_15
REMARK    6  A    between atoms: C_26  and  C_27
REMARK                            x       y       z     vdW  Elec       q    Type
REMARK                         _______ _______ _______ _____ _____    ______ ____
ROOT
ATOM      1  O   UNL     1      -0.580  12.776  20.478  0.00  0.00    +0.000 OA
ATOM      2  C   UNL     1       0.237  12.056  19.892  0.00  0.00    +0.000 C 
ATOM      3  N   UNL     1      -0.119  10.810  19.373  0.00  0.00    +0.000 N 
ENDROOT
BRANCH   3   4
ATOM      4  C   UNL     1       0.858   9.817  19.125  0.00  0.00    +0.000 A 
ATOM      5  C   UNL     1       1.462   9.740  17.870  0.00  0.00    +0.000 A 
ATOM      6  C   UNL     1       2.268   8.645  17.549  0.00  0.00    +0.000 A 
ATOM      7  C   UNL     1       2.505   7.610  18.470  0.00  0.00    +0.000 A 
ATOM      8  C   UNL     1       1.957   7.764  19.760  0.00  0.00    +0.000 A 
ATOM      9  C   UNL     1       1.140   8.855  20.088  0.00  0.00    +0.000 A 
BRANCH   7  10
ATOM     10  C   UNL     1       3.242   6.385  18.070  0.00  0.00    +0.000 A 
ATOM     11  C   UNL     1       2.716   5.095  18.239  0.00  0.00    +0.000 A 
ATOM     12  C   UNL     1       3.469   3.964  17.920  0.00  0.00    +0.000 A 
ATOM     13  C   UNL     1       4.742   4.145  17.411  0.00  0.00    +0.000 A 
ATOM     14  N   UNL     1       5.294   5.355  17.211  0.00  0.00    +0.000 NA
ATOM     15  C   UNL     1       4.542   6.434  17.553  0.00  0.00    +0.000 A 
ENDBRANCH   7  10
ENDBRANCH   3   4
BRANCH   2  16
ATOM     16  C   UNL     1       1.666  12.548  19.728  0.00  0.00    +0.000 C 
BRANCH  16  17
ATOM     17  N   UNL     1       1.967  13.787  20.414  0.00  0.00    +0.000 N 
ATOM     18  N   UNL     1       2.433  13.722  21.679  0.00  0.00    +0.000 NA
ATOM     19  N   UNL     1       2.620  14.962  22.107  0.00  0.00    +0.000 NA
ATOM     20  C   UNL     1       2.246  15.816  21.107  0.00  0.00    +0.000 A 
ATOM     21  C   UNL     1       2.261  17.217  21.054  0.00  0.00    +0.000 A 
ATOM     22  C   UNL     1       1.823  17.847  19.883  0.00  0.00    +0.000 A 
ATOM     23  C   UNL     1       1.354  17.098  18.803  0.00  0.00    +0.000 A 
ATOM     24  C   UNL     1       1.312  15.699  18.849  0.00  0.00    +0.000 A 
ATOM     25  C   UNL     1       1.793  15.087  20.011  0.00  0.00    +0.000 A 
ENDBRANCH  16  17
ENDBRANCH   2  16
BRANCH   3  26
ATOM     26  C   UNL     1      -1.501  10.339  19.547  0.00  0.00    +0.000 C 
BRANCH  26  27
ATOM     27  C   UNL     1      -2.342  10.544  18.305  0.00  0.00    +0.000 A 
ATOM     28  C   UNL     1      -1.950   9.987  17.081  0.00  0.00    +0.000 A 
ATOM     29  C   UNL     1      -2.696  10.235  15.931  0.00  0.00    +0.000 A 
ATOM     30  F   UNL     1      -2.301   9.700  14.768  0.00  0.00    +0.000 F 
ATOM     31  C   UNL     1      -3.834  11.029  15.963  0.00  0.00    +0.000 A 
ATOM     32  C   UNL     1      -4.240  11.568  17.178  0.00  0.00    +0.000 A 
ATOM     33 CL   UNL     1      -5.642  12.564  17.241  0.00  0.00    +0.000 Cl
ATOM     34  C   UNL     1      -3.509  11.324  18.343  0.00  0.00    +0.000 A 
ENDBRANCH  26  27
ENDBRANCH   3  26
TORSDOF 6
ENDMDL
MODEL 4
REMARK VINA RESULT:      -8.6      3.246      6.069
REMARK  Name = 
REMARK  6 active torsions:
REMARK  status: ('A' for Active; 'I' for Inactive)
REMARK    1  A    between atoms: C_2  and  C_3
REMARK    2  A    between atoms: C_3  and  N_4
REMARK    3  A    between atoms: N_13  and  C_14
REMARK    4  A    between atoms: N_13  and  C_23
REMARK    5  A    between atoms: C_14  and  C_15
REMARK    6  A    between atoms: C_26  and  C_27
REMARK                            x       y       z     vdW  Elec       q    Type
REMARK                         _______ _______ _______ _____ _____    ______ ____
ROOT
ATOM      1  O   UNL     1      -0.777  12.654  18.424  0.00  0.00    +0.000 OA
ATOM      2  C   UNL     1      -0.423  11.473  18.523  0.00  0.00    +0.000 C 
ATOM      3  N   UNL     1       0.588  11.080  19.401  0.00  0.00    +0.000 N 
ENDROOT
BRANCH   3   4
ATOM      4  C   UNL     1       1.297   9.871  19.205  0.00  0.00    +0.000 A 
ATOM      5  C   UNL     1       1.941   9.638  17.990  0.00  0.00    +0.000 A 
ATOM      6  C   UNL     1       2.464   8.373  17.710  0.00  0.00    +0.000 A 
ATOM      7  C   UNL     1       2.373   7.317  18.633  0.00  0.00    +0.000 A 
ATOM      8  C   UNL     1       1.800   7.611  19.887  0.00  0.00    +0.000 A 
ATOM      9  C   UNL     1       1.265   8.875  20.173  0.00  0.00    +0.000 A 
BRANCH   7  10
ATOM     10  C   UNL     1       2.802   5.943  18.267  0.00  0.00    +0.000 A 
ATOM     11  C   UNL     1       1.891   4.927  17.941  0.00  0.00    +0.000 A 
ATOM     12  C   UNL     1       2.328   3.628  17.675  0.00  0.00    +0.000 A 
ATOM     13  C   UNL     1       3.685   3.370  17.719  0.00  0.00    +0.000 A 
ATOM     14  N   UNL     1       4.608   4.306  18.010  0.00  0.00    +0.000 NA
ATOM     15  C   UNL     1       4.146   5.553  18.285  0.00  0.00    +0.000 A 
ENDBRANCH   7  10
ENDBRANCH   3   4
BRANCH   2  16
ATOM     16  C   UNL     1      -1.116  10.423  17.670  0.00  0.00    +0.000 C 
BRANCH  16  17
ATOM     17  N   UNL     1      -2.407  10.816  17.146  0.00  0.00    +0.000 N 
ATOM     18  N   UNL     1      -2.621  10.701  15.818  0.00  0.00    +0.000 NA
ATOM     19  N   UNL     1      -3.849  11.130  15.567  0.00  0.00    +0.000 NA
ATOM     20  C   UNL     1      -4.404  11.541  16.746  0.00  0.00    +0.000 A 
ATOM     21  C   UNL     1      -5.676  12.063  17.020  0.00  0.00    +0.000 A 
ATOM     22  C   UNL     1      -5.991  12.400  18.343  0.00  0.00    +0.000 A 
ATOM     23  C   UNL     1      -5.050  12.246  19.361  0.00  0.00    +0.000 A 
ATOM     24  C   UNL     1      -3.767  11.747  19.100  0.00  0.00    +0.000 A 
ATOM     25  C   UNL     1      -3.487  11.377  17.780  0.00  0.00    +0.000 A 
ENDBRANCH  16  17
ENDBRANCH   2  16
BRANCH   3  26
ATOM     26  C   UNL     1       1.259  12.106  20.214  0.00  0.00    +0.000 C 
BRANCH  26  27
ATOM     27  C   UNL     1       0.385  12.614  21.340  0.00  0.00    +0.000 A 
ATOM     28  C   UNL     1      -0.514  11.755  21.986  0.00  0.00    +0.000 A 
ATOM     29  C   UNL     1      -1.359  12.248  22.978  0.00  0.00    +0.000 A 
ATOM     30  F   UNL     1      -2.217  11.413  23.579  0.00  0.00    +0.000 F 
ATOM     31  C   UNL     1      -1.337  13.584  23.350  0.00  0.00    +0.000 A 
ATOM     32  C   UNL     1      -0.434  14.438  22.728  0.00  0.00    +0.000 A 
ATOM     33 CL   UNL     1      -0.396  16.102  23.165  0.00  0.00    +0.000 Cl
ATOM     34  C   UNL     1       0.427  13.961  21.737  0.00  0.00    +0.000 A 
ENDBRANCH  26  27
ENDBRANCH   3  26
TORSDOF 6
ENDMDL
MODEL 5
REMARK VINA RESULT:      -8.5      1.431      1.895
REMARK  Name = 
REMARK  6 active torsions:
REMARK  status: ('A' for Active; 'I' for Inactive)
REMARK    1  A    between atoms: C_2  and  C_3
REMARK    2  A    between atoms: C_3  and  N_4
REMARK    3  A    between atoms: N_13  and  C_14
REMARK    4  A    between atoms: N_13  and  C_23
REMARK    5  A    between atoms: C_14  and  C_15
REMARK    6  A    between atoms: C_26  and  C_27
REMARK                            x       y       z     vdW  Elec       q    Type
REMARK                         _______ _______ _______ _____ _____    ______ ____
ROOT
ATOM      1  O   UNL     1      -0.179  12.949  19.873  0.00  0.00    +0.000 OA
ATOM      2  C   UNL     1       0.467  12.030  19.355  0.00  0.00    +0.000 C 
ATOM      3  N   UNL     1      -0.116  10.798  19.055  0.00  0.00    +0.000 N 
ENDROOT
BRANCH   3   4
ATOM      4  C   UNL     1       0.674   9.634  18.903  0.00  0.00    +0.000 A 
ATOM      5  C   UNL     1       1.017   8.880  20.024  0.00  0.00    +0.000 A 
ATOM      6  C   UNL     1       1.960   7.855  19.914  0.00  0.00    +0.000 A 
ATOM      7  C   UNL     1       2.572   7.546  18.687  0.00  0.00    +0.000 A 
ATOM      8  C   UNL     1       2.134   8.263  17.555  0.00  0.00    +0.000 A 
ATOM      9  C   UNL     1       1.195   9.299  17.658  0.00  0.00    +0.000 A 
BRANCH   7  10
ATOM     10  C   UNL     1       3.675   6.554  18.612  0.00  0.00    +0.000 A 
ATOM     11  C   UNL     1       4.637   6.568  17.590  0.00  0.00    +0.000 A 
ATOM     12  C   UNL     1       5.615   5.575  17.510  0.00  0.00    +0.000 A 
ATOM     13  C   UNL     1       5.627   4.587  18.476  0.00  0.00    +0.000 A 
ATOM     14  N   UNL     1       4.742   4.529  19.488  0.00  0.00    +0.000 NA
ATOM     15  C   UNL     1       3.790   5.499  19.523  0.00  0.00    +0.000 A 
ENDBRANCH   7  10
ENDBRANCH   3   4
BRANCH   2  16
ATOM     16  C   UNL     1       1.935  12.255  19.031  0.00  0.00    +0.000 C 
BRANCH  16  17
ATOM     17  N   UNL     1       2.583  13.285  19.816  0.00  0.00    +0.000 N 
ATOM     18  N   UNL     1       2.623  13.137  21.158  0.00  0.00    +0.000 NA
ATOM     19  N   UNL     1       3.240  14.194  21.664  0.00  0.00    +0.000 NA
ATOM     20  C   UNL     1       3.571  15.027  20.631  0.00  0.00    +0.000 A 
ATOM     21  C   UNL     1       4.237  16.260  20.634  0.00  0.00    +0.000 A 
ATOM     22  C   UNL     1       4.455  16.907  19.411  0.00  0.00    +0.000 A 
ATOM     23  C   UNL     1       3.990  16.351  18.219  0.00  0.00    +0.000 A 
ATOM     24  C   UNL     1       3.302  15.131  18.202  0.00  0.00    +0.000 A 
ATOM     25  C   UNL     1       3.133  14.481  19.428  0.00  0.00    +0.000 A 
ENDBRANCH  16  17
ENDBRANCH   2  16
BRANCH   3  26
ATOM     26  C   UNL     1      -1.534  10.587  19.383  0.00  0.00    +0.000 C 
BRANCH  26  27
ATOM     27  C   UNL     1      -2.430  10.694  18.168  0.00  0.00    +0.000 A 
ATOM     28  C   UNL     1      -2.079  10.062  16.967  0.00  0.00    +0.000 A 
ATOM     29  C   UNL     1      -2.878  10.219  15.837  0.00  0.00    +0.000 A 
ATOM     30  F   UNL     1      -2.521   9.614  14.697  0.00  0.00    +0.000 F 
ATOM     31  C   UNL     1      -4.028  10.994  15.865  0.00  0.00    +0.000 A 
ATOM     32  C   UNL     1      -4.394  11.607  17.058  0.00  0.00    +0.000 A 
ATOM     33 CL   UNL     1      -5.811  12.581  17.115  0.00  0.00    +0.000 Cl
ATOM     34  C   UNL     1      -3.610  11.455  18.204  0.00  0.00    +0.000 A 
ENDBRANCH  26  27
ENDBRANCH   3  26
TORSDOF 6
ENDMDL
MODEL 6
REMARK VINA RESULT:      -8.5      1.076      1.688
REMARK  Name = 
REMARK  6 active torsions:
REMARK  status: ('A' for Active; 'I' for Inactive)
REMARK    1  A    between atoms: C_2  and  C_3
REMARK    2  A    between atoms: C_3  and  N_4
REMARK    3  A    between atoms: N_13  and  C_14
REMARK    4  A    between atoms: N_13  and  C_23
REMARK    5  A    between atoms: C_14  and  C_15
REMARK    6  A    between atoms: C_26  and  C_27
REMARK                            x       y       z     vdW  Elec       q    Type
REMARK                         _______ _______ _______ _____ _____    ______ ____
ROOT
ATOM      1  O   UNL     1      -0.373  12.844  20.068  0.00  0.00    +0.000 OA
ATOM      2  C   UNL     1       0.403  12.003  19.596  0.00  0.00    +0.000 C 
ATOM      3  N   UNL     1      -0.022  10.717  19.262  0.00  0.00    +0.000 N 
ENDROOT
BRANCH   3   4
ATOM      4  C   UNL     1       0.898   9.646  19.165  0.00  0.00    +0.000 A 
ATOM      5  C   UNL     1       1.452   9.321  17.927  0.00  0.00    +0.000 A 
ATOM      6  C   UNL     1       2.194   8.148  17.780  0.00  0.00    +0.000 A 
ATOM      7  C   UNL     1       2.417   7.277  18.862  0.00  0.00    +0.000 A 
ATOM      8  C   UNL     1       1.924   7.681  20.120  0.00  0.00    +0.000 A 
ATOM      9  C   UNL     1       1.171   8.854  20.273  0.00  0.00    +0.000 A 
BRANCH   7  10
ATOM     10  C   UNL     1       3.082   5.965  18.662  0.00  0.00    +0.000 A 
ATOM     11  C   UNL     1       2.576   4.983  17.797  0.00  0.00    +0.000 A 
ATOM     12  C   UNL     1       3.187   3.733  17.691  0.00  0.00    +0.000 A 
ATOM     13  C   UNL     1       4.320   3.491  18.446  0.00  0.00    +0.000 A 
ATOM     14  N   UNL     1       4.862   4.397  19.281  0.00  0.00    +0.000 NA
ATOM     15  C   UNL     1       4.228   5.595  19.375  0.00  0.00    +0.000 A 
ENDBRANCH   7  10
ENDBRANCH   3   4
BRANCH   2  16
ATOM     16  C   UNL     1       1.855  12.389  19.368  0.00  0.00    +0.000 C 
BRANCH  16  17
ATOM     17  N   UNL     1       2.101  13.812  19.266  0.00  0.00    +0.000 N 
ATOM     18  N   UNL     1       2.289  14.342  18.038  0.00  0.00    +0.000 NA
ATOM     19  N   UNL     1       2.512  15.639  18.187  0.00  0.00    +0.000 NA
ATOM     20  C   UNL     1       2.485  15.923  19.523  0.00  0.00    +0.000 A 
ATOM     21  C   UNL     1       2.653  17.141  20.199  0.00  0.00    +0.000 A 
ATOM     22  C   UNL     1       2.568  17.149  21.596  0.00  0.00    +0.000 A 
ATOM     23  C   UNL     1       2.352  15.965  22.304  0.00  0.00    +0.000 A 
ATOM     24  C   UNL     1       2.206  14.738  21.645  0.00  0.00    +0.000 A 
ATOM     25  C   UNL     1       2.251  14.758  20.248  0.00  0.00    +0.000 A 
ENDBRANCH  16  17
ENDBRANCH   2  16
BRANCH   3  26
ATOM     26  C   UNL     1      -1.428  10.352  19.497  0.00  0.00    +0.000 C 
BRANCH  26  27
ATOM     27  C   UNL     1      -2.319  10.701  18.325  0.00  0.00    +0.000 A 
ATOM     28  C   UNL     1      -3.451  11.506  18.507  0.00  0.00    +0.000 A 
ATOM     29  C   UNL     1      -4.300  11.769  17.434  0.00  0.00    +0.000 A 
ATOM     30  F   UNL     1      -5.381  12.535  17.630  0.00  0.00    +0.000 F 
ATOM     31  C   UNL     1      -4.054  11.249  16.172  0.00  0.00    +0.000 A 
ATOM     32  C   UNL     1      -2.922  10.466  15.979  0.00  0.00    +0.000 A 
ATOM     33 CL   UNL     1      -2.601   9.801  14.424  0.00  0.00    +0.000 Cl
ATOM     34  C   UNL     1      -2.055  10.198  17.040  0.00  0.00    +0.000 A 
ENDBRANCH  26  27
ENDBRANCH   3  26
TORSDOF 6
ENDMDL
MODEL 7
REMARK VINA RESULT:      -8.4      5.658     10.031
REMARK  Name = 
REMARK  6 active torsions:
REMARK  status: ('A' for Active; 'I' for Inactive)
REMARK    1  A    between atoms: C_2  and  C_3
REMARK    2  A    between atoms: C_3  and  N_4
REMARK    3  A    between atoms: N_13  and  C_14
REMARK    4  A    between atoms: N_13  and  C_23
REMARK    5  A    between atoms: C_14  and  C_15
REMARK    6  A    between atoms: C_26  and  C_27
REMARK                            x       y       z     vdW  Elec       q    Type
REMARK                         _______ _______ _______ _____ _____    ______ ____
ROOT
ATOM      1  O   UNL     1       5.484   3.357  15.863  0.00  0.00    +0.000 OA
ATOM      2  C   UNL     1       4.651   4.144  16.328  0.00  0.00    +0.000 C 
ATOM      3  N   UNL     1       4.887   5.518  16.380  0.00  0.00    +0.000 N 
ENDROOT
BRANCH   3   4
ATOM      4  C   UNL     1       4.185   6.347  17.287  0.00  0.00    +0.000 A 
ATOM      5  C   UNL     1       4.105   5.986  18.632  0.00  0.00    +0.000 A 
ATOM      6  C   UNL     1       3.248   6.678  19.491  0.00  0.00    +0.000 A 
ATOM      7  C   UNL     1       2.463   7.754  19.038  0.00  0.00    +0.000 A 
ATOM      8  C   UNL     1       2.637   8.153  17.697  0.00  0.00    +0.000 A 
ATOM      9  C   UNL     1       3.489   7.458  16.827  0.00  0.00    +0.000 A 
BRANCH   7  10
ATOM     10  C   UNL     1       1.452   8.386  19.923  0.00  0.00    +0.000 A 
ATOM     11  C   UNL     1       1.058   7.823  21.146  0.00  0.00    +0.000 A 
ATOM     12  C   UNL     1       0.050   8.408  21.916  0.00  0.00    +0.000 A 
ATOM     13  C   UNL     1      -0.538   9.570  21.453  0.00  0.00    +0.000 A 
ATOM     14  N   UNL     1      -0.192  10.165  20.296  0.00  0.00    +0.000 NA
ATOM     15  C   UNL     1       0.776   9.557  19.563  0.00  0.00    +0.000 A 
ENDBRANCH   7  10
ENDBRANCH   3   4
BRANCH   2  16
ATOM     16  C   UNL     1       3.332   3.597  16.850  0.00  0.00    +0.000 C 
BRANCH  16  17
ATOM     17  N   UNL     1       3.377   3.081  18.202  0.00  0.00    +0.000 N 
ATOM     18  N   UNL     1       4.416   2.292  18.552  0.00  0.00    +0.000 NA
ATOM     19  N   UNL     1       4.241   1.928  19.814  0.00  0.00    +0.000 NA
ATOM     20  C   UNL     1       3.068   2.475  20.254  0.00  0.00    +0.000 A 
ATOM     21  C   UNL     1       2.442   2.400  21.507  0.00  0.00    +0.000 A 
ATOM     22  C   UNL     1       1.229   3.074  21.691  0.00  0.00    +0.000 A 
ATOM     23  C   UNL     1       0.640   3.781  20.642  0.00  0.00    +0.000 A 
ATOM     24  C   UNL     1       1.241   3.846  19.378  0.00  0.00    +0.000 A 
ATOM     25  C   UNL     1       2.473   3.202  19.227  0.00  0.00    +0.000 A 
ENDBRANCH  16  17
ENDBRANCH   2  16
BRANCH   3  26
ATOM     26  C   UNL     1       6.171   6.036  15.882  0.00  0.00    +0.000 C 
BRANCH  26  27
ATOM     27  C   UNL     1       7.060   6.545  16.996  0.00  0.00    +0.000 A 
ATOM     28  C   UNL     1       7.498   5.680  18.008  0.00  0.00    +0.000 A 
ATOM     29  C   UNL     1       8.263   6.173  19.063  0.00  0.00    +0.000 A 
ATOM     30  F   UNL     1       8.666   5.332  20.025  0.00  0.00    +0.000 F 
ATOM     31  C   UNL     1       8.609   7.514  19.143  0.00  0.00    +0.000 A 
ATOM     32  C   UNL     1       8.196   8.373  18.132  0.00  0.00    +0.000 A 
ATOM     33 CL   UNL     1       8.604  10.043  18.214  0.00  0.00    +0.000 Cl
ATOM     34  C   UNL     1       7.435   7.897  17.062  0.00  0.00    +0.000 A 
ENDBRANCH  26  27
ENDBRANCH   3  26
TORSDOF 6
ENDMDL
MODEL 8
REMARK VINA RESULT:      -8.4      1.811      2.127
REMARK  Name = 
REMARK  6 active torsions:
REMARK  status: ('A' for Active; 'I' for Inactive)
REMARK    1  A    between atoms: C_2  and  C_3
REMARK    2  A    between atoms: C_3  and  N_4
REMARK    3  A    between atoms: N_13  and  C_14
REMARK    4  A    between atoms: N_13  and  C_23
REMARK    5  A    between atoms: C_14  and  C_15
REMARK    6  A    between atoms: C_26  and  C_27
REMARK                            x       y       z     vdW  Elec       q    Type
REMARK                         _______ _______ _______ _____ _____    ______ ____
ROOT
ATOM      1  O   UNL     1      -1.082  12.413  20.519  0.00  0.00    +0.000 OA
ATOM      2  C   UNL     1      -0.155  11.807  19.969  0.00  0.00    +0.000 C 
ATOM      3  N   UNL     1      -0.355  10.585  19.324  0.00  0.00    +0.000 N 
ENDROOT
BRANCH   3   4
ATOM      4  C   UNL     1       0.719   9.691  19.105  0.00  0.00    +0.000 A 
ATOM      5  C   UNL     1       1.337   9.646  17.856  0.00  0.00    +0.000 A 
ATOM      6  C   UNL     1       2.252   8.631  17.566  0.00  0.00    +0.000 A 
ATOM      7  C   UNL     1       2.586   7.647  18.514  0.00  0.00    +0.000 A 
ATOM      8  C   UNL     1       2.016   7.776  19.797  0.00  0.00    +0.000 A 
ATOM      9  C   UNL     1       1.090   8.786  20.093  0.00  0.00    +0.000 A 
BRANCH   7  10
ATOM     10  C   UNL     1       3.447   6.494  18.147  0.00  0.00    +0.000 A 
ATOM     11  C   UNL     1       3.082   5.164  18.406  0.00  0.00    +0.000 A 
ATOM     12  C   UNL     1       3.950   4.111  18.115  0.00  0.00    +0.000 A 
ATOM     13  C   UNL     1       5.174   4.407  17.543  0.00  0.00    +0.000 A 
ATOM     14  N   UNL     1       5.573   5.660  17.257  0.00  0.00    +0.000 NA
ATOM     15  C   UNL     1       4.712   6.663  17.574  0.00  0.00    +0.000 A 
ENDBRANCH   7  10
ENDBRANCH   3   4
BRANCH   2  16
ATOM     16  C   UNL     1       1.238  12.415  19.992  0.00  0.00    +0.000 C 
BRANCH  16  17
ATOM     17  N   UNL     1       1.283  13.847  19.780  0.00  0.00    +0.000 N 
ATOM     18  N   UNL     1       0.430  14.624  20.481  0.00  0.00    +0.000 NA
ATOM     19  N   UNL     1       0.635  15.881  20.117  0.00  0.00    +0.000 NA
ATOM     20  C   UNL     1       1.611  15.892  19.160  0.00  0.00    +0.000 A 
ATOM     21  C   UNL     1       2.194  16.961  18.466  0.00  0.00    +0.000 A 
ATOM     22  C   UNL     1       3.197  16.684  17.529  0.00  0.00    +0.000 A 
ATOM     23  C   UNL     1       3.588  15.370  17.270  0.00  0.00    +0.000 A 
ATOM     24  C   UNL     1       2.999  14.289  17.939  0.00  0.00    +0.000 A 
ATOM     25  C   UNL     1       2.030  14.589  18.901  0.00  0.00    +0.000 A 
ENDBRANCH  16  17
ENDBRANCH   2  16
BRANCH   3  26
ATOM     26  C   UNL     1      -1.705  10.001  19.318  0.00  0.00    +0.000 C 
BRANCH  26  27
ATOM     27  C   UNL     1      -2.487  10.367  18.075  0.00  0.00    +0.000 A 
ATOM     28  C   UNL     1      -2.045   9.960  16.809  0.00  0.00    +0.000 A 
ATOM     29  C   UNL     1      -2.737  10.357  15.667  0.00  0.00    +0.000 A 
ATOM     30  F   UNL     1      -2.294   9.963  14.466  0.00  0.00    +0.000 F 
ATOM     31  C   UNL     1      -3.869  11.155  15.748  0.00  0.00    +0.000 A 
ATOM     32  C   UNL     1      -4.326  11.546  17.001  0.00  0.00    +0.000 A 
ATOM     33 CL   UNL     1      -5.722  12.544  17.125  0.00  0.00    +0.000 Cl
ATOM     34  C   UNL     1      -3.650  11.152  18.157  0.00  0.00    +0.000 A 
ENDBRANCH  26  27
ENDBRANCH   3  26
TORSDOF 6
ENDMDL
MODEL 9
REMARK VINA RESULT:      -8.3      1.607      1.987
REMARK  Name = 
REMARK  6 active torsions:
REMARK  status: ('A' for Active; 'I' for Inactive)
REMARK    1  A    between atoms: C_2  and  C_3
REMARK    2  A    between atoms: C_3  and  N_4
REMARK    3  A    between atoms: N_13  and  C_14
REMARK    4  A    between atoms: N_13  and  C_23
REMARK    5  A    between atoms: C_14  and  C_15
REMARK    6  A    between atoms: C_26  and  C_27
REMARK                            x       y       z     vdW  Elec       q    Type
REMARK                         _______ _______ _______ _____ _____    ______ ____
ROOT
ATOM      1  O   UNL     1      -1.176  12.065  20.810  0.00  0.00    +0.000 OA
ATOM      2  C   UNL     1      -0.206  11.527  20.262  0.00  0.00    +0.000 C 
ATOM      3  N   UNL     1      -0.343  10.372  19.491  0.00  0.00    +0.000 N 
ENDROOT
BRANCH   3   4
ATOM      4  C   UNL     1       0.760   9.518  19.253  0.00  0.00    +0.000 A 
ATOM      5  C   UNL     1       1.405   9.550  18.018  0.00  0.00    +0.000 A 
ATOM      6  C   UNL     1       2.353   8.575  17.700  0.00  0.00    +0.000 A 
ATOM      7  C   UNL     1       2.694   7.556  18.606  0.00  0.00    +0.000 A 
ATOM      8  C   UNL     1       2.094   7.607  19.881  0.00  0.00    +0.000 A 
ATOM      9  C   UNL     1       1.135   8.577  20.205  0.00  0.00    +0.000 A 
BRANCH   7  10
ATOM     10  C   UNL     1       3.594   6.446  18.203  0.00  0.00    +0.000 A 
ATOM     11  C   UNL     1       4.285   6.436  16.982  0.00  0.00    +0.000 A 
ATOM     12  C   UNL     1       5.064   5.340  16.605  0.00  0.00    +0.000 A 
ATOM     13  C   UNL     1       5.155   4.270  17.475  0.00  0.00    +0.000 A 
ATOM     14  N   UNL     1       4.528   4.227  18.665  0.00  0.00    +0.000 NA
ATOM     15  C   UNL     1       3.762   5.301  18.990  0.00  0.00    +0.000 A 
ENDBRANCH   7  10
ENDBRANCH   3   4
BRANCH   2  16
ATOM     16  C   UNL     1       1.171  12.150  20.428  0.00  0.00    +0.000 C 
BRANCH  16  17
ATOM     17  N   UNL     1       1.422  13.309  19.597  0.00  0.00    +0.000 N 
ATOM     18  N   UNL     1       2.234  13.165  18.528  0.00  0.00    +0.000 NA
ATOM     19  N   UNL     1       2.332  14.345  17.932  0.00  0.00    +0.000 NA
ATOM     20  C   UNL     1       1.592  15.244  18.648  0.00  0.00    +0.000 A 
ATOM     21  C   UNL     1       1.362  16.610  18.433  0.00  0.00    +0.000 A 
ATOM     22  C   UNL     1       0.543  17.302  19.334  0.00  0.00    +0.000 A 
ATOM     23  C   UNL     1      -0.009  16.652  20.439  0.00  0.00    +0.000 A 
ATOM     24  C   UNL     1       0.230  15.293  20.680  0.00  0.00    +0.000 A 
ATOM     25  C   UNL     1       1.016  14.611  19.746  0.00  0.00    +0.000 A 
ENDBRANCH  16  17
ENDBRANCH   2  16
BRANCH   3  26
ATOM     26  C   UNL     1      -1.678   9.772  19.346  0.00  0.00    +0.000 C 
BRANCH  26  27
ATOM     27  C   UNL     1      -2.433  10.324  18.157  0.00  0.00    +0.000 A 
ATOM     28  C   UNL     1      -3.473  11.246  18.339  0.00  0.00    +0.000 A 
ATOM     29  C   UNL     1      -4.204  11.699  17.243  0.00  0.00    +0.000 A 
ATOM     30  F   UNL     1      -5.199  12.574  17.439  0.00  0.00    +0.000 F 
ATOM     31  C   UNL     1      -3.929  11.258  15.957  0.00  0.00    +0.000 A 
ATOM     32  C   UNL     1      -2.886  10.360  15.765  0.00  0.00    +0.000 A 
ATOM     33 CL   UNL     1      -2.532   9.791  14.181  0.00  0.00    +0.000 Cl
ATOM     34  C   UNL     1      -2.136   9.900  16.851  0.00  0.00    +0.000 A 
ENDBRANCH  26  27
ENDBRANCH   3  26
TORSDOF 6
ENDMDL
