MODEL 1
REMARK VINA RESULT:      -7.1      0.000      0.000
REMARK  Name = 
REMARK  9 active torsions:
REMARK  status: ('A' for Active; 'I' for Inactive)
REMARK    1  A    between atoms: C_1  and  O_2
REMARK    2  A    between atoms: O_2  and  C_3
REMARK    3  A    between atoms: C_3  and  C_5
REMARK    4  A    between atoms: C_5  and  O_6
REMARK    5  A    between atoms: C_5  and  C_8
REMARK    6  A    between atoms: O_6  and  C_7
REMARK    7  A    between atoms: C_12  and  C_13
REMARK    8  A    between atoms: C_13  and  O_14
REMARK    9  A    between atoms: O_14  and  C_15
REMARK                            x       y       z     vdW  Elec       q    Type
REMARK                         _______ _______ _______ _____ _____    ______ ____
ROOT
ATOM      1  C   UNL     1       4.426   5.086  17.108  0.00  0.00    +0.000 A 
ATOM      2  C   UNL     1       3.824   3.822  17.007  0.00  0.00    +0.000 A 
ATOM      3  C   UNL     1       2.755   3.472  17.833  0.00  0.00    +0.000 A 
ATOM      4  C   UNL     1       2.249   4.392  18.749  0.00  0.00    +0.000 A 
ATOM      5  C   UNL     1       2.815   5.667  18.858  0.00  0.00    +0.000 A 
ATOM      6  C   UNL     1       3.921   5.994  18.057  0.00  0.00    +0.000 A 
ENDROOT
BRANCH   1   7
ATOM      7  C   UNL     1       5.506   5.542  16.130  0.00  0.00    +0.000 C 
BRANCH   7   8
ATOM      8  C   UNL     1       6.789   6.029  16.850  0.00  0.00    +0.000 C 
ATOM      9  O   UNL     1       7.354   7.100  16.649  0.00  0.00    +0.000 OA
BRANCH   8  11
ATOM     10  C   UNL     1       7.704   5.660  18.972  0.00  0.00    +0.000 C 
ATOM     11  O   UNL     1       7.232   5.099  17.746  0.00  0.00    +0.000 OA
ENDBRANCH   8  11
ENDBRANCH   7   8
BRANCH   7  12
ATOM     12  O   UNL     1       5.653   4.439  15.235  0.00  0.00    +0.000 OA
ATOM     13  C   UNL     1       6.699   4.581  14.288  0.00  0.00    +0.000 C 
ENDBRANCH   7  12
ENDBRANCH   1   7
BRANCH   5  14
ATOM     14  C   UNL     1       2.230   6.688  19.805  0.00  0.00    +0.000 C 
BRANCH  14  15
ATOM     15  O   UNL     1       2.231   7.964  19.166  0.00  0.00    +0.000 OA
BRANCH  15  16
ATOM     16  C   UNL     1       1.324   8.874  19.640  0.00  0.00    +0.000 A 
ATOM     17  C   UNL     1       1.061   8.788  21.008  0.00  0.00    +0.000 A 
ATOM     18  C   UNL     1       0.169   9.674  21.608  0.00  0.00    +0.000 A 
ATOM     19 CL   UNL     1      -0.164   9.542  23.291  0.00  0.00    +0.000 Cl
ATOM     20  C   UNL     1      -0.456  10.666  20.858  0.00  0.00    +0.000 A 
ATOM     21  C   UNL     1      -0.178  10.760  19.497  0.00  0.00    +0.000 A 
ATOM     22 CL   UNL     1      -0.930  11.995  18.561  0.00  0.00    +0.000 Cl
ATOM     23  C   UNL     1       0.708   9.872  18.883  0.00  0.00    +0.000 A 
ENDBRANCH  15  16
ENDBRANCH  14  15
ENDBRANCH   5  14
TORSDOF 7
ENDMDL
MODEL 2
REMARK VINA RESULT:      -7.0      1.130      2.340
REMARK  Name = 
REMARK  9 active torsions:
REMARK  status: ('A' for Active; 'I' for Inactive)
REMARK    1  A    between atoms: C_1  and  O_2
REMARK    2  A    between atoms: O_2  and  C_3
REMARK    3  A    between atoms: C_3  and  C_5
REMARK    4  A    between atoms: C_5  and  O_6
REMARK    5  A    between atoms: C_5  and  C_8
REMARK    6  A    between atoms: O_6  and  C_7
REMARK    7  A    between atoms: C_12  and  C_13
REMARK    8  A    between atoms: C_13  and  O_14
REMARK    9  A    between atoms: O_14  and  C_15
REMARK                            x       y       z     vdW  Elec       q    Type
REMARK                         _______ _______ _______ _____ _____    ______ ____
ROOT
ATOM      1  C   UNL     1       4.636   5.696  16.860  0.00  0.00    +0.000 A 
ATOM      2  C   UNL     1       3.813   4.663  17.335  0.00  0.00    +0.000 A 
ATOM      3  C   UNL     1       2.658   4.948  18.063  0.00  0.00    +0.000 A 
ATOM      4  C   UNL     1       2.287   6.270  18.298  0.00  0.00    +0.000 A 
ATOM      5  C   UNL     1       3.077   7.322  17.819  0.00  0.00    +0.000 A 
ATOM      6  C   UNL     1       4.264   7.026  17.130  0.00  0.00    +0.000 A 
ENDROOT
BRANCH   1   7
ATOM      7  C   UNL     1       5.831   5.419  15.951  0.00  0.00    +0.000 C 
BRANCH   7   8
ATOM      8  C   UNL     1       7.185   5.593  16.682  0.00  0.00    +0.000 C 
ATOM      9  O   UNL     1       7.749   4.730  17.348  0.00  0.00    +0.000 OA
BRANCH   8  11
ATOM     10  C   UNL     1       7.763   7.615  17.710  0.00  0.00    +0.000 C 
ATOM     11  O   UNL     1       7.681   6.853  16.504  0.00  0.00    +0.000 OA
ENDBRANCH   8  11
ENDBRANCH   7   8
BRANCH   7  12
ATOM     12  O   UNL     1       5.559   4.127  15.404  0.00  0.00    +0.000 OA
ATOM     13  C   UNL     1       6.016   3.940  14.075  0.00  0.00    +0.000 C 
ENDBRANCH   7  12
ENDBRANCH   1   7
BRANCH   5  14
ATOM     14  C   UNL     1       2.647   8.756  18.018  0.00  0.00    +0.000 C 
BRANCH  14  15
ATOM     15  O   UNL     1       1.255   8.781  18.329  0.00  0.00    +0.000 OA
BRANCH  15  16
ATOM     16  C   UNL     1       0.890   9.566  19.391  0.00  0.00    +0.000 A 
ATOM     17  C   UNL     1       0.640  10.904  19.078  0.00  0.00    +0.000 A 
ATOM     18  C   UNL     1       0.244  11.794  20.074  0.00  0.00    +0.000 A 
ATOM     19 CL   UNL     1      -0.037  13.446  19.679  0.00  0.00    +0.000 Cl
ATOM     20  C   UNL     1       0.075  11.361  21.385  0.00  0.00    +0.000 A 
ATOM     21  C   UNL     1       0.308  10.023  21.690  0.00  0.00    +0.000 A 
ATOM     22 CL   UNL     1       0.082   9.469  23.305  0.00  0.00    +0.000 Cl
ATOM     23  C   UNL     1       0.714   9.122  20.702  0.00  0.00    +0.000 A 
ENDBRANCH  15  16
ENDBRANCH  14  15
ENDBRANCH   5  14
TORSDOF 7
ENDMDL
MODEL 3
REMARK VINA RESULT:      -6.9      0.542      1.940
REMARK  Name = 
REMARK  9 active torsions:
REMARK  status: ('A' for Active; 'I' for Inactive)
REMARK    1  A    between atoms: C_1  and  O_2
REMARK    2  A    between atoms: O_2  and  C_3
REMARK    3  A    between atoms: C_3  and  C_5
REMARK    4  A    between atoms: C_5  and  O_6
REMARK    5  A    between atoms: C_5  and  C_8
REMARK    6  A    between atoms: O_6  and  C_7
REMARK    7  A    between atoms: C_12  and  C_13
REMARK    8  A    between atoms: C_13  and  O_14
REMARK    9  A    between atoms: O_14  and  C_15
REMARK                            x       y       z     vdW  Elec       q    Type
REMARK                         _______ _______ _______ _____ _____    ______ ____
ROOT
ATOM      1  C   UNL     1       4.673   4.676  17.175  0.00  0.00    +0.000 A 
ATOM      2  C   UNL     1       4.137   3.380  17.135  0.00  0.00    +0.000 A 
ATOM      3  C   UNL     1       3.106   3.007  17.998  0.00  0.00    +0.000 A 
ATOM      4  C   UNL     1       2.570   3.932  18.890  0.00  0.00    +0.000 A 
ATOM      5  C   UNL     1       3.070   5.239  18.939  0.00  0.00    +0.000 A 
ATOM      6  C   UNL     1       4.140   5.592  18.101  0.00  0.00    +0.000 A 
ENDROOT
BRANCH   1   7
ATOM      7  C   UNL     1       5.707   5.151  16.157  0.00  0.00    +0.000 C 
BRANCH   7   8
ATOM      8  C   UNL     1       6.988   5.706  16.829  0.00  0.00    +0.000 C 
ATOM      9  O   UNL     1       7.583   6.724  16.491  0.00  0.00    +0.000 OA
BRANCH   8  11
ATOM     10  C   UNL     1       7.769   5.619  19.033  0.00  0.00    +0.000 C 
ATOM     11  O   UNL     1       7.391   4.902  17.856  0.00  0.00    +0.000 OA
ENDBRANCH   8  11
ENDBRANCH   7   8
BRANCH   7  12
ATOM     12  O   UNL     1       5.873   4.032  15.284  0.00  0.00    +0.000 OA
ATOM     13  C   UNL     1       6.541   4.326  14.068  0.00  0.00    +0.000 C 
ENDBRANCH   7  12
ENDBRANCH   1   7
BRANCH   5  14
ATOM     14  C   UNL     1       2.451   6.263  19.860  0.00  0.00    +0.000 C 
BRANCH  14  15
ATOM     15  O   UNL     1       2.196   7.456  19.119  0.00  0.00    +0.000 OA
BRANCH  15  16
ATOM     16  C   UNL     1       1.567   8.464  19.801  0.00  0.00    +0.000 A 
ATOM     17  C   UNL     1       1.254   9.589  19.036  0.00  0.00    +0.000 A 
ATOM     18  C   UNL     1       0.598  10.671  19.618  0.00  0.00    +0.000 A 
ATOM     19 CL   UNL     1       0.239  12.062  18.669  0.00  0.00    +0.000 Cl
ATOM     20  C   UNL     1       0.229  10.639  20.959  0.00  0.00    +0.000 A 
ATOM     21  C   UNL     1       0.527   9.508  21.714  0.00  0.00    +0.000 A 
ATOM     22 CL   UNL     1       0.058   9.446  23.371  0.00  0.00    +0.000 Cl
ATOM     23  C   UNL     1       1.193   8.420  21.145  0.00  0.00    +0.000 A 
ENDBRANCH  15  16
ENDBRANCH  14  15
ENDBRANCH   5  14
TORSDOF 7
ENDMDL
MODEL 4
REMARK VINA RESULT:      -6.9      3.816      8.092
REMARK  Name = 
REMARK  9 active torsions:
REMARK  status: ('A' for Active; 'I' for Inactive)
REMARK    1  A    between atoms: C_1  and  O_2
REMARK    2  A    between atoms: O_2  and  C_3
REMARK    3  A    between atoms: C_3  and  C_5
REMARK    4  A    between atoms: C_5  and  O_6
REMARK    5  A    between atoms: C_5  and  C_8
REMARK    6  A    between atoms: O_6  and  C_7
REMARK    7  A    between atoms: C_12  and  C_13
REMARK    8  A    between atoms: C_13  and  O_14
REMARK    9  A    between atoms: O_14  and  C_15
REMARK                            x       y       z     vdW  Elec       q    Type
REMARK                         _______ _______ _______ _____ _____    ______ ____
ROOT
ATOM      1  C   UNL     1       0.961   9.238  19.742  0.00  0.00    +0.000 A 
ATOM      2  C   UNL     1       1.282   9.706  18.457  0.00  0.00    +0.000 A 
ATOM      3  C   UNL     1       2.148   8.987  17.632  0.00  0.00    +0.000 A 
ATOM      4  C   UNL     1       2.678   7.774  18.062  0.00  0.00    +0.000 A 
ATOM      5  C   UNL     1       2.361   7.272  19.330  0.00  0.00    +0.000 A 
ATOM      6  C   UNL     1       1.527   8.025  20.173  0.00  0.00    +0.000 A 
ENDROOT
BRANCH   1   7
ATOM      7  C   UNL     1      -0.083   9.933  20.612  0.00  0.00    +0.000 C 
BRANCH   7   8
ATOM      8  C   UNL     1       0.540  10.999  21.548  0.00  0.00    +0.000 C 
ATOM      9  O   UNL     1       1.407  11.806  21.227  0.00  0.00    +0.000 OA
BRANCH   8  11
ATOM     10  C   UNL     1      -0.355   9.598  23.195  0.00  0.00    +0.000 C 
ATOM     11  O   UNL     1       0.007  10.923  22.802  0.00  0.00    +0.000 OA
ENDBRANCH   8  11
ENDBRANCH   7   8
BRANCH   7  12
ATOM     12  O   UNL     1      -1.063  10.392  19.679  0.00  0.00    +0.000 OA
ATOM     13  C   UNL     1      -1.562  11.694  19.940  0.00  0.00    +0.000 C 
ENDBRANCH   7  12
ENDBRANCH   1   7
BRANCH   5  14
ATOM     14  C   UNL     1       2.885   5.928  19.776  0.00  0.00    +0.000 C 
BRANCH  14  15
ATOM     15  O   UNL     1       3.125   5.121  18.624  0.00  0.00    +0.000 OA
BRANCH  15  16
ATOM     16  C   UNL     1       4.434   4.998  18.239  0.00  0.00    +0.000 A 
ATOM     17  C   UNL     1       4.625   4.515  16.943  0.00  0.00    +0.000 A 
ATOM     18  C   UNL     1       5.914   4.365  16.434  0.00  0.00    +0.000 A 
ATOM     19 CL   UNL     1       6.136   3.746  14.844  0.00  0.00    +0.000 Cl
ATOM     20  C   UNL     1       7.023   4.712  17.200  0.00  0.00    +0.000 A 
ATOM     21  C   UNL     1       6.827   5.210  18.484  0.00  0.00    +0.000 A 
ATOM     22 CL   UNL     1       8.190   5.662  19.436  0.00  0.00    +0.000 Cl
ATOM     23  C   UNL     1       5.541   5.357  19.010  0.00  0.00    +0.000 A 
ENDBRANCH  15  16
ENDBRANCH  14  15
ENDBRANCH   5  14
TORSDOF 7
ENDMDL
MODEL 5
REMARK VINA RESULT:      -6.9      0.830      2.638
REMARK  Name = 
REMARK  9 active torsions:
REMARK  status: ('A' for Active; 'I' for Inactive)
REMARK    1  A    between atoms: C_1  and  O_2
REMARK    2  A    between atoms: O_2  and  C_3
REMARK    3  A    between atoms: C_3  and  C_5
REMARK    4  A    between atoms: C_5  and  O_6
REMARK    5  A    between atoms: C_5  and  C_8
REMARK    6  A    between atoms: O_6  and  C_7
REMARK    7  A    between atoms: C_12  and  C_13
REMARK    8  A    between atoms: C_13  and  O_14
REMARK    9  A    between atoms: O_14  and  C_15
REMARK                            x       y       z     vdW  Elec       q    Type
REMARK                         _______ _______ _______ _____ _____    ______ ____
ROOT
ATOM      1  C   UNL     1       4.771   4.726  17.891  0.00  0.00    +0.000 A 
ATOM      2  C   UNL     1       4.093   3.753  17.139  0.00  0.00    +0.000 A 
ATOM      3  C   UNL     1       2.723   3.551  17.302  0.00  0.00    +0.000 A 
ATOM      4  C   UNL     1       2.001   4.342  18.193  0.00  0.00    +0.000 A 
ATOM      5  C   UNL     1       2.645   5.334  18.941  0.00  0.00    +0.000 A 
ATOM      6  C   UNL     1       4.033   5.497  18.806  0.00  0.00    +0.000 A 
ENDROOT
BRANCH   1   7
ATOM      7  C   UNL     1       6.240   5.058  17.639  0.00  0.00    +0.000 C 
BRANCH   7   8
ATOM      8  C   UNL     1       6.448   5.876  16.340  0.00  0.00    +0.000 C 
ATOM      9  O   UNL     1       5.836   6.897  16.038  0.00  0.00    +0.000 OA
BRANCH   8  11
ATOM     10  C   UNL     1       6.879   4.639  14.402  0.00  0.00    +0.000 C 
ATOM     11  O   UNL     1       7.404   5.308  15.549  0.00  0.00    +0.000 OA
ENDBRANCH   8  11
ENDBRANCH   7   8
BRANCH   7  12
ATOM     12  O   UNL     1       6.672   5.667  18.857  0.00  0.00    +0.000 OA
ATOM     13  C   UNL     1       8.075   5.649  19.061  0.00  0.00    +0.000 C 
ENDBRANCH   7  12
ENDBRANCH   1   7
BRANCH   5  14
ATOM     14  C   UNL     1       1.856   6.234  19.862  0.00  0.00    +0.000 C 
BRANCH  14  15
ATOM     15  O   UNL     1       2.228   7.589  19.613  0.00  0.00    +0.000 OA
BRANCH  15  16
ATOM     16  C   UNL     1       1.398   8.546  20.134  0.00  0.00    +0.000 A 
ATOM     17  C   UNL     1       0.909   9.471  19.211  0.00  0.00    +0.000 A 
ATOM     18  C   UNL     1       0.041  10.481  19.622  0.00  0.00    +0.000 A 
ATOM     19 CL   UNL     1      -0.534  11.630  18.477  0.00  0.00    +0.000 Cl
ATOM     20  C   UNL     1      -0.365  10.568  20.950  0.00  0.00    +0.000 A 
ATOM     21  C   UNL     1       0.110   9.633  21.864  0.00  0.00    +0.000 A 
ATOM     22 CL   UNL     1      -0.400   9.718  23.507  0.00  0.00    +0.000 Cl
ATOM     23  C   UNL     1       0.988   8.622  21.467  0.00  0.00    +0.000 A 
ENDBRANCH  15  16
ENDBRANCH  14  15
ENDBRANCH   5  14
TORSDOF 7
ENDMDL
MODEL 6
REMARK VINA RESULT:      -6.9      1.191      1.590
REMARK  Name = 
REMARK  9 active torsions:
REMARK  status: ('A' for Active; 'I' for Inactive)
REMARK    1  A    between atoms: C_1  and  O_2
REMARK    2  A    between atoms: O_2  and  C_3
REMARK    3  A    between atoms: C_3  and  C_5
REMARK    4  A    between atoms: C_5  and  O_6
REMARK    5  A    between atoms: C_5  and  C_8
REMARK    6  A    between atoms: O_6  and  C_7
REMARK    7  A    between atoms: C_12  and  C_13
REMARK    8  A    between atoms: C_13  and  O_14
REMARK    9  A    between atoms: O_14  and  C_15
REMARK                            x       y       z     vdW  Elec       q    Type
REMARK                         _______ _______ _______ _____ _____    ______ ____
ROOT
ATOM      1  C   UNL     1       4.490   5.851  16.977  0.00  0.00    +0.000 A 
ATOM      2  C   UNL     1       3.746   4.828  17.587  0.00  0.00    +0.000 A 
ATOM      3  C   UNL     1       2.624   5.125  18.360  0.00  0.00    +0.000 A 
ATOM      4  C   UNL     1       2.206   6.445  18.508  0.00  0.00    +0.000 A 
ATOM      5  C   UNL     1       2.915   7.485  17.895  0.00  0.00    +0.000 A 
ATOM      6  C   UNL     1       4.071   7.181  17.159  0.00  0.00    +0.000 A 
ENDROOT
BRANCH   1   7
ATOM      7  C   UNL     1       5.641   5.548  16.021  0.00  0.00    +0.000 C 
BRANCH   7   8
ATOM      8  C   UNL     1       7.019   5.568  16.727  0.00  0.00    +0.000 C 
ATOM      9  O   UNL     1       7.482   4.658  17.408  0.00  0.00    +0.000 OA
BRANCH   8  11
ATOM     10  C   UNL     1       7.738   7.590  17.659  0.00  0.00    +0.000 C 
ATOM     11  O   UNL     1       7.666   6.750  16.507  0.00  0.00    +0.000 OA
ENDBRANCH   8  11
ENDBRANCH   7   8
BRANCH   7  12
ATOM     12  O   UNL     1       5.258   4.321  15.395  0.00  0.00    +0.000 OA
ATOM     13  C   UNL     1       6.072   3.939  14.298  0.00  0.00    +0.000 C 
ENDBRANCH   7  12
ENDBRANCH   1   7
BRANCH   5  14
ATOM     14  C   UNL     1       2.430   8.911  18.002  0.00  0.00    +0.000 C 
BRANCH  14  15
ATOM     15  O   UNL     1       1.058   8.904  18.396  0.00  0.00    +0.000 OA
BRANCH  15  16
ATOM     16  C   UNL     1       0.700   9.827  19.343  0.00  0.00    +0.000 A 
ATOM     17  C   UNL     1       0.523   9.314  20.629  0.00  0.00    +0.000 A 
ATOM     18  C   UNL     1       0.175  10.162  21.680  0.00  0.00    +0.000 A 
ATOM     19 CL   UNL     1      -0.064   9.513  23.256  0.00  0.00    +0.000 Cl
ATOM     20  C   UNL     1       0.020  11.528  21.466  0.00  0.00    +0.000 A 
ATOM     21  C   UNL     1       0.214  12.037  20.185  0.00  0.00    +0.000 A 
ATOM     22 CL   UNL     1       0.045  13.729  19.911  0.00  0.00    +0.000 Cl
ATOM     23  C   UNL     1       0.554  11.197  19.122  0.00  0.00    +0.000 A 
ENDBRANCH  15  16
ENDBRANCH  14  15
ENDBRANCH   5  14
TORSDOF 7
ENDMDL
MODEL 7
REMARK VINA RESULT:      -6.9      1.014      1.970
REMARK  Name = 
REMARK  9 active torsions:
REMARK  status: ('A' for Active; 'I' for Inactive)
REMARK    1  A    between atoms: C_1  and  O_2
REMARK    2  A    between atoms: O_2  and  C_3
REMARK    3  A    between atoms: C_3  and  C_5
REMARK    4  A    between atoms: C_5  and  O_6
REMARK    5  A    between atoms: C_5  and  C_8
REMARK    6  A    between atoms: O_6  and  C_7
REMARK    7  A    between atoms: C_12  and  C_13
REMARK    8  A    between atoms: C_13  and  O_14
REMARK    9  A    between atoms: O_14  and  C_15
REMARK                            x       y       z     vdW  Elec       q    Type
REMARK                         _______ _______ _______ _____ _____    ______ ____
ROOT
ATOM      1  C   UNL     1       4.782   4.482  18.332  0.00  0.00    +0.000 A 
ATOM      2  C   UNL     1       4.022   3.615  17.530  0.00  0.00    +0.000 A 
ATOM      3  C   UNL     1       2.628   3.644  17.569  0.00  0.00    +0.000 A 
ATOM      4  C   UNL     1       1.970   4.563  18.382  0.00  0.00    +0.000 A 
ATOM      5  C   UNL     1       2.699   5.454  19.178  0.00  0.00    +0.000 A 
ATOM      6  C   UNL     1       4.102   5.385  19.170  0.00  0.00    +0.000 A 
ENDROOT
BRANCH   1   7
ATOM      7  C   UNL     1       6.301   4.564  18.213  0.00  0.00    +0.000 C 
BRANCH   7   8
ATOM      8  C   UNL     1       6.758   5.158  16.858  0.00  0.00    +0.000 C 
ATOM      9  O   UNL     1       7.559   4.637  16.087  0.00  0.00    +0.000 OA
BRANCH   8  11
ATOM     10  C   UNL     1       5.314   6.369  15.472  0.00  0.00    +0.000 C 
ATOM     11  O   UNL     1       6.160   6.362  16.623  0.00  0.00    +0.000 OA
ENDBRANCH   8  11
ENDBRANCH   7   8
BRANCH   7  12
ATOM     12  O   UNL     1       6.704   5.267  19.390  0.00  0.00    +0.000 OA
ATOM     13  C   UNL     1       8.052   5.707  19.383  0.00  0.00    +0.000 C 
ENDBRANCH   7  12
ENDBRANCH   1   7
BRANCH   5  14
ATOM     14  C   UNL     1       1.991   6.492  20.015  0.00  0.00    +0.000 C 
BRANCH  14  15
ATOM     15  O   UNL     1       2.112   7.762  19.374  0.00  0.00    +0.000 OA
BRANCH  15  16
ATOM     16  C   UNL     1       1.314   8.761  19.866  0.00  0.00    +0.000 A 
ATOM     17  C   UNL     1       1.037   8.678  21.231  0.00  0.00    +0.000 A 
ATOM     18  C   UNL     1       0.250   9.649  21.847  0.00  0.00    +0.000 A 
ATOM     19 CL   UNL     1      -0.103   9.522  23.527  0.00  0.00    +0.000 Cl
ATOM     20  C   UNL     1      -0.253  10.721  21.117  0.00  0.00    +0.000 A 
ATOM     21  C   UNL     1       0.040  10.810  19.759  0.00  0.00    +0.000 A 
ATOM     22 CL   UNL     1      -0.561  12.143  18.848  0.00  0.00    +0.000 Cl
ATOM     23  C   UNL     1       0.820   9.838  19.128  0.00  0.00    +0.000 A 
ENDBRANCH  15  16
ENDBRANCH  14  15
ENDBRANCH   5  14
TORSDOF 7
ENDMDL
MODEL 8
REMARK VINA RESULT:      -6.8      0.587      2.092
REMARK  Name = 
REMARK  9 active torsions:
REMARK  status: ('A' for Active; 'I' for Inactive)
REMARK    1  A    between atoms: C_1  and  O_2
REMARK    2  A    between atoms: O_2  and  C_3
REMARK    3  A    between atoms: C_3  and  C_5
REMARK    4  A    between atoms: C_5  and  O_6
REMARK    5  A    between atoms: C_5  and  C_8
REMARK    6  A    between atoms: O_6  and  C_7
REMARK    7  A    between atoms: C_12  and  C_13
REMARK    8  A    between atoms: C_13  and  O_14
REMARK    9  A    between atoms: O_14  and  C_15
REMARK                            x       y       z     vdW  Elec       q    Type
REMARK                         _______ _______ _______ _____ _____    ______ ____
ROOT
ATOM      1  C   UNL     1       4.334   5.141  17.310  0.00  0.00    +0.000 A 
ATOM      2  C   UNL     1       3.646   3.952  17.017  0.00  0.00    +0.000 A 
ATOM      3  C   UNL     1       2.469   3.624  17.690  0.00  0.00    +0.000 A 
ATOM      4  C   UNL     1       1.941   4.494  18.640  0.00  0.00    +0.000 A 
ATOM      5  C   UNL     1       2.593   5.696  18.939  0.00  0.00    +0.000 A 
ATOM      6  C   UNL     1       3.802   5.996  18.292  0.00  0.00    +0.000 A 
ENDROOT
BRANCH   1   7
ATOM      7  C   UNL     1       5.548   5.588  16.499  0.00  0.00    +0.000 C 
BRANCH   7   8
ATOM      8  C   UNL     1       6.881   5.355  17.253  0.00  0.00    +0.000 C 
ATOM      9  O   UNL     1       7.124   4.403  17.989  0.00  0.00    +0.000 OA
BRANCH   8  11
ATOM     10  C   UNL     1       7.371   7.625  17.541  0.00  0.00    +0.000 C 
ATOM     11  O   UNL     1       7.768   6.362  17.005  0.00  0.00    +0.000 OA
ENDBRANCH   8  11
ENDBRANCH   7   8
BRANCH   7  12
ATOM     12  O   UNL     1       5.394   4.920  15.246  0.00  0.00    +0.000 OA
ATOM     13  C   UNL     1       6.593   4.380  14.713  0.00  0.00    +0.000 C 
ENDBRANCH   7  12
ENDBRANCH   1   7
BRANCH   5  14
ATOM     14  C   UNL     1       1.991   6.671  19.924  0.00  0.00    +0.000 C 
BRANCH  14  15
ATOM     15  O   UNL     1       2.069   7.987  19.376  0.00  0.00    +0.000 OA
BRANCH  15  16
ATOM     16  C   UNL     1       1.238   8.920  19.937  0.00  0.00    +0.000 A 
ATOM     17  C   UNL     1       0.748   9.882  19.052  0.00  0.00    +0.000 A 
ATOM     18  C   UNL     1      -0.121  10.873  19.504  0.00  0.00    +0.000 A 
ATOM     19 CL   UNL     1      -0.699  12.067  18.406  0.00  0.00    +0.000 Cl
ATOM     20  C   UNL     1      -0.526  10.906  20.834  0.00  0.00    +0.000 A 
ATOM     21  C   UNL     1      -0.049   9.936  21.710  0.00  0.00    +0.000 A 
ATOM     22 CL   UNL     1      -0.559   9.954  23.355  0.00  0.00    +0.000 Cl
ATOM     23  C   UNL     1       0.829   8.942  21.271  0.00  0.00    +0.000 A 
ENDBRANCH  15  16
ENDBRANCH  14  15
ENDBRANCH   5  14
TORSDOF 7
ENDMDL
MODEL 9
REMARK VINA RESULT:      -6.8      1.903      2.487
REMARK  Name = 
REMARK  9 active torsions:
REMARK  status: ('A' for Active; 'I' for Inactive)
REMARK    1  A    between atoms: C_1  and  O_2
REMARK    2  A    between atoms: O_2  and  C_3
REMARK    3  A    between atoms: C_3  and  C_5
REMARK    4  A    between atoms: C_5  and  O_6
REMARK    5  A    between atoms: C_5  and  C_8
REMARK    6  A    between atoms: O_6  and  C_7
REMARK    7  A    between atoms: C_12  and  C_13
REMARK    8  A    between atoms: C_13  and  O_14
REMARK    9  A    between atoms: O_14  and  C_15
REMARK                            x       y       z     vdW  Elec       q    Type
REMARK                         _______ _______ _______ _____ _____    ______ ____
ROOT
ATOM      1  C   UNL     1       4.608   5.898  16.945  0.00  0.00    +0.000 A 
ATOM      2  C   UNL     1       3.817   4.866  17.476  0.00  0.00    +0.000 A 
ATOM      3  C   UNL     1       2.658   5.155  18.197  0.00  0.00    +0.000 A 
ATOM      4  C   UNL     1       2.250   6.475  18.368  0.00  0.00    +0.000 A 
ATOM      5  C   UNL     1       3.007   7.524  17.832  0.00  0.00    +0.000 A 
ATOM      6  C   UNL     1       4.198   7.228  17.150  0.00  0.00    +0.000 A 
ENDROOT
BRANCH   1   7
ATOM      7  C   UNL     1       5.806   5.610  16.043  0.00  0.00    +0.000 C 
BRANCH   7   8
ATOM      8  C   UNL     1       7.157   5.780  16.781  0.00  0.00    +0.000 C 
ATOM      9  O   UNL     1       7.690   4.932  17.491  0.00  0.00    +0.000 OA
BRANCH   8  11
ATOM     10  C   UNL     1       7.816   7.814  17.730  0.00  0.00    +0.000 C 
ATOM     11  O   UNL     1       7.690   7.016  16.553  0.00  0.00    +0.000 OA
ENDBRANCH   8  11
ENDBRANCH   7   8
BRANCH   7  12
ATOM     12  O   UNL     1       5.529   4.318  15.500  0.00  0.00    +0.000 OA
ATOM     13  C   UNL     1       6.242   4.010  14.314  0.00  0.00    +0.000 C 
ENDBRANCH   7  12
ENDBRANCH   1   7
BRANCH   5  14
ATOM     14  C   UNL     1       2.536   8.953  17.962  0.00  0.00    +0.000 C 
BRANCH  14  15
ATOM     15  O   UNL     1       1.319   8.972  18.707  0.00  0.00    +0.000 OA
BRANCH  15  16
ATOM     16  C   UNL     1       0.632  10.157  18.706  0.00  0.00    +0.000 A 
ATOM     17  C   UNL     1       1.430  11.302  18.650  0.00  0.00    +0.000 A 
ATOM     18  C   UNL     1       0.842  12.565  18.625  0.00  0.00    +0.000 A 
ATOM     19 CL   UNL     1       1.837  13.969  18.580  0.00  0.00    +0.000 Cl
ATOM     20  C   UNL     1      -0.543  12.703  18.635  0.00  0.00    +0.000 A 
ATOM     21  C   UNL     1      -1.335  11.559  18.674  0.00  0.00    +0.000 A 
ATOM     22 CL   UNL     1      -3.050  11.714  18.667  0.00  0.00    +0.000 Cl
ATOM     23  C   UNL     1      -0.757  10.287  18.708  0.00  0.00    +0.000 A 
ENDBRANCH  15  16
ENDBRANCH  14  15
ENDBRANCH   5  14
TORSDOF 7
ENDMDL
