MODEL 1
REMARK VINA RESULT:      -7.4      0.000      0.000
REMARK  Name = 
REMARK  6 active torsions:
REMARK  status: ('A' for Active; 'I' for Inactive)
REMARK    1  A    between atoms: C_1  and  C_2
REMARK    2  A    between atoms: C_8  and  C_9
REMARK    3  A    between atoms: C_11  and  S_12
REMARK    4  A    between atoms: S_12  and  C_13
REMARK    5  A    between atoms: C_13  and  C_14
REMARK    6  A    between atoms: C_19  and  C_20
REMARK                            x       y       z     vdW  Elec       q    Type
REMARK                         _______ _______ _______ _____ _____    ______ ____
ROOT
ATOM      1  C   UNL     1       6.933   7.001  17.735  0.00  0.00    +0.000 C 
ATOM      2  C   UNL     1       6.426   5.867  16.884  0.00  0.00    +0.000 A 
ATOM      3  C   UNL     1       7.152   5.486  15.743  0.00  0.00    +0.000 A 
ATOM      4  C   UNL     1       6.740   4.403  14.976  0.00  0.00    +0.000 A 
ATOM      5  C   UNL     1       5.609   3.687  15.352  0.00  0.00    +0.000 A 
ATOM      6  C   UNL     1       4.861   4.079  16.475  0.00  0.00    +0.000 A 
ATOM      7  C   UNL     1       3.707   3.384  16.859  0.00  0.00    +0.000 A 
ATOM      8  C   UNL     1       2.941   3.825  17.944  0.00  0.00    +0.000 A 
ATOM      9  C   UNL     1       3.363   4.959  18.626  0.00  0.00    +0.000 A 
ATOM     10  N   UNL     1       4.514   5.605  18.294  0.00  0.00    +0.000 NA
ATOM     11  C   UNL     1       5.251   5.190  17.243  0.00  0.00    +0.000 A 
ENDROOT
BRANCH   8  12
ATOM     12  C   UNL     1       1.761   3.097  18.289  0.00  0.00    +0.000 C 
ATOM     13  N   UNL     1       0.779   2.510  18.494  0.00  0.00    +0.000 NA
ENDBRANCH   8  12
BRANCH   9  14
ATOM     14  S   UNL     1       2.418   5.695  19.968  0.00  0.00    +0.000 S 
BRANCH  14  15
ATOM     15  C   UNL     1       2.308   7.397  19.344  0.00  0.00    +0.000 C 
BRANCH  15  16
ATOM     16  C   UNL     1       1.525   8.373  20.210  0.00  0.00    +0.000 C 
ATOM     17  O   UNL     1       1.139   8.108  21.350  0.00  0.00    +0.000 OA
ATOM     18  N   UNL     1       1.255   9.617  19.609  0.00  0.00    +0.000 N 
ATOM     19  C   UNL     1       1.545   9.937  18.210  0.00  0.00    +0.000 C 
ATOM     20  C   UNL     1       2.165  11.322  18.090  0.00  0.00    +0.000 C 
ATOM     21  C   UNL     1       1.256  12.384  18.716  0.00  0.00    +0.000 C 
ATOM     22  C   UNL     1       1.916  13.760  18.634  0.00  0.00    +0.000 C 
ATOM     23  C   UNL     1       0.928  12.010  20.170  0.00  0.00    +0.000 C 
ATOM     24  C   UNL     1       0.393  10.580  20.294  0.00  0.00    +0.000 C 
ENDBRANCH  15  16
ENDBRANCH  14  15
ENDBRANCH   9  14
TORSDOF 4
ENDMDL
MODEL 2
REMARK VINA RESULT:      -7.2      3.040      4.821
REMARK  Name = 
REMARK  6 active torsions:
REMARK  status: ('A' for Active; 'I' for Inactive)
REMARK    1  A    between atoms: C_1  and  C_2
REMARK    2  A    between atoms: C_8  and  C_9
REMARK    3  A    between atoms: C_11  and  S_12
REMARK    4  A    between atoms: S_12  and  C_13
REMARK    5  A    between atoms: C_13  and  C_14
REMARK    6  A    between atoms: C_19  and  C_20
REMARK                            x       y       z     vdW  Elec       q    Type
REMARK                         _______ _______ _______ _____ _____    ______ ____
ROOT
ATOM      1  C   UNL     1       1.342   3.025  21.586  0.00  0.00    +0.000 C 
ATOM      2  C   UNL     1       1.798   3.248  20.168  0.00  0.00    +0.000 A 
ATOM      3  C   UNL     1       2.069   2.138  19.351  0.00  0.00    +0.000 A 
ATOM      4  C   UNL     1       2.430   2.315  18.021  0.00  0.00    +0.000 A 
ATOM      5  C   UNL     1       2.510   3.600  17.496  0.00  0.00    +0.000 A 
ATOM      6  C   UNL     1       2.268   4.717  18.315  0.00  0.00    +0.000 A 
ATOM      7  C   UNL     1       2.363   6.021  17.812  0.00  0.00    +0.000 A 
ATOM      8  C   UNL     1       2.179   7.122  18.656  0.00  0.00    +0.000 A 
ATOM      9  C   UNL     1       1.893   6.881  19.994  0.00  0.00    +0.000 A 
ATOM     10  N   UNL     1       1.743   5.618  20.476  0.00  0.00    +0.000 NA
ATOM     11  C   UNL     1       1.929   4.553  19.669  0.00  0.00    +0.000 A 
ENDROOT
BRANCH   8  12
ATOM     12  C   UNL     1       2.303   8.434  18.105  0.00  0.00    +0.000 C 
ATOM     13  N   UNL     1       2.463   9.474  17.612  0.00  0.00    +0.000 NA
ENDBRANCH   8  12
BRANCH   9  14
ATOM     14  S   UNL     1       1.739   8.200  21.208  0.00  0.00    +0.000 S 
BRANCH  14  15
ATOM     15  C   UNL     1      -0.040   8.527  21.054  0.00  0.00    +0.000 C 
BRANCH  15  16
ATOM     16  C   UNL     1      -0.421   9.823  20.351  0.00  0.00    +0.000 C 
ATOM     17  O   UNL     1      -0.418   9.953  19.126  0.00  0.00    +0.000 OA
ATOM     18  N   UNL     1      -0.769  10.883  21.207  0.00  0.00    +0.000 N 
ATOM     19  C   UNL     1      -0.640  10.843  22.665  0.00  0.00    +0.000 C 
ATOM     20  C   UNL     1      -1.875  11.432  23.333  0.00  0.00    +0.000 C 
ATOM     21  C   UNL     1      -2.130  12.862  22.848  0.00  0.00    +0.000 C 
ATOM     22  C   UNL     1      -3.401  13.420  23.487  0.00  0.00    +0.000 C 
ATOM     23  C   UNL     1      -2.220  12.892  21.313  0.00  0.00    +0.000 C 
ATOM     24  C   UNL     1      -1.019  12.213  20.649  0.00  0.00    +0.000 C 
ENDBRANCH  15  16
ENDBRANCH  14  15
ENDBRANCH   9  14
TORSDOF 4
ENDMDL
MODEL 3
REMARK VINA RESULT:      -7.1      2.917      4.198
REMARK  Name = 
REMARK  6 active torsions:
REMARK  status: ('A' for Active; 'I' for Inactive)
REMARK    1  A    between atoms: C_1  and  C_2
REMARK    2  A    between atoms: C_8  and  C_9
REMARK    3  A    between atoms: C_11  and  S_12
REMARK    4  A    between atoms: S_12  and  C_13
REMARK    5  A    between atoms: C_13  and  C_14
REMARK    6  A    between atoms: C_19  and  C_20
REMARK                            x       y       z     vdW  Elec       q    Type
REMARK                         _______ _______ _______ _____ _____    ______ ____
ROOT
ATOM      1  C   UNL     1       1.548   2.926  21.631  0.00  0.00    +0.000 C 
ATOM      2  C   UNL     1       1.902   3.165  20.187  0.00  0.00    +0.000 A 
ATOM      3  C   UNL     1       2.132   2.065  19.344  0.00  0.00    +0.000 A 
ATOM      4  C   UNL     1       2.399   2.256  17.994  0.00  0.00    +0.000 A 
ATOM      5  C   UNL     1       2.424   3.546  17.475  0.00  0.00    +0.000 A 
ATOM      6  C   UNL     1       2.223   4.653  18.316  0.00  0.00    +0.000 A 
ATOM      7  C   UNL     1       2.265   5.961  17.819  0.00  0.00    +0.000 A 
ATOM      8  C   UNL     1       2.124   7.054  18.681  0.00  0.00    +0.000 A 
ATOM      9  C   UNL     1       1.934   6.800  20.034  0.00  0.00    +0.000 A 
ATOM     10  N   UNL     1       1.835   5.532  20.515  0.00  0.00    +0.000 NA
ATOM     11  C   UNL     1       1.980   4.475  19.690  0.00  0.00    +0.000 A 
ENDROOT
BRANCH   8  12
ATOM     12  C   UNL     1       2.190   8.372  18.133  0.00  0.00    +0.000 C 
ATOM     13  N   UNL     1       2.256   9.471  17.761  0.00  0.00    +0.000 NA
ENDBRANCH   8  12
BRANCH   9  14
ATOM     14  S   UNL     1       1.845   8.109  21.266  0.00  0.00    +0.000 S 
BRANCH  14  15
ATOM     15  C   UNL     1       0.075   8.496  21.147  0.00  0.00    +0.000 C 
BRANCH  15  16
ATOM     16  C   UNL     1      -0.380   9.757  21.869  0.00  0.00    +0.000 C 
ATOM     17  O   UNL     1      -0.448   9.846  23.096  0.00  0.00    +0.000 OA
ATOM     18  N   UNL     1      -0.736  10.827  21.029  0.00  0.00    +0.000 N 
ATOM     19  C   UNL     1      -0.830  10.736  19.571  0.00  0.00    +0.000 C 
ATOM     20  C   UNL     1      -0.191  11.950  18.911  0.00  0.00    +0.000 C 
ATOM     21  C   UNL     1      -0.828  13.247  19.418  0.00  0.00    +0.000 C 
ATOM     22  C   UNL     1      -0.141  14.457  18.786  0.00  0.00    +0.000 C 
ATOM     23  C   UNL     1      -0.759  13.306  20.953  0.00  0.00    +0.000 C 
ATOM     24  C   UNL     1      -1.318  12.039  21.608  0.00  0.00    +0.000 C 
ENDBRANCH  15  16
ENDBRANCH  14  15
ENDBRANCH   9  14
TORSDOF 4
ENDMDL
MODEL 4
REMARK VINA RESULT:      -7.1      3.367      8.000
REMARK  Name = 
REMARK  6 active torsions:
REMARK  status: ('A' for Active; 'I' for Inactive)
REMARK    1  A    between atoms: C_1  and  C_2
REMARK    2  A    between atoms: C_8  and  C_9
REMARK    3  A    between atoms: C_11  and  S_12
REMARK    4  A    between atoms: S_12  and  C_13
REMARK    5  A    between atoms: C_13  and  C_14
REMARK    6  A    between atoms: C_19  and  C_20
REMARK                            x       y       z     vdW  Elec       q    Type
REMARK                         _______ _______ _______ _____ _____    ______ ____
ROOT
ATOM      1  C   UNL     1       4.733   2.313  19.914  0.00  0.00    +0.000 C 
ATOM      2  C   UNL     1       3.405   3.005  20.084  0.00  0.00    +0.000 A 
ATOM      3  C   UNL     1       2.385   2.365  20.807  0.00  0.00    +0.000 A 
ATOM      4  C   UNL     1       1.173   3.006  21.031  0.00  0.00    +0.000 A 
ATOM      5  C   UNL     1       0.978   4.295  20.548  0.00  0.00    +0.000 A 
ATOM      6  C   UNL     1       1.984   4.931  19.799  0.00  0.00    +0.000 A 
ATOM      7  C   UNL     1       1.801   6.221  19.285  0.00  0.00    +0.000 A 
ATOM      8  C   UNL     1       2.788   6.815  18.490  0.00  0.00    +0.000 A 
ATOM      9  C   UNL     1       3.947   6.093  18.238  0.00  0.00    +0.000 A 
ATOM     10  N   UNL     1       4.156   4.864  18.782  0.00  0.00    +0.000 NA
ATOM     11  C   UNL     1       3.204   4.282  19.541  0.00  0.00    +0.000 A 
ENDROOT
BRANCH   8  12
ATOM     12  C   UNL     1       2.552   8.125  17.971  0.00  0.00    +0.000 C 
ATOM     13  N   UNL     1       2.365   9.160  17.476  0.00  0.00    +0.000 NA
ENDBRANCH   8  12
BRANCH   9  14
ATOM     14  S   UNL     1       5.248   6.692  17.148  0.00  0.00    +0.000 S 
BRANCH  14  15
ATOM     15  C   UNL     1       5.422   5.235  16.079  0.00  0.00    +0.000 C 
BRANCH  15  16
ATOM     16  C   UNL     1       6.609   5.246  15.127  0.00  0.00    +0.000 C 
ATOM     17  O   UNL     1       7.699   5.746  15.410  0.00  0.00    +0.000 OA
ATOM     18  N   UNL     1       6.373   4.648  13.875  0.00  0.00    +0.000 N 
ATOM     19  C   UNL     1       5.064   4.180  13.418  0.00  0.00    +0.000 C 
ATOM     20  C   UNL     1       5.181   2.818  12.746  0.00  0.00    +0.000 C 
ATOM     21  C   UNL     1       6.178   2.865  11.586  0.00  0.00    +0.000 C 
ATOM     22  C   UNL     1       6.324   1.481  10.955  0.00  0.00    +0.000 C 
ATOM     23  C   UNL     1       7.535   3.400  12.074  0.00  0.00    +0.000 C 
ATOM     24  C   UNL     1       7.398   4.723  12.832  0.00  0.00    +0.000 C 
ENDBRANCH  15  16
ENDBRANCH  14  15
ENDBRANCH   9  14
TORSDOF 4
ENDMDL
MODEL 5
REMARK VINA RESULT:      -7.0      2.257      4.461
REMARK  Name = 
REMARK  6 active torsions:
REMARK  status: ('A' for Active; 'I' for Inactive)
REMARK    1  A    between atoms: C_1  and  C_2
REMARK    2  A    between atoms: C_8  and  C_9
REMARK    3  A    between atoms: C_11  and  S_12
REMARK    4  A    between atoms: S_12  and  C_13
REMARK    5  A    between atoms: C_13  and  C_14
REMARK    6  A    between atoms: C_19  and  C_20
REMARK                            x       y       z     vdW  Elec       q    Type
REMARK                         _______ _______ _______ _____ _____    ______ ____
ROOT
ATOM      1  C   UNL     1       0.879   4.632  20.488  0.00  0.00    +0.000 C 
ATOM      2  C   UNL     1       2.199   3.915  20.395  0.00  0.00    +0.000 A 
ATOM      3  C   UNL     1       2.403   2.750  21.154  0.00  0.00    +0.000 A 
ATOM      4  C   UNL     1       3.589   2.034  21.039  0.00  0.00    +0.000 A 
ATOM      5  C   UNL     1       4.571   2.469  20.157  0.00  0.00    +0.000 A 
ATOM      6  C   UNL     1       4.387   3.649  19.415  0.00  0.00    +0.000 A 
ATOM      7  C   UNL     1       5.371   4.116  18.536  0.00  0.00    +0.000 A 
ATOM      8  C   UNL     1       5.197   5.325  17.852  0.00  0.00    +0.000 A 
ATOM      9  C   UNL     1       4.022   6.033  18.065  0.00  0.00    +0.000 A 
ATOM     10  N   UNL     1       3.036   5.557  18.873  0.00  0.00    +0.000 NA
ATOM     11  C   UNL     1       3.204   4.397  19.543  0.00  0.00    +0.000 A 
ENDROOT
BRANCH   8  12
ATOM     12  C   UNL     1       6.235   5.773  16.979  0.00  0.00    +0.000 C 
ATOM     13  N   UNL     1       7.039   6.104  16.208  0.00  0.00    +0.000 NA
ENDBRANCH   8  12
BRANCH   9  14
ATOM     14  S   UNL     1       3.714   7.649  17.334  0.00  0.00    +0.000 S 
BRANCH  14  15
ATOM     15  C   UNL     1       2.051   7.953  17.996  0.00  0.00    +0.000 C 
BRANCH  15  16
ATOM     16  C   UNL     1       1.708   9.406  18.294  0.00  0.00    +0.000 C 
ATOM     17  O   UNL     1       1.700  10.288  17.434  0.00  0.00    +0.000 OA
ATOM     18  N   UNL     1       1.410   9.683  19.640  0.00  0.00    +0.000 N 
ATOM     19  C   UNL     1       1.556   8.719  20.732  0.00  0.00    +0.000 C 
ATOM     20  C   UNL     1       0.352   8.770  21.663  0.00  0.00    +0.000 C 
ATOM     21  C   UNL     1       0.142  10.185  22.209  0.00  0.00    +0.000 C 
ATOM     22  C   UNL     1      -1.100  10.231  23.099  0.00  0.00    +0.000 C 
ATOM     23  C   UNL     1       0.033  11.189  21.050  0.00  0.00    +0.000 C 
ATOM     24  C   UNL     1       1.201  11.067  20.066  0.00  0.00    +0.000 C 
ENDBRANCH  15  16
ENDBRANCH  14  15
ENDBRANCH   9  14
TORSDOF 4
ENDMDL
MODEL 6
REMARK VINA RESULT:      -7.0      2.066      4.268
REMARK  Name = 
REMARK  6 active torsions:
REMARK  status: ('A' for Active; 'I' for Inactive)
REMARK    1  A    between atoms: C_1  and  C_2
REMARK    2  A    between atoms: C_8  and  C_9
REMARK    3  A    between atoms: C_11  and  S_12
REMARK    4  A    between atoms: S_12  and  C_13
REMARK    5  A    between atoms: C_13  and  C_14
REMARK    6  A    between atoms: C_19  and  C_20
REMARK                            x       y       z     vdW  Elec       q    Type
REMARK                         _______ _______ _______ _____ _____    ______ ____
ROOT
ATOM      1  C   UNL     1       0.723   4.273  20.460  0.00  0.00    +0.000 C 
ATOM      2  C   UNL     1       1.726   3.460  19.685  0.00  0.00    +0.000 A 
ATOM      3  C   UNL     1       1.774   2.068  19.873  0.00  0.00    +0.000 A 
ATOM      4  C   UNL     1       2.646   1.287  19.124  0.00  0.00    +0.000 A 
ATOM      5  C   UNL     1       3.464   1.888  18.175  0.00  0.00    +0.000 A 
ATOM      6  C   UNL     1       3.442   3.283  18.000  0.00  0.00    +0.000 A 
ATOM      7  C   UNL     1       4.272   3.911  17.064  0.00  0.00    +0.000 A 
ATOM      8  C   UNL     1       4.282   5.306  16.947  0.00  0.00    +0.000 A 
ATOM      9  C   UNL     1       3.442   6.038  17.776  0.00  0.00    +0.000 A 
ATOM     10  N   UNL     1       2.591   5.431  18.646  0.00  0.00    +0.000 NA
ATOM     11  C   UNL     1       2.585   4.088  18.771  0.00  0.00    +0.000 A 
ENDROOT
BRANCH   8  12
ATOM     12  C   UNL     1       5.158   5.906  15.991  0.00  0.00    +0.000 C 
ATOM     13  N   UNL     1       5.813   6.385  15.159  0.00  0.00    +0.000 NA
ENDBRANCH   8  12
BRANCH   9  14
ATOM     14  S   UNL     1       3.431   7.837  17.805  0.00  0.00    +0.000 S 
BRANCH  14  15
ATOM     15  C   UNL     1       2.060   8.098  18.966  0.00  0.00    +0.000 C 
BRANCH  15  16
ATOM     16  C   UNL     1       1.228   9.353  18.742  0.00  0.00    +0.000 C 
ATOM     17  O   UNL     1       0.900   9.757  17.625  0.00  0.00    +0.000 OA
ATOM     18  N   UNL     1       0.861  10.041  19.914  0.00  0.00    +0.000 N 
ATOM     19  C   UNL     1       1.348   9.706  21.253  0.00  0.00    +0.000 C 
ATOM     20  C   UNL     1       0.212   9.741  22.266  0.00  0.00    +0.000 C 
ATOM     21  C   UNL     1      -0.481  11.107  22.263  0.00  0.00    +0.000 C 
ATOM     22  C   UNL     1      -1.651  11.110  23.246  0.00  0.00    +0.000 C 
ATOM     23  C   UNL     1      -0.948  11.462  20.841  0.00  0.00    +0.000 C 
ATOM     24  C   UNL     1       0.179  11.332  19.812  0.00  0.00    +0.000 C 
ENDBRANCH  15  16
ENDBRANCH  14  15
ENDBRANCH   9  14
TORSDOF 4
ENDMDL
MODEL 7
REMARK VINA RESULT:      -6.9      1.430      2.253
REMARK  Name = 
REMARK  6 active torsions:
REMARK  status: ('A' for Active; 'I' for Inactive)
REMARK    1  A    between atoms: C_1  and  C_2
REMARK    2  A    between atoms: C_8  and  C_9
REMARK    3  A    between atoms: C_11  and  S_12
REMARK    4  A    between atoms: S_12  and  C_13
REMARK    5  A    between atoms: C_13  and  C_14
REMARK    6  A    between atoms: C_19  and  C_20
REMARK                            x       y       z     vdW  Elec       q    Type
REMARK                         _______ _______ _______ _____ _____    ______ ____
ROOT
ATOM      1  C   UNL     1       6.006   7.221  17.456  0.00  0.00    +0.000 C 
ATOM      2  C   UNL     1       5.698   5.903  16.794  0.00  0.00    +0.000 A 
ATOM      3  C   UNL     1       6.527   5.445  15.757  0.00  0.00    +0.000 A 
ATOM      4  C   UNL     1       6.303   4.204  15.172  0.00  0.00    +0.000 A 
ATOM      5  C   UNL     1       5.258   3.409  15.630  0.00  0.00    +0.000 A 
ATOM      6  C   UNL     1       4.407   3.872  16.648  0.00  0.00    +0.000 A 
ATOM      7  C   UNL     1       3.336   3.096  17.109  0.00  0.00    +0.000 A 
ATOM      8  C   UNL     1       2.462   3.598  18.080  0.00  0.00    +0.000 A 
ATOM      9  C   UNL     1       2.695   4.876  18.572  0.00  0.00    +0.000 A 
ATOM     10  N   UNL     1       3.766   5.612  18.171  0.00  0.00    +0.000 NA
ATOM     11  C   UNL     1       4.606   5.137  17.228  0.00  0.00    +0.000 A 
ENDROOT
BRANCH   8  12
ATOM     12  C   UNL     1       1.373   2.779  18.509  0.00  0.00    +0.000 C 
ATOM     13  N   UNL     1       0.445   2.180  18.869  0.00  0.00    +0.000 NA
ENDBRANCH   8  12
BRANCH   9  14
ATOM     14  S   UNL     1       1.591   5.683  19.742  0.00  0.00    +0.000 S 
BRANCH  14  15
ATOM     15  C   UNL     1       2.438   7.283  19.881  0.00  0.00    +0.000 C 
BRANCH  15  16
ATOM     16  C   UNL     1       1.672   8.490  19.356  0.00  0.00    +0.000 C 
ATOM     17  O   UNL     1       1.481   8.700  18.158  0.00  0.00    +0.000 OA
ATOM     18  N   UNL     1       1.200   9.370  20.347  0.00  0.00    +0.000 N 
ATOM     19  C   UNL     1       1.527   9.263  21.769  0.00  0.00    +0.000 C 
ATOM     20  C   UNL     1       0.288   9.482  22.627  0.00  0.00    +0.000 C 
ATOM     21  C   UNL     1      -0.361  10.834  22.316  0.00  0.00    +0.000 C 
ATOM     22  C   UNL     1      -1.631  11.015  23.146  0.00  0.00    +0.000 C 
ATOM     23  C   UNL     1      -0.659  10.946  20.812  0.00  0.00    +0.000 C 
ATOM     24  C   UNL     1       0.570  10.632  19.953  0.00  0.00    +0.000 C 
ENDBRANCH  15  16
ENDBRANCH  14  15
ENDBRANCH   9  14
TORSDOF 4
ENDMDL
MODEL 8
REMARK VINA RESULT:      -6.8      2.775      7.045
REMARK  Name = 
REMARK  6 active torsions:
REMARK  status: ('A' for Active; 'I' for Inactive)
REMARK    1  A    between atoms: C_1  and  C_2
REMARK    2  A    between atoms: C_8  and  C_9
REMARK    3  A    between atoms: C_11  and  S_12
REMARK    4  A    between atoms: S_12  and  C_13
REMARK    5  A    between atoms: C_13  and  C_14
REMARK    6  A    between atoms: C_19  and  C_20
REMARK                            x       y       z     vdW  Elec       q    Type
REMARK                         _______ _______ _______ _____ _____    ______ ____
ROOT
ATOM      1  C   UNL     1       2.764   8.754  17.459  0.00  0.00    +0.000 C 
ATOM      2  C   UNL     1       2.034   8.533  18.757  0.00  0.00    +0.000 A 
ATOM      3  C   UNL     1       1.235   9.564  19.280  0.00  0.00    +0.000 A 
ATOM      4  C   UNL     1       0.502   9.365  20.443  0.00  0.00    +0.000 A 
ATOM      5  C   UNL     1       0.551   8.132  21.083  0.00  0.00    +0.000 A 
ATOM      6  C   UNL     1       1.370   7.105  20.583  0.00  0.00    +0.000 A 
ATOM      7  C   UNL     1       1.451   5.863  21.224  0.00  0.00    +0.000 A 
ATOM      8  C   UNL     1       2.318   4.873  20.747  0.00  0.00    +0.000 A 
ATOM      9  C   UNL     1       3.082   5.158  19.622  0.00  0.00    +0.000 A 
ATOM     10  N   UNL     1       2.966   6.342  18.962  0.00  0.00    +0.000 NA
ATOM     11  C   UNL     1       2.139   7.303  19.423  0.00  0.00    +0.000 A 
ENDROOT
BRANCH   8  12
ATOM     12  C   UNL     1       2.382   3.626  21.442  0.00  0.00    +0.000 C 
ATOM     13  N   UNL     1       2.512   2.625  22.017  0.00  0.00    +0.000 NA
ENDBRANCH   8  12
BRANCH   9  14
ATOM     14  S   UNL     1       4.312   4.019  18.967  0.00  0.00    +0.000 S 
BRANCH  14  15
ATOM     15  C   UNL     1       5.783   5.074  19.104  0.00  0.00    +0.000 C 
BRANCH  15  16
ATOM     16  C   UNL     1       6.887   4.811  18.090  0.00  0.00    +0.000 C 
ATOM     17  O   UNL     1       8.037   4.501  18.407  0.00  0.00    +0.000 OA
ATOM     18  N   UNL     1       6.505   4.959  16.744  0.00  0.00    +0.000 N 
ATOM     19  C   UNL     1       5.207   5.476  16.306  0.00  0.00    +0.000 C 
ATOM     20  C   UNL     1       4.649   4.638  15.164  0.00  0.00    +0.000 C 
ATOM     21  C   UNL     1       5.636   4.581  13.994  0.00  0.00    +0.000 C 
ATOM     22  C   UNL     1       5.084   3.696  12.878  0.00  0.00    +0.000 C 
ATOM     23  C   UNL     1       7.005   4.077  14.480  0.00  0.00    +0.000 C 
ATOM     24  C   UNL     1       7.517   4.865  15.690  0.00  0.00    +0.000 C 
ENDBRANCH  15  16
ENDBRANCH  14  15
ENDBRANCH   9  14
TORSDOF 4
ENDMDL
MODEL 9
REMARK VINA RESULT:      -6.7      1.284      1.763
REMARK  Name = 
REMARK  6 active torsions:
REMARK  status: ('A' for Active; 'I' for Inactive)
REMARK    1  A    between atoms: C_1  and  C_2
REMARK    2  A    between atoms: C_8  and  C_9
REMARK    3  A    between atoms: C_11  and  S_12
REMARK    4  A    between atoms: S_12  and  C_13
REMARK    5  A    between atoms: C_13  and  C_14
REMARK    6  A    between atoms: C_19  and  C_20
REMARK                            x       y       z     vdW  Elec       q    Type
REMARK                         _______ _______ _______ _____ _____    ______ ____
ROOT
ATOM      1  C   UNL     1       7.169   7.256  17.333  0.00  0.00    +0.000 C 
ATOM      2  C   UNL     1       6.601   6.026  16.675  0.00  0.00    +0.000 A 
ATOM      3  C   UNL     1       7.304   5.426  15.618  0.00  0.00    +0.000 A 
ATOM      4  C   UNL     1       6.835   4.255  15.035  0.00  0.00    +0.000 A 
ATOM      5  C   UNL     1       5.668   3.670  15.515  0.00  0.00    +0.000 A 
ATOM      6  C   UNL     1       4.944   4.279  16.554  0.00  0.00    +0.000 A 
ATOM      7  C   UNL     1       3.756   3.718  17.038  0.00  0.00    +0.000 A 
ATOM      8  C   UNL     1       3.015   4.370  18.030  0.00  0.00    +0.000 A 
ATOM      9  C   UNL     1       3.498   5.577  18.520  0.00  0.00    +0.000 A 
ATOM     10  N   UNL     1       4.680   6.098  18.096  0.00  0.00    +0.000 NA
ATOM     11  C   UNL     1       5.393   5.479  17.132  0.00  0.00    +0.000 A 
ENDROOT
BRANCH   8  12
ATOM     12  C   UNL     1       1.799   3.771  18.482  0.00  0.00    +0.000 C 
ATOM     13  N   UNL     1       0.788   3.278  18.773  0.00  0.00    +0.000 NA
ENDBRANCH   8  12
BRANCH   9  14
ATOM     14  S   UNL     1       2.595   6.571  19.718  0.00  0.00    +0.000 S 
BRANCH  14  15
ATOM     15  C   UNL     1       1.451   7.415  18.588  0.00  0.00    +0.000 C 
BRANCH  15  16
ATOM     16  C   UNL     1       1.853   8.819  18.160  0.00  0.00    +0.000 C 
ATOM     17  O   UNL     1       2.632   9.046  17.232  0.00  0.00    +0.000 OA
ATOM     18  N   UNL     1       1.278   9.858  18.914  0.00  0.00    +0.000 N 
ATOM     19  C   UNL     1       0.475   9.654  20.121  0.00  0.00    +0.000 C 
ATOM     20  C   UNL     1      -0.759  10.547  20.107  0.00  0.00    +0.000 C 
ATOM     21  C   UNL     1      -0.366  12.020  19.955  0.00  0.00    +0.000 C 
ATOM     22  C   UNL     1      -1.616  12.897  19.890  0.00  0.00    +0.000 C 
ATOM     23  C   UNL     1       0.511  12.208  18.706  0.00  0.00    +0.000 C 
ATOM     24  C   UNL     1       1.698  11.241  18.681  0.00  0.00    +0.000 C 
ENDBRANCH  15  16
ENDBRANCH  14  15
ENDBRANCH   9  14
TORSDOF 4
ENDMDL
