MODEL 1
REMARK VINA RESULT:      -8.6      0.000      0.000
REMARK  Name = 
REMARK  5 active torsions:
REMARK  status: ('A' for Active; 'I' for Inactive)
REMARK    1  A    between atoms: C_2  and  C_3
REMARK    2  A    between atoms: C_3  and  N_4
REMARK    3  A    between atoms: N_16  and  C_17
REMARK    4  A    between atoms: C_21  and  S_22
REMARK    5  A    between atoms: S_22  and  N_25
REMARK                            x       y       z     vdW  Elec       q    Type
REMARK                         _______ _______ _______ _____ _____    ______ ____
ROOT
ATOM      1  O   UNL     1       1.032   5.918  20.867  0.00  0.00    +0.000 OA
ATOM      2  C   UNL     1       1.810   6.834  20.608  0.00  0.00    +0.000 C 
ATOM      3  N   UNL     1       2.748   6.840  19.578  0.00  0.00    +0.000 N 
ATOM      4  H   UNL     1       3.113   7.756  19.313  0.00  0.00    +0.000 HD
ENDROOT
BRANCH   3   5
ATOM      5  C   UNL     1       3.065   5.766  18.709  0.00  0.00    +0.000 A 
ATOM      6  C   UNL     1       2.315   4.592  18.640  0.00  0.00    +0.000 A 
ATOM      7  C   UNL     1       2.638   3.583  17.722  0.00  0.00    +0.000 A 
ATOM      8  C   UNL     1       3.729   3.729  16.869  0.00  0.00    +0.000 A 
ATOM      9  C   UNL     1       4.517   4.874  16.965  0.00  0.00    +0.000 A 
ATOM     10  C   UNL     1       4.187   5.894  17.877  0.00  0.00    +0.000 A 
BRANCH   9  11
ATOM     11  S   UNL     1       5.905   5.081  15.856  0.00  0.00    +0.000 S 
ATOM     12  O   UNL     1       6.195   3.779  15.294  0.00  0.00    +0.000 OA
ATOM     13  O   UNL     1       5.592   6.213  15.007  0.00  0.00    +0.000 OA
BRANCH  11  14
ATOM     14  N   UNL     1       7.183   5.542  16.834  0.00  0.00    +0.000 NA
ATOM     15  C   UNL     1       7.689   4.698  17.920  0.00  0.00    +0.000 C 
ATOM     16  C   UNL     1       7.780   5.626  19.116  0.00  0.00    +0.000 C 
ATOM     17  C   UNL     1       8.011   7.006  18.525  0.00  0.00    +0.000 C 
ATOM     18  C   UNL     1       7.441   6.960  17.110  0.00  0.00    +0.000 C 
ENDBRANCH  11  14
ENDBRANCH   9  11
ENDBRANCH   3   5
BRANCH   2  19
ATOM     19  C   UNL     1       1.747   8.152  21.386  0.00  0.00    +0.000 C 
BRANCH  19  20
ATOM     20  N   UNL     1       0.771   9.034  20.790  0.00  0.00    +0.000 N 
ATOM     21  C   UNL     1      -0.298   9.574  21.435  0.00  0.00    +0.000 C 
ATOM     22  O   UNL     1      -0.674   9.355  22.575  0.00  0.00    +0.000 OA
ATOM     23  N   UNL     1      -0.889  10.499  20.598  0.00  0.00    +0.000 N 
ATOM     24  C   UNL     1      -0.341  10.443  19.258  0.00  0.00    +0.000 C 
ATOM     25  C   UNL     1      -1.265   9.631  18.341  0.00  0.00    +0.000 C 
ATOM     26  C   UNL     1      -2.523  10.417  17.965  0.00  0.00    +0.000 C 
ATOM     27  C   UNL     1      -2.179  11.778  17.363  0.00  0.00    +0.000 C 
ATOM     28  C   UNL     1      -1.261  12.592  18.273  0.00  0.00    +0.000 C 
ATOM     29  C   UNL     1      -0.009  11.811  18.668  0.00  0.00    +0.000 C 
ATOM     30  C   UNL     1       0.931   9.634  19.574  0.00  0.00    +0.000 C 
ATOM     31  O   UNL     1       1.903   9.487  18.844  0.00  0.00    +0.000 OA
ATOM     32  H   UNL     1      -1.764  10.933  20.866  0.00  0.00    +0.000 HD
ENDBRANCH  19  20
ENDBRANCH   2  19
TORSDOF 5
ENDMDL
MODEL 2
REMARK VINA RESULT:      -8.5      5.551      9.031
REMARK  Name = 
REMARK  5 active torsions:
REMARK  status: ('A' for Active; 'I' for Inactive)
REMARK    1  A    between atoms: C_2  and  C_3
REMARK    2  A    between atoms: C_3  and  N_4
REMARK    3  A    between atoms: N_16  and  C_17
REMARK    4  A    between atoms: C_21  and  S_22
REMARK    5  A    between atoms: S_22  and  N_25
REMARK                            x       y       z     vdW  Elec       q    Type
REMARK                         _______ _______ _______ _____ _____    ______ ____
ROOT
ATOM      1  O   UNL     1       8.375   7.171  18.920  0.00  0.00    +0.000 OA
ATOM      2  C   UNL     1       8.014   7.760  17.903  0.00  0.00    +0.000 C 
ATOM      3  N   UNL     1       8.262   9.098  17.605  0.00  0.00    +0.000 N 
ATOM      4  H   UNL     1       8.156   9.364  16.625  0.00  0.00    +0.000 HD
ENDROOT
BRANCH   3   5
ATOM      5  C   UNL     1       8.871  10.059  18.450  0.00  0.00    +0.000 A 
ATOM      6  C   UNL     1       8.937   9.925  19.837  0.00  0.00    +0.000 A 
ATOM      7  C   UNL     1       9.601  10.878  20.623  0.00  0.00    +0.000 A 
ATOM      8  C   UNL     1      10.196  11.989  20.030  0.00  0.00    +0.000 A 
ATOM      9  C   UNL     1      10.091  12.161  18.652  0.00  0.00    +0.000 A 
ATOM     10  C   UNL     1       9.437  11.200  17.859  0.00  0.00    +0.000 A 
BRANCH   9  11
ATOM     11  S   UNL     1      10.874  13.572  17.881  0.00  0.00    +0.000 S 
ATOM     12  O   UNL     1      11.873  14.061  18.807  0.00  0.00    +0.000 OA
ATOM     13  O   UNL     1      11.233  13.164  16.536  0.00  0.00    +0.000 OA
BRANCH  11  14
ATOM     14  N   UNL     1       9.665  14.721  17.737  0.00  0.00    +0.000 NA
ATOM     15  C   UNL     1       9.946  16.157  17.667  0.00  0.00    +0.000 C 
ATOM     16  C   UNL     1       9.003  16.783  18.677  0.00  0.00    +0.000 C 
ATOM     17  C   UNL     1       7.812  15.842  18.735  0.00  0.00    +0.000 C 
ATOM     18  C   UNL     1       8.330  14.475  18.295  0.00  0.00    +0.000 C 
ENDBRANCH  11  14
ENDBRANCH   9  11
ENDBRANCH   3   5
BRANCH   2  19
ATOM     19  C   UNL     1       7.298   7.005  16.778  0.00  0.00    +0.000 C 
BRANCH  19  20
ATOM     20  N   UNL     1       6.536   5.906  17.324  0.00  0.00    +0.000 N 
ATOM     21  C   UNL     1       7.042   4.687  17.653  0.00  0.00    +0.000 C 
ATOM     22  O   UNL     1       8.175   4.273  17.476  0.00  0.00    +0.000 OA
ATOM     23  N   UNL     1       6.060   3.973  18.308  0.00  0.00    +0.000 N 
ATOM     24  C   UNL     1       4.773   4.635  18.242  0.00  0.00    +0.000 C 
ATOM     25  C   UNL     1       3.914   4.013  17.133  0.00  0.00    +0.000 C 
ATOM     26  C   UNL     1       3.366   2.644  17.542  0.00  0.00    +0.000 C 
ATOM     27  C   UNL     1       2.616   2.711  18.872  0.00  0.00    +0.000 C 
ATOM     28  C   UNL     1       3.467   3.326  19.980  0.00  0.00    +0.000 C 
ATOM     29  C   UNL     1       4.034   4.687  19.576  0.00  0.00    +0.000 C 
ATOM     30  C   UNL     1       5.266   6.028  17.808  0.00  0.00    +0.000 C 
ATOM     31  O   UNL     1       4.620   7.068  17.823  0.00  0.00    +0.000 OA
ATOM     32  H   UNL     1       6.217   3.000  18.542  0.00  0.00    +0.000 HD
ENDBRANCH  19  20
ENDBRANCH   2  19
TORSDOF 5
ENDMDL
MODEL 3
REMARK VINA RESULT:      -8.4      5.393      8.861
REMARK  Name = 
REMARK  5 active torsions:
REMARK  status: ('A' for Active; 'I' for Inactive)
REMARK    1  A    between atoms: C_2  and  C_3
REMARK    2  A    between atoms: C_3  and  N_4
REMARK    3  A    between atoms: N_16  and  C_17
REMARK    4  A    between atoms: C_21  and  S_22
REMARK    5  A    between atoms: S_22  and  N_25
REMARK                            x       y       z     vdW  Elec       q    Type
REMARK                         _______ _______ _______ _____ _____    ______ ____
ROOT
ATOM      1  O   UNL     1       6.769   7.480  16.997  0.00  0.00    +0.000 OA
ATOM      2  C   UNL     1       7.612   7.103  17.808  0.00  0.00    +0.000 C 
ATOM      3  N   UNL     1       8.454   7.927  18.551  0.00  0.00    +0.000 N 
ATOM      4  H   UNL     1       8.886   7.499  19.371  0.00  0.00    +0.000 HD
ENDROOT
BRANCH   3   5
ATOM      5  C   UNL     1       8.584   9.334  18.440  0.00  0.00    +0.000 A 
ATOM      6  C   UNL     1       7.899  10.091  17.489  0.00  0.00    +0.000 A 
ATOM      7  C   UNL     1       8.019  11.488  17.457  0.00  0.00    +0.000 A 
ATOM      8  C   UNL     1       8.841  12.145  18.369  0.00  0.00    +0.000 A 
ATOM      9  C   UNL     1       9.572  11.395  19.288  0.00  0.00    +0.000 A 
ATOM     10  C   UNL     1       9.443   9.994  19.331  0.00  0.00    +0.000 A 
BRANCH   9  11
ATOM     11  S   UNL     1      10.610  12.234  20.478  0.00  0.00    +0.000 S 
ATOM     12  O   UNL     1       9.906  12.215  21.743  0.00  0.00    +0.000 OA
ATOM     13  O   UNL     1      11.936  11.662  20.349  0.00  0.00    +0.000 OA
BRANCH  11  14
ATOM     14  N   UNL     1      10.705  13.816  19.939  0.00  0.00    +0.000 NA
ATOM     15  C   UNL     1      11.923  14.374  19.345  0.00  0.00    +0.000 C 
ATOM     16  C   UNL     1      12.133  15.691  20.068  0.00  0.00    +0.000 C 
ATOM     17  C   UNL     1      10.741  16.139  20.480  0.00  0.00    +0.000 C 
ATOM     18  C   UNL     1       9.897  14.870  20.565  0.00  0.00    +0.000 C 
ENDBRANCH  11  14
ENDBRANCH   9  11
ENDBRANCH   3   5
BRANCH   2  19
ATOM     19  C   UNL     1       7.751   5.616  18.152  0.00  0.00    +0.000 C 
BRANCH  19  20
ATOM     20  N   UNL     1       6.503   4.931  17.908  0.00  0.00    +0.000 N 
ATOM     21  C   UNL     1       6.150   4.336  16.737  0.00  0.00    +0.000 C 
ATOM     22  O   UNL     1       6.758   4.342  15.680  0.00  0.00    +0.000 OA
ATOM     23  N   UNL     1       4.979   3.635  16.942  0.00  0.00    +0.000 N 
ATOM     24  C   UNL     1       4.393   3.928  18.234  0.00  0.00    +0.000 C 
ATOM     25  C   UNL     1       3.268   4.961  18.084  0.00  0.00    +0.000 C 
ATOM     26  C   UNL     1       2.008   4.341  17.476  0.00  0.00    +0.000 C 
ATOM     27  C   UNL     1       1.549   3.111  18.258  0.00  0.00    +0.000 C 
ATOM     28  C   UNL     1       2.664   2.079  18.408  0.00  0.00    +0.000 C 
ATOM     29  C   UNL     1       3.933   2.690  19.000  0.00  0.00    +0.000 C 
ATOM     30  C   UNL     1       5.624   4.580  18.891  0.00  0.00    +0.000 C 
ATOM     31  O   UNL     1       5.776   4.815  20.083  0.00  0.00    +0.000 OA
ATOM     32  H   UNL     1       4.504   3.207  16.156  0.00  0.00    +0.000 HD
ENDBRANCH  19  20
ENDBRANCH   2  19
TORSDOF 5
ENDMDL
MODEL 4
REMARK VINA RESULT:      -8.3      5.520      8.699
REMARK  Name = 
REMARK  5 active torsions:
REMARK  status: ('A' for Active; 'I' for Inactive)
REMARK    1  A    between atoms: C_2  and  C_3
REMARK    2  A    between atoms: C_3  and  N_4
REMARK    3  A    between atoms: N_16  and  C_17
REMARK    4  A    between atoms: C_21  and  S_22
REMARK    5  A    between atoms: S_22  and  N_25
REMARK                            x       y       z     vdW  Elec       q    Type
REMARK                         _______ _______ _______ _____ _____    ______ ____
ROOT
ATOM      1  O   UNL     1       7.002   9.201  17.541  0.00  0.00    +0.000 OA
ATOM      2  C   UNL     1       7.922   8.464  17.892  0.00  0.00    +0.000 C 
ATOM      3  N   UNL     1       8.943   8.802  18.778  0.00  0.00    +0.000 N 
ATOM      4  H   UNL     1       9.455   8.019  19.186  0.00  0.00    +0.000 HD
ENDROOT
BRANCH   3   5
ATOM      5  C   UNL     1       9.185  10.074  19.352  0.00  0.00    +0.000 A 
ATOM      6  C   UNL     1       8.981  10.354  20.704  0.00  0.00    +0.000 A 
ATOM      7  C   UNL     1       9.291  11.614  21.234  0.00  0.00    +0.000 A 
ATOM      8  C   UNL     1       9.795  12.620  20.412  0.00  0.00    +0.000 A 
ATOM      9  C   UNL     1       9.953  12.369  19.051  0.00  0.00    +0.000 A 
ATOM     10  C   UNL     1       9.656  11.100  18.519  0.00  0.00    +0.000 A 
BRANCH   9  11
ATOM     11  S   UNL     1      10.624  13.647  17.995  0.00  0.00    +0.000 S 
ATOM     12  O   UNL     1      11.698  14.281  18.729  0.00  0.00    +0.000 OA
ATOM     13  O   UNL     1      10.857  13.035  16.701  0.00  0.00    +0.000 OA
BRANCH  11  14
ATOM     14  N   UNL     1       9.381  14.750  17.798  0.00  0.00    +0.000 NA
ATOM     15  C   UNL     1       9.525  16.168  18.137  0.00  0.00    +0.000 C 
ATOM     16  C   UNL     1       8.299  16.490  18.971  0.00  0.00    +0.000 C 
ATOM     17  C   UNL     1       7.232  15.522  18.488  0.00  0.00    +0.000 C 
ATOM     18  C   UNL     1       7.980  14.326  17.904  0.00  0.00    +0.000 C 
ENDBRANCH  11  14
ENDBRANCH   9  11
ENDBRANCH   3   5
BRANCH   2  19
ATOM     19  C   UNL     1       7.972   7.005  17.427  0.00  0.00    +0.000 C 
BRANCH  19  20
ATOM     20  N   UNL     1       6.760   6.319  17.813  0.00  0.00    +0.000 N 
ATOM     21  C   UNL     1       6.533   5.746  19.026  0.00  0.00    +0.000 C 
ATOM     22  O   UNL     1       7.313   5.628  19.956  0.00  0.00    +0.000 OA
ATOM     23  N   UNL     1       5.211   5.357  19.081  0.00  0.00    +0.000 N 
ATOM     24  C   UNL     1       4.559   5.471  17.792  0.00  0.00    +0.000 C 
ATOM     25  C   UNL     1       4.508   4.101  17.101  0.00  0.00    +0.000 C 
ATOM     26  C   UNL     1       3.455   3.188  17.731  0.00  0.00    +0.000 C 
ATOM     27  C   UNL     1       2.081   3.855  17.771  0.00  0.00    +0.000 C 
ATOM     28  C   UNL     1       2.124   5.216  18.461  0.00  0.00    +0.000 C 
ATOM     29  C   UNL     1       3.185   6.132  17.850  0.00  0.00    +0.000 C 
ATOM     30  C   UNL     1       5.598   6.372  17.100  0.00  0.00    +0.000 C 
ATOM     31  O   UNL     1       5.447   6.986  16.051  0.00  0.00    +0.000 OA
ATOM     32  H   UNL     1       4.878   4.816  19.871  0.00  0.00    +0.000 HD
ENDBRANCH  19  20
ENDBRANCH   2  19
TORSDOF 5
ENDMDL
MODEL 5
REMARK VINA RESULT:      -8.2      2.487      3.501
REMARK  Name = 
REMARK  5 active torsions:
REMARK  status: ('A' for Active; 'I' for Inactive)
REMARK    1  A    between atoms: C_2  and  C_3
REMARK    2  A    between atoms: C_3  and  N_4
REMARK    3  A    between atoms: N_16  and  C_17
REMARK    4  A    between atoms: C_21  and  S_22
REMARK    5  A    between atoms: S_22  and  N_25
REMARK                            x       y       z     vdW  Elec       q    Type
REMARK                         _______ _______ _______ _____ _____    ______ ____
ROOT
ATOM      1  O   UNL     1       1.856   8.681  19.698  0.00  0.00    +0.000 OA
ATOM      2  C   UNL     1       1.945   8.955  18.503  0.00  0.00    +0.000 C 
ATOM      3  N   UNL     1       2.587   8.184  17.537  0.00  0.00    +0.000 N 
ATOM      4  H   UNL     1       2.337   8.385  16.567  0.00  0.00    +0.000 HD
ENDROOT
BRANCH   3   5
ATOM      5  C   UNL     1       3.350   7.009  17.753  0.00  0.00    +0.000 A 
ATOM      6  C   UNL     1       2.910   5.947  18.543  0.00  0.00    +0.000 A 
ATOM      7  C   UNL     1       3.679   4.783  18.680  0.00  0.00    +0.000 A 
ATOM      8  C   UNL     1       4.911   4.673  18.038  0.00  0.00    +0.000 A 
ATOM      9  C   UNL     1       5.385   5.748  17.290  0.00  0.00    +0.000 A 
ATOM     10  C   UNL     1       4.609   6.912  17.141  0.00  0.00    +0.000 A 
BRANCH   9  11
ATOM     11  S   UNL     1       6.953   5.604  16.443  0.00  0.00    +0.000 S 
ATOM     12  O   UNL     1       7.615   6.886  16.557  0.00  0.00    +0.000 OA
ATOM     13  O   UNL     1       7.578   4.390  16.930  0.00  0.00    +0.000 OA
BRANCH  11  14
ATOM     14  N   UNL     1       6.562   5.342  14.837  0.00  0.00    +0.000 NA
ATOM     15  C   UNL     1       5.422   4.517  14.428  0.00  0.00    +0.000 C 
ATOM     16  C   UNL     1       5.984   3.578  13.377  0.00  0.00    +0.000 C 
ATOM     17  C   UNL     1       7.140   4.339  12.751  0.00  0.00    +0.000 C 
ATOM     18  C   UNL     1       7.603   5.344  13.802  0.00  0.00    +0.000 C 
ENDBRANCH  11  14
ENDBRANCH   9  11
ENDBRANCH   3   5
BRANCH   2  19
ATOM     19  C   UNL     1       1.240  10.189  17.931  0.00  0.00    +0.000 C 
BRANCH  19  20
ATOM     20  N   UNL     1       0.598  10.930  18.993  0.00  0.00    +0.000 N 
ATOM     21  C   UNL     1       1.115  12.027  19.609  0.00  0.00    +0.000 C 
ATOM     22  O   UNL     1       2.217  12.525  19.452  0.00  0.00    +0.000 OA
ATOM     23  N   UNL     1       0.144  12.561  20.431  0.00  0.00    +0.000 N 
ATOM     24  C   UNL     1      -1.006  11.687  20.548  0.00  0.00    +0.000 C 
ATOM     25  C   UNL     1      -0.927  10.879  21.851  0.00  0.00    +0.000 C 
ATOM     26  C   UNL     1      -1.257  11.740  23.072  0.00  0.00    +0.000 C 
ATOM     27  C   UNL     1      -2.606  12.442  22.919  0.00  0.00    +0.000 C 
ATOM     28  C   UNL     1      -2.689  13.250  21.627  0.00  0.00    +0.000 C 
ATOM     29  C   UNL     1      -2.345  12.404  20.402  0.00  0.00    +0.000 C 
ATOM     30  C   UNL     1      -0.711  10.774  19.343  0.00  0.00    +0.000 C 
ATOM     31  O   UNL     1      -1.488   9.986  18.818  0.00  0.00    +0.000 OA
ATOM     32  H   UNL     1       0.376  13.326  21.053  0.00  0.00    +0.000 HD
ENDBRANCH  19  20
ENDBRANCH   2  19
TORSDOF 5
ENDMDL
MODEL 6
REMARK VINA RESULT:      -8.2      2.370      3.349
REMARK  Name = 
REMARK  5 active torsions:
REMARK  status: ('A' for Active; 'I' for Inactive)
REMARK    1  A    between atoms: C_2  and  C_3
REMARK    2  A    between atoms: C_3  and  N_4
REMARK    3  A    between atoms: N_16  and  C_17
REMARK    4  A    between atoms: C_21  and  S_22
REMARK    5  A    between atoms: S_22  and  N_25
REMARK                            x       y       z     vdW  Elec       q    Type
REMARK                         _______ _______ _______ _____ _____    ______ ____
ROOT
ATOM      1  O   UNL     1       0.108   9.376  17.925  0.00  0.00    +0.000 OA
ATOM      2  C   UNL     1       1.115   9.974  18.297  0.00  0.00    +0.000 C 
ATOM      3  N   UNL     1       2.369   9.406  18.511  0.00  0.00    +0.000 N 
ATOM      4  H   UNL     1       3.155  10.057  18.537  0.00  0.00    +0.000 HD
ENDROOT
BRANCH   3   5
ATOM      5  C   UNL     1       2.701   8.030  18.452  0.00  0.00    +0.000 A 
ATOM      6  C   UNL     1       2.096   7.063  19.256  0.00  0.00    +0.000 A 
ATOM      7  C   UNL     1       2.420   5.706  19.118  0.00  0.00    +0.000 A 
ATOM      8  C   UNL     1       3.369   5.298  18.183  0.00  0.00    +0.000 A 
ATOM      9  C   UNL     1       4.018   6.260  17.412  0.00  0.00    +0.000 A 
ATOM     10  C   UNL     1       3.685   7.622  17.538  0.00  0.00    +0.000 A 
BRANCH   9  11
ATOM     11  S   UNL     1       5.218   5.743  16.190  0.00  0.00    +0.000 S 
ATOM     12  O   UNL     1       4.953   4.350  15.900  0.00  0.00    +0.000 OA
ATOM     13  O   UNL     1       5.202   6.745  15.143  0.00  0.00    +0.000 OA
BRANCH  11  14
ATOM     14  N   UNL     1       6.701   5.861  16.956  0.00  0.00    +0.000 NA
ATOM     15  C   UNL     1       7.184   4.848  17.898  0.00  0.00    +0.000 C 
ATOM     16  C   UNL     1       7.654   5.638  19.105  0.00  0.00    +0.000 C 
ATOM     17  C   UNL     1       8.072   6.989  18.549  0.00  0.00    +0.000 C 
ATOM     18  C   UNL     1       7.289   7.173  17.252  0.00  0.00    +0.000 C 
ENDBRANCH  11  14
ENDBRANCH   9  11
ENDBRANCH   3   5
BRANCH   2  19
ATOM     19  C   UNL     1       1.094  11.496  18.481  0.00  0.00    +0.000 C 
BRANCH  19  20
ATOM     20  N   UNL     1       0.060  11.867  19.420  0.00  0.00    +0.000 N 
ATOM     21  C   UNL     1      -1.250  12.062  19.109  0.00  0.00    +0.000 C 
ATOM     22  O   UNL     1      -1.768  12.048  18.006  0.00  0.00    +0.000 OA
ATOM     23  N   UNL     1      -1.955  12.222  20.285  0.00  0.00    +0.000 N 
ATOM     24  C   UNL     1      -1.077  12.354  21.429  0.00  0.00    +0.000 C 
ATOM     25  C   UNL     1      -0.913  13.833  21.804  0.00  0.00    +0.000 C 
ATOM     26  C   UNL     1      -2.162  14.382  22.498  0.00  0.00    +0.000 C 
ATOM     27  C   UNL     1      -2.557  13.531  23.704  0.00  0.00    +0.000 C 
ATOM     28  C   UNL     1      -2.724  12.058  23.336  0.00  0.00    +0.000 C 
ATOM     29  C   UNL     1      -1.489  11.504  22.627  0.00  0.00    +0.000 C 
ATOM     30  C   UNL     1       0.216  11.830  20.775  0.00  0.00    +0.000 C 
ATOM     31  O   UNL     1       1.243  11.497  21.353  0.00  0.00    +0.000 OA
ATOM     32  H   UNL     1      -2.934  12.481  20.252  0.00  0.00    +0.000 HD
ENDBRANCH  19  20
ENDBRANCH   2  19
TORSDOF 5
ENDMDL
MODEL 7
REMARK VINA RESULT:      -8.2      5.547      9.045
REMARK  Name = 
REMARK  5 active torsions:
REMARK  status: ('A' for Active; 'I' for Inactive)
REMARK    1  A    between atoms: C_2  and  C_3
REMARK    2  A    between atoms: C_3  and  N_4
REMARK    3  A    between atoms: N_16  and  C_17
REMARK    4  A    between atoms: C_21  and  S_22
REMARK    5  A    between atoms: S_22  and  N_25
REMARK                            x       y       z     vdW  Elec       q    Type
REMARK                         _______ _______ _______ _____ _____    ______ ____
ROOT
ATOM      1  O   UNL     1       8.267   7.180  18.773  0.00  0.00    +0.000 OA
ATOM      2  C   UNL     1       7.852   7.724  17.751  0.00  0.00    +0.000 C 
ATOM      3  N   UNL     1       8.007   9.070  17.425  0.00  0.00    +0.000 N 
ATOM      4  H   UNL     1       7.869   9.309  16.442  0.00  0.00    +0.000 HD
ENDROOT
BRANCH   3   5
ATOM      5  C   UNL     1       8.563  10.085  18.242  0.00  0.00    +0.000 A 
ATOM      6  C   UNL     1       9.337   9.818  19.372  0.00  0.00    +0.000 A 
ATOM      7  C   UNL     1       9.912  10.860  20.114  0.00  0.00    +0.000 A 
ATOM      8  C   UNL     1       9.705  12.187  19.744  0.00  0.00    +0.000 A 
ATOM      9  C   UNL     1       8.890  12.467  18.650  0.00  0.00    +0.000 A 
ATOM     10  C   UNL     1       8.323  11.423  17.895  0.00  0.00    +0.000 A 
BRANCH   9  11
ATOM     11  S   UNL     1       8.641  14.167  18.153  0.00  0.00    +0.000 S 
ATOM     12  O   UNL     1       9.874  14.614  17.542  0.00  0.00    +0.000 OA
ATOM     13  O   UNL     1       7.386  14.208  17.429  0.00  0.00    +0.000 OA
BRANCH  11  14
ATOM     14  N   UNL     1       8.411  15.011  19.580  0.00  0.00    +0.000 NA
ATOM     15  C   UNL     1       7.179  14.910  20.366  0.00  0.00    +0.000 C 
ATOM     16  C   UNL     1       6.787  16.347  20.654  0.00  0.00    +0.000 C 
ATOM     17  C   UNL     1       8.097  17.116  20.657  0.00  0.00    +0.000 C 
ATOM     18  C   UNL     1       9.064  16.308  19.796  0.00  0.00    +0.000 C 
ENDBRANCH  11  14
ENDBRANCH   9  11
ENDBRANCH   3   5
BRANCH   2  19
ATOM     19  C   UNL     1       7.172   6.902  16.652  0.00  0.00    +0.000 C 
BRANCH  19  20
ATOM     20  N   UNL     1       6.449   5.795  17.234  0.00  0.00    +0.000 N 
ATOM     21  C   UNL     1       6.996   4.602  17.593  0.00  0.00    +0.000 C 
ATOM     22  O   UNL     1       8.140   4.219  17.417  0.00  0.00    +0.000 OA
ATOM     23  N   UNL     1       6.041   3.876  18.276  0.00  0.00    +0.000 N 
ATOM     24  C   UNL     1       4.734   4.497  18.203  0.00  0.00    +0.000 C 
ATOM     25  C   UNL     1       3.886   3.818  17.119  0.00  0.00    +0.000 C 
ATOM     26  C   UNL     1       3.384   2.444  17.571  0.00  0.00    +0.000 C 
ATOM     27  C   UNL     1       2.643   2.525  18.905  0.00  0.00    +0.000 C 
ATOM     28  C   UNL     1       3.484   3.197  19.988  0.00  0.00    +0.000 C 
ATOM     29  C   UNL     1       4.005   4.562  19.541  0.00  0.00    +0.000 C 
ATOM     30  C   UNL     1       5.180   5.892  17.726  0.00  0.00    +0.000 C 
ATOM     31  O   UNL     1       4.502   6.911  17.718  0.00  0.00    +0.000 OA
ATOM     32  H   UNL     1       6.231   2.916  18.535  0.00  0.00    +0.000 HD
ENDBRANCH  19  20
ENDBRANCH   2  19
TORSDOF 5
ENDMDL
MODEL 8
REMARK VINA RESULT:      -8.1      2.682      3.613
REMARK  Name = 
REMARK  5 active torsions:
REMARK  status: ('A' for Active; 'I' for Inactive)
REMARK    1  A    between atoms: C_2  and  C_3
REMARK    2  A    between atoms: C_3  and  N_4
REMARK    3  A    between atoms: N_16  and  C_17
REMARK    4  A    between atoms: C_21  and  S_22
REMARK    5  A    between atoms: S_22  and  N_25
REMARK                            x       y       z     vdW  Elec       q    Type
REMARK                         _______ _______ _______ _____ _____    ______ ____
ROOT
ATOM      1  O   UNL     1       0.769   9.365  20.412  0.00  0.00    +0.000 OA
ATOM      2  C   UNL     1       0.876   9.672  19.227  0.00  0.00    +0.000 C 
ATOM      3  N   UNL     1       1.578   8.956  18.260  0.00  0.00    +0.000 N 
ATOM      4  H   UNL     1       1.344   9.170  17.290  0.00  0.00    +0.000 HD
ENDROOT
BRANCH   3   5
ATOM      5  C   UNL     1       2.390   7.813  18.469  0.00  0.00    +0.000 A 
ATOM      6  C   UNL     1       2.296   7.006  19.604  0.00  0.00    +0.000 A 
ATOM      7  C   UNL     1       3.083   5.854  19.736  0.00  0.00    +0.000 A 
ATOM      8  C   UNL     1       3.990   5.502  18.739  0.00  0.00    +0.000 A 
ATOM      9  C   UNL     1       4.131   6.329  17.627  0.00  0.00    +0.000 A 
ATOM     10  C   UNL     1       3.333   7.478  17.485  0.00  0.00    +0.000 A 
BRANCH   9  11
ATOM     11  S   UNL     1       5.275   5.869  16.331  0.00  0.00    +0.000 S 
ATOM     12  O   UNL     1       5.061   4.464  16.056  0.00  0.00    +0.000 OA
ATOM     13  O   UNL     1       5.142   6.867  15.288  0.00  0.00    +0.000 OA
BRANCH  11  14
ATOM     14  N   UNL     1       6.797   6.061  17.001  0.00  0.00    +0.000 NA
ATOM     15  C   UNL     1       7.447   5.014  17.794  0.00  0.00    +0.000 C 
ATOM     16  C   UNL     1       7.934   5.725  19.043  0.00  0.00    +0.000 C 
ATOM     17  C   UNL     1       8.176   7.159  18.607  0.00  0.00    +0.000 C 
ATOM     18  C   UNL     1       7.280   7.391  17.393  0.00  0.00    +0.000 C 
ENDBRANCH  11  14
ENDBRANCH   9  11
ENDBRANCH   3   5
BRANCH   2  19
ATOM     19  C   UNL     1       0.128  10.886  18.666  0.00  0.00    +0.000 C 
BRANCH  19  20
ATOM     20  N   UNL     1       0.666  12.103  19.229  0.00  0.00    +0.000 N 
ATOM     21  C   UNL     1       0.187  12.737  20.332  0.00  0.00    +0.000 C 
ATOM     22  O   UNL     1      -0.806  12.461  20.983  0.00  0.00    +0.000 OA
ATOM     23  N   UNL     1       1.063  13.750  20.666  0.00  0.00    +0.000 N 
ATOM     24  C   UNL     1       2.065  13.957  19.640  0.00  0.00    +0.000 C 
ATOM     25  C   UNL     1       1.674  15.145  18.750  0.00  0.00    +0.000 C 
ATOM     26  C   UNL     1       1.895  16.482  19.460  0.00  0.00    +0.000 C 
ATOM     27  C   UNL     1       3.324  16.613  19.986  0.00  0.00    +0.000 C 
ATOM     28  C   UNL     1       3.718  15.436  20.875  0.00  0.00    +0.000 C 
ATOM     29  C   UNL     1       3.486  14.094  20.182  0.00  0.00    +0.000 C 
ATOM     30  C   UNL     1       1.871  12.637  18.873  0.00  0.00    +0.000 C 
ATOM     31  O   UNL     1       2.625  12.164  18.032  0.00  0.00    +0.000 OA
ATOM     32  H   UNL     1       0.822  14.401  21.403  0.00  0.00    +0.000 HD
ENDBRANCH  19  20
ENDBRANCH   2  19
TORSDOF 5
ENDMDL
MODEL 9
REMARK VINA RESULT:      -8.1      0.943      1.832
REMARK  Name = 
REMARK  5 active torsions:
REMARK  status: ('A' for Active; 'I' for Inactive)
REMARK    1  A    between atoms: C_2  and  C_3
REMARK    2  A    between atoms: C_3  and  N_4
REMARK    3  A    between atoms: N_16  and  C_17
REMARK    4  A    between atoms: C_21  and  S_22
REMARK    5  A    between atoms: S_22  and  N_25
REMARK                            x       y       z     vdW  Elec       q    Type
REMARK                         _______ _______ _______ _____ _____    ______ ____
ROOT
ATOM      1  O   UNL     1       1.633   6.386  20.896  0.00  0.00    +0.000 OA
ATOM      2  C   UNL     1       2.030   7.326  20.211  0.00  0.00    +0.000 C 
ATOM      3  N   UNL     1       2.621   7.226  18.954  0.00  0.00    +0.000 N 
ATOM      4  H   UNL     1       2.633   8.082  18.397  0.00  0.00    +0.000 HD
ENDROOT
BRANCH   3   5
ATOM      5  C   UNL     1       2.981   6.036  18.275  0.00  0.00    +0.000 A 
ATOM      6  C   UNL     1       2.217   4.869  18.321  0.00  0.00    +0.000 A 
ATOM      7  C   UNL     1       2.588   3.735  17.585  0.00  0.00    +0.000 A 
ATOM      8  C   UNL     1       3.740   3.748  16.802  0.00  0.00    +0.000 A 
ATOM      9  C   UNL     1       4.539   4.889  16.790  0.00  0.00    +0.000 A 
ATOM     10  C   UNL     1       4.162   6.034  17.518  0.00  0.00    +0.000 A 
BRANCH   9  11
ATOM     11  S   UNL     1       6.006   4.923  15.768  0.00  0.00    +0.000 S 
ATOM     12  O   UNL     1       6.288   3.556  15.386  0.00  0.00    +0.000 OA
ATOM     13  O   UNL     1       5.794   5.953  14.771  0.00  0.00    +0.000 OA
BRANCH  11  14
ATOM     14  N   UNL     1       7.230   5.463  16.775  0.00  0.00    +0.000 NA
ATOM     15  C   UNL     1       7.690   4.697  17.936  0.00  0.00    +0.000 C 
ATOM     16  C   UNL     1       7.713   5.700  19.074  0.00  0.00    +0.000 C 
ATOM     17  C   UNL     1       7.958   7.043  18.407  0.00  0.00    +0.000 C 
ATOM     18  C   UNL     1       7.459   6.899  16.972  0.00  0.00    +0.000 C 
ENDBRANCH  11  14
ENDBRANCH   9  11
ENDBRANCH   3   5
BRANCH   2  19
ATOM     19  C   UNL     1       1.812   8.772  20.671  0.00  0.00    +0.000 C 
BRANCH  19  20
ATOM     20  N   UNL     1       0.848   9.425  19.816  0.00  0.00    +0.000 N 
ATOM     21  C   UNL     1       1.112   9.938  18.585  0.00  0.00    +0.000 C 
ATOM     22  O   UNL     1       2.191  10.022  18.023  0.00  0.00    +0.000 OA
ATOM     23  N   UNL     1      -0.084  10.311  18.005  0.00  0.00    +0.000 N 
ATOM     24  C   UNL     1      -1.183  10.250  18.946  0.00  0.00    +0.000 C 
ATOM     25  C   UNL     1      -1.486  11.650  19.499  0.00  0.00    +0.000 C 
ATOM     26  C   UNL     1      -2.207  12.522  18.469  0.00  0.00    +0.000 C 
ATOM     27  C   UNL     1      -3.465  11.839  17.933  0.00  0.00    +0.000 C 
ATOM     28  C   UNL     1      -3.170  10.447  17.379  0.00  0.00    +0.000 C 
ATOM     29  C   UNL     1      -2.434   9.573  18.394  0.00  0.00    +0.000 C 
ATOM     30  C   UNL     1      -0.500   9.393  20.028  0.00  0.00    +0.000 C 
ATOM     31  O   UNL     1      -1.048   8.827  20.965  0.00  0.00    +0.000 OA
ATOM     32  H   UNL     1      -0.082  10.810  17.124  0.00  0.00    +0.000 HD
ENDBRANCH  19  20
ENDBRANCH   2  19
TORSDOF 5
ENDMDL
