MODEL 1
REMARK VINA RESULT:      -9.0      0.000      0.000
REMARK  Name = 
REMARK  6 active torsions:
REMARK  status: ('A' for Active; 'I' for Inactive)
REMARK    1  A    between atoms: S_2  and  N_4
REMARK    2  A    between atoms: S_2  and  C_10
REMARK    3  A    between atoms: N_4  and  C_5
REMARK    4  A    between atoms: C_13  and  O_14
REMARK    5  A    between atoms: O_14  and  C_15
REMARK    6  A    between atoms: C_20  and  C_21
REMARK                            x       y       z     vdW  Elec       q    Type
REMARK                         _______ _______ _______ _____ _____    ______ ____
ROOT
ATOM      1  C   UNL     1       1.123   9.359  19.664  0.00  0.00    +0.000 A 
ATOM      2  C   UNL     1       1.085   8.564  20.817  0.00  0.00    +0.000 A 
ATOM      3  C   UNL     1       1.748   7.333  20.831  0.00  0.00    +0.000 A 
ATOM      4  C   UNL     1       2.456   6.907  19.704  0.00  0.00    +0.000 A 
ATOM      5  C   UNL     1       2.423   7.684  18.540  0.00  0.00    +0.000 A 
ATOM      6  F   UNL     1       3.025   7.264  17.417  0.00  0.00    +0.000 F 
ATOM      7  C   UNL     1       1.795   8.923  18.521  0.00  0.00    +0.000 A 
ENDROOT
BRANCH   1   9
ATOM      8  O   UNL     1       1.359  11.947  19.824  0.00  0.00    +0.000 OA
ATOM      9  S   UNL     1       0.323  10.955  19.644  0.00  0.00    +0.000 S 
ATOM     10  O   UNL     1      -0.821  10.884  20.532  0.00  0.00    +0.000 OA
BRANCH   9  11
ATOM     11  N   UNL     1      -0.225  11.098  18.051  0.00  0.00    +0.000 N 
ATOM     12  H   UNL     1       0.353  10.493  17.469  0.00  0.00    +0.000 HD
BRANCH  11  13
ATOM     13  C   UNL     1      -1.586  10.931  17.820  0.00  0.00    +0.000 A 
ATOM     14  C   UNL     1      -2.576  11.875  17.995  0.00  0.00    +0.000 A 
ATOM     15  S   UNL     1      -4.110  11.172  17.687  0.00  0.00    +0.000 S 
ATOM     16  C   UNL     1      -3.328   9.686  17.338  0.00  0.00    +0.000 A 
ATOM     17  N   UNL     1      -2.014   9.696  17.396  0.00  0.00    +0.000 NA
ENDBRANCH  11  13
ENDBRANCH   9  11
ENDBRANCH   1   9
BRANCH   4  18
ATOM     18  O   UNL     1       3.130   5.712  19.814  0.00  0.00    +0.000 OA
BRANCH  18  19
ATOM     19  C   UNL     1       2.534   4.545  19.359  0.00  0.00    +0.000 A 
ATOM     20  C   UNL     1       1.278   4.125  19.831  0.00  0.00    +0.000 A 
ATOM     21  C   UNL     1       0.750   2.890  19.468  0.00  0.00    +0.000 A 
ATOM     22  C   UNL     1       1.430   2.098  18.559  0.00  0.00    +0.000 A 
ATOM     23  C   UNL     1       2.624   2.557  17.995  0.00  0.00    +0.000 A 
ATOM     24  C   UNL     1       3.219   3.785  18.373  0.00  0.00    +0.000 A 
BRANCH  24  25
ATOM     25  C   UNL     1       4.507   4.197  17.736  0.00  0.00    +0.000 A 
ATOM     26  C   UNL     1       5.688   4.379  18.478  0.00  0.00    +0.000 A 
ATOM     27  C   UNL     1       6.891   4.759  17.868  0.00  0.00    +0.000 A 
ATOM     28  C   UNL     1       6.937   5.000  16.499  0.00  0.00    +0.000 A 
ATOM     29  C   UNL     1       5.780   4.861  15.742  0.00  0.00    +0.000 A 
ATOM     30  C   UNL     1       4.586   4.457  16.352  0.00  0.00    +0.000 A 
ENDBRANCH  24  25
ENDBRANCH  18  19
ENDBRANCH   4  18
TORSDOF 6
ENDMDL
MODEL 2
REMARK VINA RESULT:      -8.9      2.152      2.840
REMARK  Name = 
REMARK  6 active torsions:
REMARK  status: ('A' for Active; 'I' for Inactive)
REMARK    1  A    between atoms: S_2  and  N_4
REMARK    2  A    between atoms: S_2  and  C_10
REMARK    3  A    between atoms: N_4  and  C_5
REMARK    4  A    between atoms: C_13  and  O_14
REMARK    5  A    between atoms: O_14  and  C_15
REMARK    6  A    between atoms: C_20  and  C_21
REMARK                            x       y       z     vdW  Elec       q    Type
REMARK                         _______ _______ _______ _____ _____    ______ ____
ROOT
ATOM      1  C   UNL     1       0.689   9.763  19.516  0.00  0.00    +0.000 A 
ATOM      2  C   UNL     1       0.715   8.966  20.667  0.00  0.00    +0.000 A 
ATOM      3  C   UNL     1       1.514   7.819  20.696  0.00  0.00    +0.000 A 
ATOM      4  C   UNL     1       2.292   7.481  19.585  0.00  0.00    +0.000 A 
ATOM      5  C   UNL     1       2.197   8.252  18.421  0.00  0.00    +0.000 A 
ATOM      6  F   UNL     1       2.870   7.909  17.312  0.00  0.00    +0.000 F 
ATOM      7  C   UNL     1       1.432   9.412  18.389  0.00  0.00    +0.000 A 
ENDROOT
BRANCH   1   9
ATOM      8  O   UNL     1      -0.054  11.945  20.728  0.00  0.00    +0.000 OA
ATOM      9  S   UNL     1      -0.289  11.257  19.478  0.00  0.00    +0.000 S 
ATOM     10  O   UNL     1      -1.627  10.896  19.052  0.00  0.00    +0.000 OA
BRANCH   9  11
ATOM     11  N   UNL     1       0.446  12.176  18.264  0.00  0.00    +0.000 N 
ATOM     12  H   UNL     1      -0.102  12.058  17.412  0.00  0.00    +0.000 HD
BRANCH  11  13
ATOM     13  C   UNL     1       0.729  13.507  18.545  0.00  0.00    +0.000 A 
ATOM     14  C   UNL     1       1.965  14.045  18.837  0.00  0.00    +0.000 A 
ATOM     15  S   UNL     1       1.799  15.709  19.220  0.00  0.00    +0.000 S 
ATOM     16  C   UNL     1       0.110  15.573  18.954  0.00  0.00    +0.000 A 
ATOM     17  N   UNL     1      -0.321  14.393  18.563  0.00  0.00    +0.000 NA
ENDBRANCH  11  13
ENDBRANCH   9  11
ENDBRANCH   1   9
BRANCH   4  18
ATOM     18  O   UNL     1       3.096   6.371  19.710  0.00  0.00    +0.000 OA
BRANCH  18  19
ATOM     19  C   UNL     1       2.963   5.323  18.811  0.00  0.00    +0.000 A 
ATOM     20  C   UNL     1       1.730   4.678  18.608  0.00  0.00    +0.000 A 
ATOM     21  C   UNL     1       1.634   3.546  17.805  0.00  0.00    +0.000 A 
ATOM     22  C   UNL     1       2.753   3.097  17.123  0.00  0.00    +0.000 A 
ATOM     23  C   UNL     1       3.957   3.799  17.226  0.00  0.00    +0.000 A 
ATOM     24  C   UNL     1       4.108   4.927  18.070  0.00  0.00    +0.000 A 
BRANCH  24  25
ATOM     25  C   UNL     1       5.434   5.612  18.139  0.00  0.00    +0.000 A 
ATOM     26  C   UNL     1       6.405   5.275  19.099  0.00  0.00    +0.000 A 
ATOM     27  C   UNL     1       7.648   5.921  19.149  0.00  0.00    +0.000 A 
ATOM     28  C   UNL     1       7.940   6.947  18.257  0.00  0.00    +0.000 A 
ATOM     29  C   UNL     1       6.990   7.328  17.317  0.00  0.00    +0.000 A 
ATOM     30  C   UNL     1       5.760   6.662  17.256  0.00  0.00    +0.000 A 
ENDBRANCH  24  25
ENDBRANCH  18  19
ENDBRANCH   4  18
TORSDOF 6
ENDMDL
MODEL 3
REMARK VINA RESULT:      -8.7      2.422      3.280
REMARK  Name = 
REMARK  6 active torsions:
REMARK  status: ('A' for Active; 'I' for Inactive)
REMARK    1  A    between atoms: S_2  and  N_4
REMARK    2  A    between atoms: S_2  and  C_10
REMARK    3  A    between atoms: N_4  and  C_5
REMARK    4  A    between atoms: C_13  and  O_14
REMARK    5  A    between atoms: O_14  and  C_15
REMARK    6  A    between atoms: C_20  and  C_21
REMARK                            x       y       z     vdW  Elec       q    Type
REMARK                         _______ _______ _______ _____ _____    ______ ____
ROOT
ATOM      1  C   UNL     1       0.644   9.837  19.008  0.00  0.00    +0.000 A 
ATOM      2  C   UNL     1       1.477   9.346  17.996  0.00  0.00    +0.000 A 
ATOM      3  C   UNL     1       2.291   8.237  18.248  0.00  0.00    +0.000 A 
ATOM      4  C   UNL     1       2.260   7.616  19.499  0.00  0.00    +0.000 A 
ATOM      5  C   UNL     1       1.473   8.166  20.517  0.00  0.00    +0.000 A 
ATOM      6  F   UNL     1       1.482   7.642  21.753  0.00  0.00    +0.000 F 
ATOM      7  C   UNL     1       0.635   9.247  20.273  0.00  0.00    +0.000 A 
ENDROOT
BRANCH   1   9
ATOM      8  O   UNL     1      -0.909  11.691  19.974  0.00  0.00    +0.000 OA
ATOM      9  S   UNL     1      -0.438  11.222  18.690  0.00  0.00    +0.000 S 
ATOM     10  O   UNL     1      -1.360  10.827  17.643  0.00  0.00    +0.000 OA
BRANCH   9  11
ATOM     11  N   UNL     1       0.608  12.405  18.086  0.00  0.00    +0.000 N 
ATOM     12  H   UNL     1       0.380  12.546  17.102  0.00  0.00    +0.000 HD
BRANCH  11  13
ATOM     13  C   UNL     1       0.711  13.596  18.794  0.00  0.00    +0.000 A 
ATOM     14  C   UNL     1      -0.149  14.673  18.729  0.00  0.00    +0.000 A 
ATOM     15  S   UNL     1       0.451  15.954  19.700  0.00  0.00    +0.000 S 
ATOM     16  C   UNL     1       1.787  14.967  20.127  0.00  0.00    +0.000 A 
ATOM     17  N   UNL     1       1.789  13.749  19.632  0.00  0.00    +0.000 NA
ENDBRANCH  11  13
ENDBRANCH   9  11
ENDBRANCH   1   9
BRANCH   4  18
ATOM     18  O   UNL     1       3.046   6.497  19.652  0.00  0.00    +0.000 OA
BRANCH  18  19
ATOM     19  C   UNL     1       2.913   5.440  18.764  0.00  0.00    +0.000 A 
ATOM     20  C   UNL     1       1.680   4.792  18.567  0.00  0.00    +0.000 A 
ATOM     21  C   UNL     1       1.585   3.652  17.776  0.00  0.00    +0.000 A 
ATOM     22  C   UNL     1       2.705   3.196  17.099  0.00  0.00    +0.000 A 
ATOM     23  C   UNL     1       3.909   3.900  17.195  0.00  0.00    +0.000 A 
ATOM     24  C   UNL     1       4.059   5.036  18.028  0.00  0.00    +0.000 A 
BRANCH  24  25
ATOM     25  C   UNL     1       5.385   5.722  18.090  0.00  0.00    +0.000 A 
ATOM     26  C   UNL     1       5.729   6.773  17.221  0.00  0.00    +0.000 A 
ATOM     27  C   UNL     1       6.973   7.413  17.293  0.00  0.00    +0.000 A 
ATOM     28  C   UNL     1       7.922   6.996  18.220  0.00  0.00    +0.000 A 
ATOM     29  C   UNL     1       7.627   5.938  19.072  0.00  0.00    +0.000 A 
ATOM     30  C   UNL     1       6.373   5.319  19.012  0.00  0.00    +0.000 A 
ENDBRANCH  24  25
ENDBRANCH  18  19
ENDBRANCH   4  18
TORSDOF 6
ENDMDL
MODEL 4
REMARK VINA RESULT:      -8.7      1.309      1.772
REMARK  Name = 
REMARK  6 active torsions:
REMARK  status: ('A' for Active; 'I' for Inactive)
REMARK    1  A    between atoms: S_2  and  N_4
REMARK    2  A    between atoms: S_2  and  C_10
REMARK    3  A    between atoms: N_4  and  C_5
REMARK    4  A    between atoms: C_13  and  O_14
REMARK    5  A    between atoms: O_14  and  C_15
REMARK    6  A    between atoms: C_20  and  C_21
REMARK                            x       y       z     vdW  Elec       q    Type
REMARK                         _______ _______ _______ _____ _____    ______ ____
ROOT
ATOM      1  C   UNL     1       0.759   9.854  19.649  0.00  0.00    +0.000 A 
ATOM      2  C   UNL     1       0.797   9.059  20.801  0.00  0.00    +0.000 A 
ATOM      3  C   UNL     1       1.559   7.886  20.807  0.00  0.00    +0.000 A 
ATOM      4  C   UNL     1       2.287   7.520  19.672  0.00  0.00    +0.000 A 
ATOM      5  C   UNL     1       2.179   8.292  18.509  0.00  0.00    +0.000 A 
ATOM      6  F   UNL     1       2.802   7.924  17.379  0.00  0.00    +0.000 F 
ATOM      7  C   UNL     1       1.452   9.476  18.499  0.00  0.00    +0.000 A 
ENDROOT
BRANCH   1   9
ATOM      8  O   UNL     1       0.752  12.436  19.995  0.00  0.00    +0.000 OA
ATOM      9  S   UNL     1      -0.170  11.380  19.639  0.00  0.00    +0.000 S 
ATOM     10  O   UNL     1      -1.390  11.156  20.389  0.00  0.00    +0.000 OA
BRANCH   9  11
ATOM     11  N   UNL     1      -0.557  11.592  18.008  0.00  0.00    +0.000 N 
ATOM     12  H   UNL     1       0.188  11.171  17.455  0.00  0.00    +0.000 HD
BRANCH  11  13
ATOM     13  C   UNL     1      -1.825  11.204  17.590  0.00  0.00    +0.000 A 
ATOM     14  C   UNL     1      -2.128  10.206  16.688  0.00  0.00    +0.000 A 
ATOM     15  S   UNL     1      -3.820  10.170  16.409  0.00  0.00    +0.000 S 
ATOM     16  C   UNL     1      -4.003  11.469  17.514  0.00  0.00    +0.000 A 
ATOM     17  N   UNL     1      -2.902  11.890  18.098  0.00  0.00    +0.000 NA
ENDBRANCH  11  13
ENDBRANCH   9  11
ENDBRANCH   1   9
BRANCH   4  18
ATOM     18  O   UNL     1       3.058   6.384  19.773  0.00  0.00    +0.000 OA
BRANCH  18  19
ATOM     19  C   UNL     1       2.897   5.362  18.849  0.00  0.00    +0.000 A 
ATOM     20  C   UNL     1       1.656   4.729  18.659  0.00  0.00    +0.000 A 
ATOM     21  C   UNL     1       1.534   3.620  17.828  0.00  0.00    +0.000 A 
ATOM     22  C   UNL     1       2.634   3.184  17.107  0.00  0.00    +0.000 A 
ATOM     23  C   UNL     1       3.844   3.877  17.201  0.00  0.00    +0.000 A 
ATOM     24  C   UNL     1       4.022   4.980  18.071  0.00  0.00    +0.000 A 
BRANCH  24  25
ATOM     25  C   UNL     1       5.353   5.657  18.126  0.00  0.00    +0.000 A 
ATOM     26  C   UNL     1       5.709   6.689  17.240  0.00  0.00    +0.000 A 
ATOM     27  C   UNL     1       6.958   7.320  17.306  0.00  0.00    +0.000 A 
ATOM     28  C   UNL     1       7.900   6.912  18.244  0.00  0.00    +0.000 A 
ATOM     29  C   UNL     1       7.593   5.872  19.113  0.00  0.00    +0.000 A 
ATOM     30  C   UNL     1       6.334   5.261  19.059  0.00  0.00    +0.000 A 
ENDBRANCH  24  25
ENDBRANCH  18  19
ENDBRANCH   4  18
TORSDOF 6
ENDMDL
MODEL 5
REMARK VINA RESULT:      -8.7      2.369      3.135
REMARK  Name = 
REMARK  6 active torsions:
REMARK  status: ('A' for Active; 'I' for Inactive)
REMARK    1  A    between atoms: S_2  and  N_4
REMARK    2  A    between atoms: S_2  and  C_10
REMARK    3  A    between atoms: N_4  and  C_5
REMARK    4  A    between atoms: C_13  and  O_14
REMARK    5  A    between atoms: O_14  and  C_15
REMARK    6  A    between atoms: C_20  and  C_21
REMARK                            x       y       z     vdW  Elec       q    Type
REMARK                         _______ _______ _______ _____ _____    ______ ____
ROOT
ATOM      1  C   UNL     1       0.775   9.814  19.077  0.00  0.00    +0.000 A 
ATOM      2  C   UNL     1       1.606   9.316  18.065  0.00  0.00    +0.000 A 
ATOM      3  C   UNL     1       2.387   8.181  18.307  0.00  0.00    +0.000 A 
ATOM      4  C   UNL     1       2.325   7.542  19.548  0.00  0.00    +0.000 A 
ATOM      5  C   UNL     1       1.541   8.096  20.567  0.00  0.00    +0.000 A 
ATOM      6  F   UNL     1       1.523   7.552  21.793  0.00  0.00    +0.000 F 
ATOM      7  C   UNL     1       0.737   9.204  20.332  0.00  0.00    +0.000 A 
ENDROOT
BRANCH   1   9
ATOM      8  O   UNL     1      -0.674  11.741  20.061  0.00  0.00    +0.000 OA
ATOM      9  S   UNL     1      -0.264  11.233  18.770  0.00  0.00    +0.000 S 
ATOM     10  O   UNL     1      -1.235  10.856  17.761  0.00  0.00    +0.000 OA
BRANCH   9  11
ATOM     11  N   UNL     1       0.804  12.365  18.111  0.00  0.00    +0.000 N 
ATOM     12  H   UNL     1       0.672  12.363  17.100  0.00  0.00    +0.000 HD
BRANCH  11  13
ATOM     13  C   UNL     1       0.802  13.645  18.653  0.00  0.00    +0.000 A 
ATOM     14  C   UNL     1       1.819  14.239  19.372  0.00  0.00    +0.000 A 
ATOM     15  S   UNL     1       1.314  15.782  19.926  0.00  0.00    +0.000 S 
ATOM     16  C   UNL     1      -0.198  15.533  19.156  0.00  0.00    +0.000 A 
ATOM     17  N   UNL     1      -0.330  14.407  18.489  0.00  0.00    +0.000 NA
ENDBRANCH  11  13
ENDBRANCH   9  11
ENDBRANCH   1   9
BRANCH   4  18
ATOM     18  O   UNL     1       3.078   6.398  19.691  0.00  0.00    +0.000 OA
BRANCH  18  19
ATOM     19  C   UNL     1       2.926   5.360  18.784  0.00  0.00    +0.000 A 
ATOM     20  C   UNL     1       1.684   4.734  18.581  0.00  0.00    +0.000 A 
ATOM     21  C   UNL     1       1.569   3.610  17.768  0.00  0.00    +0.000 A 
ATOM     22  C   UNL     1       2.679   3.151  17.078  0.00  0.00    +0.000 A 
ATOM     23  C   UNL     1       3.894   3.836  17.182  0.00  0.00    +0.000 A 
ATOM     24  C   UNL     1       4.064   4.954  18.035  0.00  0.00    +0.000 A 
BRANCH  24  25
ATOM     25  C   UNL     1       5.399   5.620  18.105  0.00  0.00    +0.000 A 
ATOM     26  C   UNL     1       6.375   5.251  19.047  0.00  0.00    +0.000 A 
ATOM     27  C   UNL     1       7.627   5.879  19.098  0.00  0.00    +0.000 A 
ATOM     28  C   UNL     1       7.924   6.920  18.224  0.00  0.00    +0.000 A 
ATOM     29  C   UNL     1       6.969   7.332  17.302  0.00  0.00    +0.000 A 
ATOM     30  C   UNL     1       5.729   6.684  17.240  0.00  0.00    +0.000 A 
ENDBRANCH  24  25
ENDBRANCH  18  19
ENDBRANCH   4  18
TORSDOF 6
ENDMDL
MODEL 6
REMARK VINA RESULT:      -8.6      1.934      2.748
REMARK  Name = 
REMARK  6 active torsions:
REMARK  status: ('A' for Active; 'I' for Inactive)
REMARK    1  A    between atoms: S_2  and  N_4
REMARK    2  A    between atoms: S_2  and  C_10
REMARK    3  A    between atoms: N_4  and  C_5
REMARK    4  A    between atoms: C_13  and  O_14
REMARK    5  A    between atoms: O_14  and  C_15
REMARK    6  A    between atoms: C_20  and  C_21
REMARK                            x       y       z     vdW  Elec       q    Type
REMARK                         _______ _______ _______ _____ _____    ______ ____
ROOT
ATOM      1  C   UNL     1       1.074   9.393  19.579  0.00  0.00    +0.000 A 
ATOM      2  C   UNL     1       1.030   8.617  20.744  0.00  0.00    +0.000 A 
ATOM      3  C   UNL     1       1.710   7.396  20.788  0.00  0.00    +0.000 A 
ATOM      4  C   UNL     1       2.440   6.962  19.678  0.00  0.00    +0.000 A 
ATOM      5  C   UNL     1       2.412   7.719  18.501  0.00  0.00    +0.000 A 
ATOM      6  F   UNL     1       3.036   7.290  17.393  0.00  0.00    +0.000 F 
ATOM      7  C   UNL     1       1.768   8.949  18.453  0.00  0.00    +0.000 A 
ENDROOT
BRANCH   1   9
ATOM      8  O   UNL     1       0.536  11.645  20.772  0.00  0.00    +0.000 OA
ATOM      9  S   UNL     1       0.251  10.977  19.521  0.00  0.00    +0.000 S 
ATOM     10  O   UNL     1      -1.110  10.749  19.078  0.00  0.00    +0.000 OA
BRANCH   9  11
ATOM     11  N   UNL     1       1.091  11.811  18.314  0.00  0.00    +0.000 N 
ATOM     12  H   UNL     1       0.567  11.709  17.446  0.00  0.00    +0.000 HD
BRANCH  11  13
ATOM     13  C   UNL     1       1.457  13.127  18.574  0.00  0.00    +0.000 A 
ATOM     14  C   UNL     1       0.612  14.211  18.691  0.00  0.00    +0.000 A 
ATOM     15  S   UNL     1       1.532  15.643  18.905  0.00  0.00    +0.000 S 
ATOM     16  C   UNL     1       2.963  14.701  18.837  0.00  0.00    +0.000 A 
ATOM     17  N   UNL     1       2.796  13.402  18.709  0.00  0.00    +0.000 NA
ENDBRANCH  11  13
ENDBRANCH   9  11
ENDBRANCH   1   9
BRANCH   4  18
ATOM     18  O   UNL     1       3.129   5.779  19.817  0.00  0.00    +0.000 OA
BRANCH  18  19
ATOM     19  C   UNL     1       2.551   4.594  19.386  0.00  0.00    +0.000 A 
ATOM     20  C   UNL     1       1.307   4.159  19.877  0.00  0.00    +0.000 A 
ATOM     21  C   UNL     1       0.797   2.909  19.539  0.00  0.00    +0.000 A 
ATOM     22  C   UNL     1       1.483   2.115  18.636  0.00  0.00    +0.000 A 
ATOM     23  C   UNL     1       2.663   2.586  18.053  0.00  0.00    +0.000 A 
ATOM     24  C   UNL     1       3.240   3.831  18.406  0.00  0.00    +0.000 A 
BRANCH  24  25
ATOM     25  C   UNL     1       4.513   4.256  17.749  0.00  0.00    +0.000 A 
ATOM     26  C   UNL     1       4.598   4.514  16.370  0.00  0.00    +0.000 A 
ATOM     27  C   UNL     1       5.796   4.919  15.767  0.00  0.00    +0.000 A 
ATOM     28  C   UNL     1       6.955   5.044  16.527  0.00  0.00    +0.000 A 
ATOM     29  C   UNL     1       6.913   4.764  17.887  0.00  0.00    +0.000 A 
ATOM     30  C   UNL     1       5.707   4.384  18.489  0.00  0.00    +0.000 A 
ENDBRANCH  24  25
ENDBRANCH  18  19
ENDBRANCH   4  18
TORSDOF 6
ENDMDL
MODEL 7
REMARK VINA RESULT:      -8.6      2.340      3.158
REMARK  Name = 
REMARK  6 active torsions:
REMARK  status: ('A' for Active; 'I' for Inactive)
REMARK    1  A    between atoms: S_2  and  N_4
REMARK    2  A    between atoms: S_2  and  C_10
REMARK    3  A    between atoms: N_4  and  C_5
REMARK    4  A    between atoms: C_13  and  O_14
REMARK    5  A    between atoms: O_14  and  C_15
REMARK    6  A    between atoms: C_20  and  C_21
REMARK                            x       y       z     vdW  Elec       q    Type
REMARK                         _______ _______ _______ _____ _____    ______ ____
ROOT
ATOM      1  C   UNL     1       0.601   9.817  18.968  0.00  0.00    +0.000 A 
ATOM      2  C   UNL     1       1.409   9.296  17.950  0.00  0.00    +0.000 A 
ATOM      3  C   UNL     1       2.231   8.196  18.213  0.00  0.00    +0.000 A 
ATOM      4  C   UNL     1       2.233   7.613  19.483  0.00  0.00    +0.000 A 
ATOM      5  C   UNL     1       1.471   8.192  20.504  0.00  0.00    +0.000 A 
ATOM      6  F   UNL     1       1.513   7.705  21.754  0.00  0.00    +0.000 F 
ATOM      7  C   UNL     1       0.626   9.265  20.250  0.00  0.00    +0.000 A 
ENDROOT
BRANCH   1   9
ATOM      8  O   UNL     1      -1.347  10.793  17.542  0.00  0.00    +0.000 OA
ATOM      9  S   UNL     1      -0.490  11.191  18.637  0.00  0.00    +0.000 S 
ATOM     10  O   UNL     1       0.323  12.390  18.566  0.00  0.00    +0.000 OA
BRANCH   9  11
ATOM     11  N   UNL     1      -1.459  11.264  20.020  0.00  0.00    +0.000 N 
ATOM     12  H   UNL     1      -1.348  10.384  20.523  0.00  0.00    +0.000 HD
BRANCH  11  13
ATOM     13  C   UNL     1      -1.326  12.377  20.842  0.00  0.00    +0.000 A 
ATOM     14  C   UNL     1      -0.480  12.509  21.924  0.00  0.00    +0.000 A 
ATOM     15  S   UNL     1      -0.749  14.019  22.691  0.00  0.00    +0.000 S 
ATOM     16  C   UNL     1      -1.951  14.369  21.519  0.00  0.00    +0.000 A 
ATOM     17  N   UNL     1      -2.129  13.462  20.583  0.00  0.00    +0.000 NA
ENDBRANCH  11  13
ENDBRANCH   9  11
ENDBRANCH   1   9
BRANCH   4  18
ATOM     18  O   UNL     1       3.024   6.499  19.649  0.00  0.00    +0.000 OA
BRANCH  18  19
ATOM     19  C   UNL     1       2.888   5.427  18.780  0.00  0.00    +0.000 A 
ATOM     20  C   UNL     1       1.655   4.776  18.598  0.00  0.00    +0.000 A 
ATOM     21  C   UNL     1       1.557   3.622  17.826  0.00  0.00    +0.000 A 
ATOM     22  C   UNL     1       2.674   3.154  17.155  0.00  0.00    +0.000 A 
ATOM     23  C   UNL     1       3.879   3.859  17.236  0.00  0.00    +0.000 A 
ATOM     24  C   UNL     1       4.032   5.009  18.048  0.00  0.00    +0.000 A 
BRANCH  24  25
ATOM     25  C   UNL     1       5.358   5.696  18.094  0.00  0.00    +0.000 A 
ATOM     26  C   UNL     1       5.686   6.757  17.231  0.00  0.00    +0.000 A 
ATOM     27  C   UNL     1       6.931   7.399  17.289  0.00  0.00    +0.000 A 
ATOM     28  C   UNL     1       7.897   6.971  18.194  0.00  0.00    +0.000 A 
ATOM     29  C   UNL     1       7.618   5.903  19.038  0.00  0.00    +0.000 A 
ATOM     30  C   UNL     1       6.363   5.283  18.993  0.00  0.00    +0.000 A 
ENDBRANCH  24  25
ENDBRANCH  18  19
ENDBRANCH   4  18
TORSDOF 6
ENDMDL
MODEL 8
REMARK VINA RESULT:      -8.6      1.996      2.580
REMARK  Name = 
REMARK  6 active torsions:
REMARK  status: ('A' for Active; 'I' for Inactive)
REMARK    1  A    between atoms: S_2  and  N_4
REMARK    2  A    between atoms: S_2  and  C_10
REMARK    3  A    between atoms: N_4  and  C_5
REMARK    4  A    between atoms: C_13  and  O_14
REMARK    5  A    between atoms: O_14  and  C_15
REMARK    6  A    between atoms: C_20  and  C_21
REMARK                            x       y       z     vdW  Elec       q    Type
REMARK                         _______ _______ _______ _____ _____    ______ ____
ROOT
ATOM      1  C   UNL     1       1.094   9.372  19.604  0.00  0.00    +0.000 A 
ATOM      2  C   UNL     1       1.046   8.589  20.765  0.00  0.00    +0.000 A 
ATOM      3  C   UNL     1       1.719   7.364  20.802  0.00  0.00    +0.000 A 
ATOM      4  C   UNL     1       2.445   6.932  19.690  0.00  0.00    +0.000 A 
ATOM      5  C   UNL     1       2.423   7.696  18.517  0.00  0.00    +0.000 A 
ATOM      6  F   UNL     1       3.044   7.269  17.407  0.00  0.00    +0.000 F 
ATOM      7  C   UNL     1       1.786   8.930  18.476  0.00  0.00    +0.000 A 
ENDROOT
BRANCH   1   9
ATOM      8  O   UNL     1      -1.132  10.706  19.388  0.00  0.00    +0.000 OA
ATOM      9  S   UNL     1       0.282  10.961  19.556  0.00  0.00    +0.000 S 
ATOM     10  O   UNL     1       1.015  11.801  18.630  0.00  0.00    +0.000 OA
BRANCH   9  11
ATOM     11  N   UNL     1       0.493  11.556  21.124  0.00  0.00    +0.000 N 
ATOM     12  H   UNL     1       1.236  12.253  21.094  0.00  0.00    +0.000 HD
BRANCH  11  13
ATOM     13  C   UNL     1      -0.636  12.000  21.803  0.00  0.00    +0.000 A 
ATOM     14  C   UNL     1      -1.308  11.339  22.809  0.00  0.00    +0.000 A 
ATOM     15  S   UNL     1      -2.703  12.230  23.260  0.00  0.00    +0.000 S 
ATOM     16  C   UNL     1      -2.287  13.417  22.093  0.00  0.00    +0.000 A 
ATOM     17  N   UNL     1      -1.170  13.211  21.431  0.00  0.00    +0.000 NA
ENDBRANCH  11  13
ENDBRANCH   9  11
ENDBRANCH   1   9
BRANCH   4  18
ATOM     18  O   UNL     1       3.127   5.744  19.822  0.00  0.00    +0.000 OA
BRANCH  18  19
ATOM     19  C   UNL     1       2.544   4.566  19.379  0.00  0.00    +0.000 A 
ATOM     20  C   UNL     1       1.297   4.132  19.865  0.00  0.00    +0.000 A 
ATOM     21  C   UNL     1       0.782   2.888  19.515  0.00  0.00    +0.000 A 
ATOM     22  C   UNL     1       1.466   2.098  18.605  0.00  0.00    +0.000 A 
ATOM     23  C   UNL     1       2.649   2.569  18.027  0.00  0.00    +0.000 A 
ATOM     24  C   UNL     1       3.230   3.808  18.392  0.00  0.00    +0.000 A 
BRANCH  24  25
ATOM     25  C   UNL     1       4.506   4.233  17.741  0.00  0.00    +0.000 A 
ATOM     26  C   UNL     1       4.604   4.465  16.358  0.00  0.00    +0.000 A 
ATOM     27  C   UNL     1       5.805   4.870  15.760  0.00  0.00    +0.000 A 
ATOM     28  C   UNL     1       6.953   5.022  16.530  0.00  0.00    +0.000 A 
ATOM     29  C   UNL     1       6.900   4.769  17.895  0.00  0.00    +0.000 A 
ATOM     30  C   UNL     1       5.691   4.389  18.491  0.00  0.00    +0.000 A 
ENDBRANCH  24  25
ENDBRANCH  18  19
ENDBRANCH   4  18
TORSDOF 6
ENDMDL
MODEL 9
REMARK VINA RESULT:      -8.6      1.971      2.719
REMARK  Name = 
REMARK  6 active torsions:
REMARK  status: ('A' for Active; 'I' for Inactive)
REMARK    1  A    between atoms: S_2  and  N_4
REMARK    2  A    between atoms: S_2  and  C_10
REMARK    3  A    between atoms: N_4  and  C_5
REMARK    4  A    between atoms: C_13  and  O_14
REMARK    5  A    between atoms: O_14  and  C_15
REMARK    6  A    between atoms: C_20  and  C_21
REMARK                            x       y       z     vdW  Elec       q    Type
REMARK                         _______ _______ _______ _____ _____    ______ ____
ROOT
ATOM      1  C   UNL     1       1.134   9.476  19.256  0.00  0.00    +0.000 A 
ATOM      2  C   UNL     1       1.051   8.775  20.466  0.00  0.00    +0.000 A 
ATOM      3  C   UNL     1       1.724   7.558  20.608  0.00  0.00    +0.000 A 
ATOM      4  C   UNL     1       2.486   7.053  19.551  0.00  0.00    +0.000 A 
ATOM      5  C   UNL     1       2.498   7.734  18.328  0.00  0.00    +0.000 A 
ATOM      6  F   UNL     1       3.154   7.234  17.269  0.00  0.00    +0.000 F 
ATOM      7  C   UNL     1       1.860   8.959  18.182  0.00  0.00    +0.000 A 
ENDROOT
BRANCH   1   9
ATOM      8  O   UNL     1       0.181  11.613  20.400  0.00  0.00    +0.000 OA
ATOM      9  S   UNL     1       0.320  11.055  19.073  0.00  0.00    +0.000 S 
ATOM     10  O   UNL     1      -0.829  10.859  18.210  0.00  0.00    +0.000 OA
BRANCH   9  11
ATOM     11  N   UNL     1       1.466  11.994  18.259  0.00  0.00    +0.000 N 
ATOM     12  H   UNL     1       1.241  11.966  17.266  0.00  0.00    +0.000 HD
BRANCH  11  13
ATOM     13  C   UNL     1       1.692  13.284  18.726  0.00  0.00    +0.000 A 
ATOM     14  C   UNL     1       2.815  13.739  19.385  0.00  0.00    +0.000 A 
ATOM     15  S   UNL     1       2.587  15.371  19.860  0.00  0.00    +0.000 S 
ATOM     16  C   UNL     1       1.030  15.334  19.143  0.00  0.00    +0.000 A 
ATOM     17  N   UNL     1       0.695  14.211  18.545  0.00  0.00    +0.000 NA
ENDBRANCH  11  13
ENDBRANCH   9  11
ENDBRANCH   1   9
BRANCH   4  18
ATOM     18  O   UNL     1       3.166   5.879  19.786  0.00  0.00    +0.000 OA
BRANCH  18  19
ATOM     19  C   UNL     1       2.580   4.669  19.446  0.00  0.00    +0.000 A 
ATOM     20  C   UNL     1       1.333   4.281  19.967  0.00  0.00    +0.000 A 
ATOM     21  C   UNL     1       0.816   3.012  19.725  0.00  0.00    +0.000 A 
ATOM     22  C   UNL     1       1.498   2.145  18.887  0.00  0.00    +0.000 A 
ATOM     23  C   UNL     1       2.682   2.563  18.272  0.00  0.00    +0.000 A 
ATOM     24  C   UNL     1       3.266   3.827  18.529  0.00  0.00    +0.000 A 
BRANCH  24  25
ATOM     25  C   UNL     1       4.543   4.192  17.845  0.00  0.00    +0.000 A 
ATOM     26  C   UNL     1       5.732   4.437  18.554  0.00  0.00    +0.000 A 
ATOM     27  C   UNL     1       6.926   4.771  17.901  0.00  0.00    +0.000 A 
ATOM     28  C   UNL     1       6.953   4.903  16.516  0.00  0.00    +0.000 A 
ATOM     29  C   UNL     1       5.787   4.701  15.788  0.00  0.00    +0.000 A 
ATOM     30  C   UNL     1       4.604   4.342  16.444  0.00  0.00    +0.000 A 
ENDBRANCH  24  25
ENDBRANCH  18  19
ENDBRANCH   4  18
TORSDOF 6
ENDMDL
