MODEL 1
REMARK VINA RESULT:      -8.2      0.000      0.000
REMARK  Name = 
REMARK  4 active torsions:
REMARK  status: ('A' for Active; 'I' for Inactive)
REMARK    1  A    between atoms: C_1  and  C_2
REMARK    2  A    between atoms: C_8  and  C_9
REMARK    3  A    between atoms: C_15  and  C_17
REMARK    4  A    between atoms: C_24  and  C_25
REMARK                            x       y       z     vdW  Elec       q    Type
REMARK                         _______ _______ _______ _____ _____    ______ ____
ROOT
ATOM      1  C   UNL     1       2.263   6.690  19.817  0.00  0.00    +0.000 C 
ATOM      2  O   UNL     1       2.043   5.989  20.805  0.00  0.00    +0.000 OA
ATOM      3  N   UNL     1       1.718   7.977  19.728  0.00  0.00    +0.000 N 
ATOM      4  C   UNL     1       1.779   8.847  18.541  0.00  0.00    +0.000 C 
ATOM      5  C   UNL     1       0.498   9.667  18.347  0.00  0.00    +0.000 C 
ATOM      6  N   UNL     1       0.094  10.327  19.584  0.00  0.00    +0.000 N 
ATOM      7  C   UNL     1      -0.367  11.642  19.524  0.00  0.00    +0.000 C 
ATOM      8  O   UNL     1      -0.519  12.202  18.434  0.00  0.00    +0.000 OA
ATOM      9  C   UNL     1      -0.049   9.407  20.722  0.00  0.00    +0.000 C 
ATOM     10  C   UNL     1       1.250   8.629  20.957  0.00  0.00    +0.000 C 
ENDROOT
BRANCH   1  18
ATOM     11  C   UNL     1       6.389   3.697  14.335  0.00  0.00    +0.000 C 
ATOM     12  C   UNL     1       5.859   4.588  15.420  0.00  0.00    +0.000 A 
ATOM     13  C   UNL     1       6.634   5.646  15.915  0.00  0.00    +0.000 A 
ATOM     14  C   UNL     1       6.174   6.448  16.963  0.00  0.00    +0.000 A 
ATOM     15 CL   UNL     1       7.121   7.747  17.563  0.00  0.00    +0.000 Cl
ATOM     16  C   UNL     1       4.924   6.141  17.491  0.00  0.00    +0.000 A 
ATOM     17  O   UNL     1       4.326   6.760  18.537  0.00  0.00    +0.000 OA
ATOM     18  C   UNL     1       3.090   6.205  18.720  0.00  0.00    +0.000 A 
ATOM     19  C   UNL     1       2.910   5.173  17.803  0.00  0.00    +0.000 A 
ATOM     20  C   UNL     1       1.734   4.278  17.653  0.00  0.00    +0.000 C 
ATOM     21  C   UNL     1       4.104   5.130  17.014  0.00  0.00    +0.000 A 
ATOM     22  C   UNL     1       4.579   4.336  15.952  0.00  0.00    +0.000 A 
ENDBRANCH   1  18
BRANCH   7  23
ATOM     23  C   UNL     1      -0.673  12.335  20.759  0.00  0.00    +0.000 A 
ATOM     24  C   UNL     1       0.149  13.065  21.596  0.00  0.00    +0.000 A 
ATOM     25  C   UNL     1      -0.652  13.528  22.664  0.00  0.00    +0.000 A 
ATOM     26  C   UNL     1      -1.905  13.009  22.449  0.00  0.00    +0.000 A 
ATOM     27  O   UNL     1      -1.924  12.263  21.314  0.00  0.00    +0.000 OA
ENDBRANCH   7  23
TORSDOF 2
ENDMDL
MODEL 2
REMARK VINA RESULT:      -7.5      2.403      3.512
REMARK  Name = 
REMARK  4 active torsions:
REMARK  status: ('A' for Active; 'I' for Inactive)
REMARK    1  A    between atoms: C_1  and  C_2
REMARK    2  A    between atoms: C_8  and  C_9
REMARK    3  A    between atoms: C_15  and  C_17
REMARK    4  A    between atoms: C_24  and  C_25
REMARK                            x       y       z     vdW  Elec       q    Type
REMARK                         _______ _______ _______ _____ _____    ______ ____
ROOT
ATOM      1  C   UNL     1       2.280   8.274  18.205  0.00  0.00    +0.000 C 
ATOM      2  O   UNL     1       2.590   8.982  17.247  0.00  0.00    +0.000 OA
ATOM      3  N   UNL     1       1.558   8.812  19.278  0.00  0.00    +0.000 N 
ATOM      4  C   UNL     1       1.263   8.114  20.542  0.00  0.00    +0.000 C 
ATOM      5  C   UNL     1       1.312   9.051  21.755  0.00  0.00    +0.000 C 
ATOM      6  N   UNL     1       0.542  10.268  21.521  0.00  0.00    +0.000 N 
ATOM      7  C   UNL     1      -0.254  10.768  22.551  0.00  0.00    +0.000 C 
ATOM      8  O   UNL     1      -0.232  10.243  23.668  0.00  0.00    +0.000 OA
ATOM      9  C   UNL     1       0.934  10.985  20.299  0.00  0.00    +0.000 C 
ATOM     10  C   UNL     1       0.830  10.070  19.075  0.00  0.00    +0.000 C 
ENDROOT
BRANCH   1  18
ATOM     11  C   UNL     1       4.278   1.065  17.915  0.00  0.00    +0.000 C 
ATOM     12  C   UNL     1       3.627   2.369  18.274  0.00  0.00    +0.000 A 
ATOM     13  C   UNL     1       2.521   2.400  19.134  0.00  0.00    +0.000 A 
ATOM     14  C   UNL     1       1.873   3.602  19.432  0.00  0.00    +0.000 A 
ATOM     15 CL   UNL     1       0.523   3.638  20.490  0.00  0.00    +0.000 Cl
ATOM     16  C   UNL     1       2.371   4.754  18.831  0.00  0.00    +0.000 A 
ATOM     17  O   UNL     1       1.856   6.001  18.949  0.00  0.00    +0.000 OA
ATOM     18  C   UNL     1       2.653   6.866  18.252  0.00  0.00    +0.000 A 
ATOM     19  C   UNL     1       3.674   6.152  17.632  0.00  0.00    +0.000 A 
ATOM     20  C   UNL     1       4.752   6.674  16.754  0.00  0.00    +0.000 C 
ATOM     21  C   UNL     1       3.483   4.782  18.003  0.00  0.00    +0.000 A 
ATOM     22  C   UNL     1       4.129   3.564  17.719  0.00  0.00    +0.000 A 
ENDBRANCH   1  18
BRANCH   7  23
ATOM     23  C   UNL     1      -1.097  11.918  22.292  0.00  0.00    +0.000 A 
ATOM     24  C   UNL     1      -1.132  13.152  22.913  0.00  0.00    +0.000 A 
ATOM     25  C   UNL     1      -2.140  13.909  22.275  0.00  0.00    +0.000 A 
ATOM     26  C   UNL     1      -2.701  13.076  21.337  0.00  0.00    +0.000 A 
ATOM     27  O   UNL     1      -2.097  11.860  21.356  0.00  0.00    +0.000 OA
ENDBRANCH   7  23
TORSDOF 2
ENDMDL
MODEL 3
REMARK VINA RESULT:      -7.0      2.863      8.504
REMARK  Name = 
REMARK  4 active torsions:
REMARK  status: ('A' for Active; 'I' for Inactive)
REMARK    1  A    between atoms: C_1  and  C_2
REMARK    2  A    between atoms: C_8  and  C_9
REMARK    3  A    between atoms: C_15  and  C_17
REMARK    4  A    between atoms: C_24  and  C_25
REMARK                            x       y       z     vdW  Elec       q    Type
REMARK                         _______ _______ _______ _____ _____    ______ ____
ROOT
ATOM      1  C   UNL     1       0.975   9.232  21.046  0.00  0.00    +0.000 C 
ATOM      2  O   UNL     1       0.711   8.875  22.195  0.00  0.00    +0.000 OA
ATOM      3  N   UNL     1       1.511   8.320  20.129  0.00  0.00    +0.000 N 
ATOM      4  C   UNL     1       2.010   8.658  18.784  0.00  0.00    +0.000 C 
ATOM      5  C   UNL     1       3.244   7.836  18.392  0.00  0.00    +0.000 C 
ATOM      6  N   UNL     1       3.039   6.413  18.641  0.00  0.00    +0.000 N 
ATOM      7  C   UNL     1       3.487   5.495  17.692  0.00  0.00    +0.000 C 
ATOM      8  O   UNL     1       4.128   5.874  16.708  0.00  0.00    +0.000 OA
ATOM      9  C   UNL     1       2.635   6.111  20.022  0.00  0.00    +0.000 C 
ATOM     10  C   UNL     1       1.368   6.884  20.398  0.00  0.00    +0.000 C 
ENDROOT
BRANCH   1  18
ATOM     11  C   UNL     1      -0.309  16.087  18.326  0.00  0.00    +0.000 C 
ATOM     12  C   UNL     1       0.215  14.921  19.113  0.00  0.00    +0.000 A 
ATOM     13  C   UNL     1       1.323  15.073  19.958  0.00  0.00    +0.000 A 
ATOM     14  C   UNL     1       1.853  13.983  20.654  0.00  0.00    +0.000 A 
ATOM     15 CL   UNL     1       3.205  14.173  21.693  0.00  0.00    +0.000 Cl
ATOM     16  C   UNL     1       1.237  12.751  20.461  0.00  0.00    +0.000 A 
ATOM     17  O   UNL     1       1.628  11.571  20.999  0.00  0.00    +0.000 OA
ATOM     18  C   UNL     1       0.742  10.603  20.613  0.00  0.00    +0.000 A 
ATOM     19  C   UNL     1      -0.210  11.165  19.768  0.00  0.00    +0.000 A 
ATOM     20  C   UNL     1      -1.345  10.486  19.091  0.00  0.00    +0.000 C 
ATOM     21  C   UNL     1       0.118  12.555  19.666  0.00  0.00    +0.000 A 
ATOM     22  C   UNL     1      -0.409  13.664  18.978  0.00  0.00    +0.000 A 
ENDBRANCH   1  18
BRANCH   7  23
ATOM     23  C   UNL     1       3.197   4.088  17.887  0.00  0.00    +0.000 A 
ATOM     24  C   UNL     1       2.014   3.393  17.719  0.00  0.00    +0.000 A 
ATOM     25  C   UNL     1       2.276   2.044  18.044  0.00  0.00    +0.000 A 
ATOM     26  C   UNL     1       3.589   2.000  18.445  0.00  0.00    +0.000 A 
ATOM     27  O   UNL     1       4.149   3.235  18.380  0.00  0.00    +0.000 OA
ENDBRANCH   7  23
TORSDOF 2
ENDMDL
MODEL 4
REMARK VINA RESULT:      -6.9      6.703      9.130
REMARK  Name = 
REMARK  4 active torsions:
REMARK  status: ('A' for Active; 'I' for Inactive)
REMARK    1  A    between atoms: C_1  and  C_2
REMARK    2  A    between atoms: C_8  and  C_9
REMARK    3  A    between atoms: C_15  and  C_17
REMARK    4  A    between atoms: C_24  and  C_25
REMARK                            x       y       z     vdW  Elec       q    Type
REMARK                         _______ _______ _______ _____ _____    ______ ____
ROOT
ATOM      1  C   UNL     1       0.133  12.620  20.548  0.00  0.00    +0.000 C 
ATOM      2  O   UNL     1       0.512  12.020  21.554  0.00  0.00    +0.000 OA
ATOM      3  N   UNL     1       0.998  13.494  19.878  0.00  0.00    +0.000 N 
ATOM      4  C   UNL     1       0.618  14.380  18.764  0.00  0.00    +0.000 C 
ATOM      5  C   UNL     1       1.340  15.732  18.817  0.00  0.00    +0.000 C 
ATOM      6  N   UNL     1       2.775  15.564  19.018  0.00  0.00    +0.000 N 
ATOM      7  C   UNL     1       3.654  16.366  18.289  0.00  0.00    +0.000 C 
ATOM      8  O   UNL     1       3.222  17.264  17.562  0.00  0.00    +0.000 OA
ATOM      9  C   UNL     1       3.112  14.752  20.197  0.00  0.00    +0.000 C 
ATOM     10  C   UNL     1       2.441  13.377  20.119  0.00  0.00    +0.000 C 
ENDROOT
BRANCH   1  18
ATOM     11  C   UNL     1      -6.965  11.613  18.390  0.00  0.00    +0.000 C 
ATOM     12  C   UNL     1      -5.465  11.636  18.455  0.00  0.00    +0.000 A 
ATOM     13  C   UNL     1      -4.700  10.944  17.506  0.00  0.00    +0.000 A 
ATOM     14  C   UNL     1      -3.306  10.913  17.588  0.00  0.00    +0.000 A 
ATOM     15 CL   UNL     1      -2.372  10.070  16.422  0.00  0.00    +0.000 Cl
ATOM     16  C   UNL     1      -2.721  11.590  18.653  0.00  0.00    +0.000 A 
ATOM     17  O   UNL     1      -1.397  11.637  18.938  0.00  0.00    +0.000 OA
ATOM     18  C   UNL     1      -1.217  12.440  20.030  0.00  0.00    +0.000 A 
ATOM     19  C   UNL     1      -2.457  12.879  20.486  0.00  0.00    +0.000 A 
ATOM     20  C   UNL     1      -2.745  13.746  21.657  0.00  0.00    +0.000 C 
ATOM     21  C   UNL     1      -3.429  12.319  19.596  0.00  0.00    +0.000 A 
ATOM     22  C   UNL     1      -4.833  12.347  19.495  0.00  0.00    +0.000 A 
ENDBRANCH   1  18
BRANCH   7  23
ATOM     23  C   UNL     1       5.079  16.134  18.411  0.00  0.00    +0.000 A 
ATOM     24  C   UNL     1       6.057  16.905  19.011  0.00  0.00    +0.000 A 
ATOM     25  C   UNL     1       7.283  16.222  18.846  0.00  0.00    +0.000 A 
ATOM     26  C   UNL     1       6.994  15.100  18.107  0.00  0.00    +0.000 A 
ATOM     27  O   UNL     1       5.669  15.050  17.814  0.00  0.00    +0.000 OA
ENDBRANCH   7  23
TORSDOF 2
ENDMDL
MODEL 5
REMARK VINA RESULT:      -6.6      6.457      9.382
REMARK  Name = 
REMARK  4 active torsions:
REMARK  status: ('A' for Active; 'I' for Inactive)
REMARK    1  A    between atoms: C_1  and  C_2
REMARK    2  A    between atoms: C_8  and  C_9
REMARK    3  A    between atoms: C_15  and  C_17
REMARK    4  A    between atoms: C_24  and  C_25
REMARK                            x       y       z     vdW  Elec       q    Type
REMARK                         _______ _______ _______ _____ _____    ______ ____
ROOT
ATOM      1  C   UNL     1       0.130  12.401  20.621  0.00  0.00    +0.000 C 
ATOM      2  O   UNL     1       0.558  11.750  21.574  0.00  0.00    +0.000 OA
ATOM      3  N   UNL     1       0.969  13.292  19.940  0.00  0.00    +0.000 N 
ATOM      4  C   UNL     1       0.539  14.234  18.891  0.00  0.00    +0.000 C 
ATOM      5  C   UNL     1       1.288  15.571  18.962  0.00  0.00    +0.000 C 
ATOM      6  N   UNL     1       2.729  15.372  19.068  0.00  0.00    +0.000 N 
ATOM      7  C   UNL     1       3.577  16.193  18.324  0.00  0.00    +0.000 C 
ATOM      8  O   UNL     1       3.119  17.130  17.665  0.00  0.00    +0.000 OA
ATOM      9  C   UNL     1       3.121  14.502  20.186  0.00  0.00    +0.000 C 
ATOM     10  C   UNL     1       2.422  13.143  20.087  0.00  0.00    +0.000 C 
ENDROOT
BRANCH   1  18
ATOM     11  C   UNL     1      -6.792  11.760  17.843  0.00  0.00    +0.000 C 
ATOM     12  C   UNL     1      -5.608  12.076  18.710  0.00  0.00    +0.000 A 
ATOM     13  C   UNL     1      -5.745  12.914  19.826  0.00  0.00    +0.000 A 
ATOM     14  C   UNL     1      -4.641  13.259  20.609  0.00  0.00    +0.000 A 
ATOM     15 CL   UNL     1      -4.813  14.279  21.977  0.00  0.00    +0.000 Cl
ATOM     16  C   UNL     1      -3.408  12.742  20.223  0.00  0.00    +0.000 A 
ATOM     17  O   UNL     1      -2.216  12.997  20.814  0.00  0.00    +0.000 OA
ATOM     18  C   UNL     1      -1.251  12.266  20.178  0.00  0.00    +0.000 A 
ATOM     19  C   UNL     1      -1.828  11.564  19.124  0.00  0.00    +0.000 A 
ATOM     20  C   UNL     1      -1.158  10.667  18.148  0.00  0.00    +0.000 C 
ATOM     21  C   UNL     1      -3.224  11.881  19.152  0.00  0.00    +0.000 A 
ATOM     22  C   UNL     1      -4.349  11.537  18.378  0.00  0.00    +0.000 A 
ENDBRANCH   1  18
BRANCH   7  23
ATOM     23  C   UNL     1       5.002  15.934  18.349  0.00  0.00    +0.000 A 
ATOM     24  C   UNL     1       6.026  16.650  18.941  0.00  0.00    +0.000 A 
ATOM     25  C   UNL     1       7.228  15.963  18.662  0.00  0.00    +0.000 A 
ATOM     26  C   UNL     1       6.879  14.897  17.869  0.00  0.00    +0.000 A 
ATOM     27  O   UNL     1       5.539  14.884  17.649  0.00  0.00    +0.000 OA
ENDBRANCH   7  23
TORSDOF 2
ENDMDL
MODEL 6
REMARK VINA RESULT:      -6.6      6.163      8.994
REMARK  Name = 
REMARK  4 active torsions:
REMARK  status: ('A' for Active; 'I' for Inactive)
REMARK    1  A    between atoms: C_1  and  C_2
REMARK    2  A    between atoms: C_8  and  C_9
REMARK    3  A    between atoms: C_15  and  C_17
REMARK    4  A    between atoms: C_24  and  C_25
REMARK                            x       y       z     vdW  Elec       q    Type
REMARK                         _______ _______ _______ _____ _____    ______ ____
ROOT
ATOM      1  C   UNL     1       0.401  11.870  19.156  0.00  0.00    +0.000 C 
ATOM      2  O   UNL     1       0.986  10.833  19.469  0.00  0.00    +0.000 OA
ATOM      3  N   UNL     1       1.107  13.074  19.048  0.00  0.00    +0.000 N 
ATOM      4  C   UNL     1       0.502  14.401  18.835  0.00  0.00    +0.000 C 
ATOM      5  C   UNL     1       1.234  15.510  19.599  0.00  0.00    +0.000 C 
ATOM      6  N   UNL     1       2.676  15.442  19.388  0.00  0.00    +0.000 N 
ATOM      7  C   UNL     1       3.382  16.629  19.187  0.00  0.00    +0.000 C 
ATOM      8  O   UNL     1       2.811  17.719  19.283  0.00  0.00    +0.000 OA
ATOM      9  C   UNL     1       3.255  14.128  19.705  0.00  0.00    +0.000 C 
ATOM     10  C   UNL     1       2.567  13.023  18.898  0.00  0.00    +0.000 C 
ENDROOT
BRANCH   1  18
ATOM     11  C   UNL     1      -7.031  11.662  18.283  0.00  0.00    +0.000 C 
ATOM     12  C   UNL     1      -5.549  11.647  18.046  0.00  0.00    +0.000 A 
ATOM     13  C   UNL     1      -5.031  11.275  16.797  0.00  0.00    +0.000 A 
ATOM     14  C   UNL     1      -3.652  11.206  16.581  0.00  0.00    +0.000 A 
ATOM     15 CL   UNL     1      -3.020  10.757  15.050  0.00  0.00    +0.000 Cl
ATOM     16  C   UNL     1      -2.827  11.512  17.659  0.00  0.00    +0.000 A 
ATOM     17  O   UNL     1      -1.474  11.453  17.670  0.00  0.00    +0.000 OA
ATOM     18  C   UNL     1      -1.032  11.875  18.894  0.00  0.00    +0.000 A 
ATOM     19  C   UNL     1      -2.127  12.164  19.703  0.00  0.00    +0.000 A 
ATOM     20  C   UNL     1      -2.124  12.627  21.114  0.00  0.00    +0.000 C 
ATOM     21  C   UNL     1      -3.289  11.919  18.902  0.00  0.00    +0.000 A 
ATOM     22  C   UNL     1      -4.681  11.992  19.101  0.00  0.00    +0.000 A 
ENDBRANCH   1  18
BRANCH   7  23
ATOM     23  C   UNL     1       4.796  16.559  18.878  0.00  0.00    +0.000 A 
ATOM     24  C   UNL     1       5.543  15.517  18.362  0.00  0.00    +0.000 A 
ATOM     25  C   UNL     1       6.875  15.974  18.254  0.00  0.00    +0.000 A 
ATOM     26  C   UNL     1       6.878  17.251  18.762  0.00  0.00    +0.000 A 
ATOM     27  O   UNL     1       5.632  17.606  19.168  0.00  0.00    +0.000 OA
ENDBRANCH   7  23
TORSDOF 2
ENDMDL
MODEL 7
REMARK VINA RESULT:      -6.5      2.684      9.036
REMARK  Name = 
REMARK  4 active torsions:
REMARK  status: ('A' for Active; 'I' for Inactive)
REMARK    1  A    between atoms: C_1  and  C_2
REMARK    2  A    between atoms: C_8  and  C_9
REMARK    3  A    between atoms: C_15  and  C_17
REMARK    4  A    between atoms: C_24  and  C_25
REMARK                            x       y       z     vdW  Elec       q    Type
REMARK                         _______ _______ _______ _____ _____    ______ ____
ROOT
ATOM      1  C   UNL     1       1.263   9.753  18.355  0.00  0.00    +0.000 C 
ATOM      2  O   UNL     1       1.359  10.256  17.236  0.00  0.00    +0.000 OA
ATOM      3  N   UNL     1       2.043   8.642  18.699  0.00  0.00    +0.000 N 
ATOM      4  C   UNL     1       1.910   7.861  19.942  0.00  0.00    +0.000 C 
ATOM      5  C   UNL     1       2.143   6.361  19.720  0.00  0.00    +0.000 C 
ATOM      6  N   UNL     1       3.363   6.117  18.957  0.00  0.00    +0.000 N 
ATOM      7  C   UNL     1       4.199   5.070  19.344  0.00  0.00    +0.000 C 
ATOM      8  O   UNL     1       3.863   4.306  20.254  0.00  0.00    +0.000 OA
ATOM      9  C   UNL     1       3.411   6.842  17.679  0.00  0.00    +0.000 C 
ATOM     10  C   UNL     1       3.239   8.348  17.902  0.00  0.00    +0.000 C 
ENDROOT
BRANCH   1  18
ATOM     11  C   UNL     1      -3.400  13.009  23.223  0.00  0.00    +0.000 C 
ATOM     12  C   UNL     1      -2.380  12.116  22.577  0.00  0.00    +0.000 A 
ATOM     13  C   UNL     1      -1.616  11.231  23.350  0.00  0.00    +0.000 A 
ATOM     14  C   UNL     1      -0.627  10.435  22.767  0.00  0.00    +0.000 A 
ATOM     15 CL   UNL     1       0.302   9.347  23.713  0.00  0.00    +0.000 Cl
ATOM     16  C   UNL     1      -0.434  10.571  21.395  0.00  0.00    +0.000 A 
ATOM     17  O   UNL     1       0.504   9.933  20.655  0.00  0.00    +0.000 OA
ATOM     18  C   UNL     1       0.341  10.293  19.346  0.00  0.00    +0.000 A 
ATOM     19  C   UNL     1      -0.691  11.221  19.250  0.00  0.00    +0.000 A 
ATOM     20  C   UNL     1      -1.197  11.903  18.032  0.00  0.00    +0.000 C 
ATOM     21  C   UNL     1      -1.186  11.404  20.582  0.00  0.00    +0.000 A 
ATOM     22  C   UNL     1      -2.184  12.194  21.183  0.00  0.00    +0.000 A 
ENDBRANCH   1  18
BRANCH   7  23
ATOM     23  C   UNL     1       5.459   4.886  18.653  0.00  0.00    +0.000 A 
ATOM     24  C   UNL     1       5.715   4.402  17.384  0.00  0.00    +0.000 A 
ATOM     25  C   UNL     1       7.116   4.430  17.204  0.00  0.00    +0.000 A 
ATOM     26  C   UNL     1       7.641   4.878  18.392  0.00  0.00    +0.000 A 
ATOM     27  O   UNL     1       6.650   5.131  19.286  0.00  0.00    +0.000 OA
ENDBRANCH   7  23
TORSDOF 2
ENDMDL
MODEL 8
REMARK VINA RESULT:      -6.5      8.092     11.756
REMARK  Name = 
REMARK  4 active torsions:
REMARK  status: ('A' for Active; 'I' for Inactive)
REMARK    1  A    between atoms: C_1  and  C_2
REMARK    2  A    between atoms: C_8  and  C_9
REMARK    3  A    between atoms: C_15  and  C_17
REMARK    4  A    between atoms: C_24  and  C_25
REMARK                            x       y       z     vdW  Elec       q    Type
REMARK                         _______ _______ _______ _____ _____    ______ ____
ROOT
ATOM      1  C   UNL     1       5.414  17.357  19.650  0.00  0.00    +0.000 C 
ATOM      2  O   UNL     1       5.962  18.433  19.887  0.00  0.00    +0.000 OA
ATOM      3  N   UNL     1       6.178  16.237  19.301  0.00  0.00    +0.000 N 
ATOM      4  C   UNL     1       5.635  14.944  18.847  0.00  0.00    +0.000 C 
ATOM      5  C   UNL     1       6.502  14.293  17.762  0.00  0.00    +0.000 C 
ATOM      6  N   UNL     1       7.911  14.279  18.139  0.00  0.00    +0.000 N 
ATOM      7  C   UNL     1       8.664  13.135  17.880  0.00  0.00    +0.000 C 
ATOM      8  O   UNL     1       8.172  12.190  17.258  0.00  0.00    +0.000 OA
ATOM      9  C   UNL     1       8.437  15.606  18.492  0.00  0.00    +0.000 C 
ATOM     10  C   UNL     1       7.611  16.236  19.618  0.00  0.00    +0.000 C 
ENDROOT
BRANCH   1  18
ATOM     11  C   UNL     1      -1.952  16.161  20.243  0.00  0.00    +0.000 C 
ATOM     12  C   UNL     1      -0.595  16.608  19.784  0.00  0.00    +0.000 A 
ATOM     13  C   UNL     1      -0.428  17.199  18.524  0.00  0.00    +0.000 A 
ATOM     14  C   UNL     1       0.838  17.571  18.064  0.00  0.00    +0.000 A 
ATOM     15 CL   UNL     1       1.039  18.300  16.524  0.00  0.00    +0.000 Cl
ATOM     16  C   UNL     1       1.915  17.318  18.908  0.00  0.00    +0.000 A 
ATOM     17  O   UNL     1       3.220  17.553  18.628  0.00  0.00    +0.000 OA
ATOM     18  C   UNL     1       3.965  17.218  19.724  0.00  0.00    +0.000 A 
ATOM     19  C   UNL     1       3.126  16.711  20.712  0.00  0.00    +0.000 A 
ATOM     20  C   UNL     1       3.501  16.200  22.055  0.00  0.00    +0.000 C 
ATOM     21  C   UNL     1       1.800  16.770  20.176  0.00  0.00    +0.000 A 
ATOM     22  C   UNL     1       0.516  16.409  20.628  0.00  0.00    +0.000 A 
ENDBRANCH   1  18
BRANCH   7  23
ATOM     23  C   UNL     1      10.037  13.079  18.343  0.00  0.00    +0.000 A 
ATOM     24  C   UNL     1      10.540  12.797  19.599  0.00  0.00    +0.000 A 
ATOM     25  C   UNL     1      11.947  12.877  19.510  0.00  0.00    +0.000 A 
ATOM     26  C   UNL     1      12.223  13.258  18.219  0.00  0.00    +0.000 A 
ATOM     27  O   UNL     1      11.074  13.410  17.511  0.00  0.00    +0.000 OA
ENDBRANCH   7  23
TORSDOF 2
ENDMDL
MODEL 9
REMARK VINA RESULT:      -6.4      5.383      8.153
REMARK  Name = 
REMARK  4 active torsions:
REMARK  status: ('A' for Active; 'I' for Inactive)
REMARK    1  A    between atoms: C_1  and  C_2
REMARK    2  A    between atoms: C_8  and  C_9
REMARK    3  A    between atoms: C_15  and  C_17
REMARK    4  A    between atoms: C_24  and  C_25
REMARK                            x       y       z     vdW  Elec       q    Type
REMARK                         _______ _______ _______ _____ _____    ______ ____
ROOT
ATOM      1  C   UNL     1       0.693  12.180  20.610  0.00  0.00    +0.000 C 
ATOM      2  O   UNL     1       0.748  11.742  21.760  0.00  0.00    +0.000 OA
ATOM      3  N   UNL     1       1.546  13.214  20.206  0.00  0.00    +0.000 N 
ATOM      4  C   UNL     1       1.473  13.923  18.917  0.00  0.00    +0.000 C 
ATOM      5  C   UNL     1       1.802  15.415  19.048  0.00  0.00    +0.000 C 
ATOM      6  N   UNL     1       3.030  15.627  19.808  0.00  0.00    +0.000 N 
ATOM      7  C   UNL     1       3.935  16.592  19.366  0.00  0.00    +0.000 C 
ATOM      8  O   UNL     1       3.656  17.317  18.407  0.00  0.00    +0.000 OA
ATOM      9  C   UNL     1       3.022  14.981  21.129  0.00  0.00    +0.000 C 
ATOM     10  C   UNL     1       2.753  13.479  20.997  0.00  0.00    +0.000 C 
ENDROOT
BRANCH   1  18
ATOM     11  C   UNL     1      -3.813   9.494  15.269  0.00  0.00    +0.000 C 
ATOM     12  C   UNL     1      -3.272  10.160  16.501  0.00  0.00    +0.000 A 
ATOM     13  C   UNL     1      -4.103  10.948  17.308  0.00  0.00    +0.000 A 
ATOM     14  C   UNL     1      -3.598  11.617  18.426  0.00  0.00    +0.000 A 
ATOM     15 CL   UNL     1      -4.619  12.576  19.417  0.00  0.00    +0.000 Cl
ATOM     16  C   UNL     1      -2.240  11.471  18.689  0.00  0.00    +0.000 A 
ATOM     17  O   UNL     1      -1.551  12.075  19.687  0.00  0.00    +0.000 OA
ATOM     18  C   UNL     1      -0.256  11.640  19.645  0.00  0.00    +0.000 A 
ATOM     19  C   UNL     1      -0.097  10.776  18.565  0.00  0.00    +0.000 A 
ATOM     20  C   UNL     1       1.142  10.087  18.120  0.00  0.00    +0.000 C 
ATOM     21  C   UNL     1      -1.383  10.675  17.944  0.00  0.00    +0.000 A 
ATOM     22  C   UNL     1      -1.909  10.001  16.826  0.00  0.00    +0.000 A 
ENDBRANCH   1  18
BRANCH   7  23
ATOM     23  C   UNL     1       5.200  16.736  20.058  0.00  0.00    +0.000 A 
ATOM     24  C   UNL     1       5.666  17.767  20.852  0.00  0.00    +0.000 A 
ATOM     25  C   UNL     1       6.963  17.406  21.281  0.00  0.00    +0.000 A 
ATOM     26  C   UNL     1       7.238  16.201  20.680  0.00  0.00    +0.000 A 
ATOM     27  O   UNL     1       6.190  15.799  19.915  0.00  0.00    +0.000 OA
ENDBRANCH   7  23
TORSDOF 2
ENDMDL
