MODEL 1
REMARK VINA RESULT:      -7.5      0.000      0.000
REMARK  Name = 
REMARK  9 active torsions:
REMARK  status: ('A' for Active; 'I' for Inactive)
REMARK    1  A    between atoms: C_1  and  C_2
REMARK    2  A    between atoms: C_2  and  C_3
REMARK    3  A    between atoms: C_3  and  C_4
REMARK    4  A    between atoms: C_4  and  N_5
REMARK    5  A    between atoms: N_5  and  C_6
REMARK    6  A    between atoms: C_6  and  C_7
REMARK    7  A    between atoms: C_7  and  C_8
REMARK    8  A    between atoms: C_8  and  C_9
REMARK    9  A    between atoms: C_10  and  C_12
REMARK                            x       y       z     vdW  Elec       q    Type
REMARK                         _______ _______ _______ _____ _____    ______ ____
ROOT
ATOM      1  N   UNL     1       6.106   4.858  16.230  0.00  0.00    +0.000 N 
ATOM      2  C   UNL     1       4.884   5.409  16.577  0.00  0.00    +0.000 C 
ATOM      3  N   UNL     1       4.657   6.662  16.311  0.00  0.00    +0.000 NA
ATOM      4  H   UNL     1       5.499   7.052  15.886  0.00  0.00    +0.000 HD
ENDROOT
BRANCH   2   5
ATOM      5  C   UNL     1       3.775   4.622  17.263  0.00  0.00    +0.000 A 
ATOM      6  C   UNL     1       3.609   3.307  16.789  0.00  0.00    +0.000 A 
ATOM      7  C   UNL     1       2.716   2.423  17.387  0.00  0.00    +0.000 A 
ATOM      8  C   UNL     1       1.982   2.829  18.493  0.00  0.00    +0.000 A 
ATOM      9  C   UNL     1       2.123   4.127  19.003  0.00  0.00    +0.000 A 
ATOM     10  C   UNL     1       2.991   5.058  18.365  0.00  0.00    +0.000 A 
ATOM     11  C   UNL     1       3.153   6.415  19.003  0.00  0.00    +0.000 C 
ATOM     12  C   UNL     1       2.036   6.829  19.956  0.00  0.00    +0.000 C 
ATOM     13  C   UNL     1       1.795   5.722  20.964  0.00  0.00    +0.000 C 
ATOM     14  C   UNL     1       1.311   4.476  20.235  0.00  0.00    +0.000 C 
ENDBRANCH   2   5
BRANCH   1  15
ATOM     15  C   UNL     1       6.618   4.967  14.844  0.00  0.00    +0.000 C 
BRANCH  15  16
ATOM     16  C   UNL     1       6.303   3.672  14.086  0.00  0.00    +0.000 C 
BRANCH  16  18
ATOM     17  C   UNL     1       4.998   3.383  12.001  0.00  0.00    +0.000 C 
ATOM     18  C   UNL     1       6.385   3.694  12.566  0.00  0.00    +0.000 C 
ENDBRANCH  16  18
ENDBRANCH  15  16
ENDBRANCH   1  15
BRANCH   1  19
ATOM     19  C   UNL     1       7.074   4.550  17.297  0.00  0.00    +0.000 C 
BRANCH  19  20
ATOM     20  C   UNL     1       6.856   5.373  18.576  0.00  0.00    +0.000 C 
BRANCH  20  21
ATOM     21  C   UNL     1       7.920   6.474  18.706  0.00  0.00    +0.000 C 
ATOM     22  C   UNL     1       7.753   7.587  17.679  0.00  0.00    +0.000 C 
ENDBRANCH  20  21
ENDBRANCH  19  20
ENDBRANCH   1  19
TORSDOF 7
ENDMDL
MODEL 2
REMARK VINA RESULT:      -7.3      0.968      1.284
REMARK  Name = 
REMARK  9 active torsions:
REMARK  status: ('A' for Active; 'I' for Inactive)
REMARK    1  A    between atoms: C_1  and  C_2
REMARK    2  A    between atoms: C_2  and  C_3
REMARK    3  A    between atoms: C_3  and  C_4
REMARK    4  A    between atoms: C_4  and  N_5
REMARK    5  A    between atoms: N_5  and  C_6
REMARK    6  A    between atoms: C_6  and  C_7
REMARK    7  A    between atoms: C_7  and  C_8
REMARK    8  A    between atoms: C_8  and  C_9
REMARK    9  A    between atoms: C_10  and  C_12
REMARK                            x       y       z     vdW  Elec       q    Type
REMARK                         _______ _______ _______ _____ _____    ______ ____
ROOT
ATOM      1  N   UNL     1       6.574   5.016  15.623  0.00  0.00    +0.000 N 
ATOM      2  C   UNL     1       5.343   5.607  15.857  0.00  0.00    +0.000 C 
ATOM      3  N   UNL     1       5.063   6.737  15.277  0.00  0.00    +0.000 NA
ATOM      4  H   UNL     1       5.878   7.023  14.732  0.00  0.00    +0.000 HD
ENDROOT
BRANCH   2   5
ATOM      5  C   UNL     1       4.285   5.001  16.769  0.00  0.00    +0.000 A 
ATOM      6  C   UNL     1       4.221   3.595  16.741  0.00  0.00    +0.000 A 
ATOM      7  C   UNL     1       3.384   2.886  17.599  0.00  0.00    +0.000 A 
ATOM      8  C   UNL     1       2.608   3.569  18.524  0.00  0.00    +0.000 A 
ATOM      9  C   UNL     1       2.647   4.969  18.591  0.00  0.00    +0.000 A 
ATOM     10  C   UNL     1       3.455   5.708  17.682  0.00  0.00    +0.000 A 
ATOM     11  C   UNL     1       3.511   7.206  17.852  0.00  0.00    +0.000 C 
ATOM     12  C   UNL     1       2.353   7.820  18.633  0.00  0.00    +0.000 C 
ATOM     13  C   UNL     1       2.178   7.078  19.944  0.00  0.00    +0.000 C 
ATOM     14  C   UNL     1       1.795   5.633  19.656  0.00  0.00    +0.000 C 
ENDBRANCH   2   5
BRANCH   1  15
ATOM     15  C   UNL     1       7.041   4.767  14.239  0.00  0.00    +0.000 C 
BRANCH  15  16
ATOM     16  C   UNL     1       6.127   3.726  13.579  0.00  0.00    +0.000 C 
BRANCH  16  18
ATOM     17  C   UNL     1       5.571   2.228  11.687  0.00  0.00    +0.000 C 
ATOM     18  C   UNL     1       6.193   3.573  12.066  0.00  0.00    +0.000 C 
ENDBRANCH  16  18
ENDBRANCH  15  16
ENDBRANCH   1  15
BRANCH   1  19
ATOM     19  C   UNL     1       7.583   5.030  16.696  0.00  0.00    +0.000 C 
BRANCH  19  20
ATOM     20  C   UNL     1       7.592   6.334  17.510  0.00  0.00    +0.000 C 
BRANCH  20  21
ATOM     21  C   UNL     1       7.677   6.038  19.016  0.00  0.00    +0.000 C 
ATOM     22  C   UNL     1       6.457   5.296  19.546  0.00  0.00    +0.000 C 
ENDBRANCH  20  21
ENDBRANCH  19  20
ENDBRANCH   1  19
TORSDOF 7
ENDMDL
MODEL 3
REMARK VINA RESULT:      -7.3      1.074      3.833
REMARK  Name = 
REMARK  9 active torsions:
REMARK  status: ('A' for Active; 'I' for Inactive)
REMARK    1  A    between atoms: C_1  and  C_2
REMARK    2  A    between atoms: C_2  and  C_3
REMARK    3  A    between atoms: C_3  and  C_4
REMARK    4  A    between atoms: C_4  and  N_5
REMARK    5  A    between atoms: N_5  and  C_6
REMARK    6  A    between atoms: C_6  and  C_7
REMARK    7  A    between atoms: C_7  and  C_8
REMARK    8  A    between atoms: C_8  and  C_9
REMARK    9  A    between atoms: C_10  and  C_12
REMARK                            x       y       z     vdW  Elec       q    Type
REMARK                         _______ _______ _______ _____ _____    ______ ____
ROOT
ATOM      1  N   UNL     1       6.072   4.630  16.342  0.00  0.00    +0.000 N 
ATOM      2  C   UNL     1       5.682   4.167  17.588  0.00  0.00    +0.000 C 
ATOM      3  N   UNL     1       6.577   4.041  18.525  0.00  0.00    +0.000 NA
ATOM      4  H   UNL     1       7.483   4.300  18.132  0.00  0.00    +0.000 HD
ENDROOT
BRANCH   2   5
ATOM      5  C   UNL     1       4.247   3.788  17.929  0.00  0.00    +0.000 A 
ATOM      6  C   UNL     1       3.866   2.498  17.515  0.00  0.00    +0.000 A 
ATOM      7  C   UNL     1       2.626   1.961  17.849  0.00  0.00    +0.000 A 
ATOM      8  C   UNL     1       1.744   2.697  18.629  0.00  0.00    +0.000 A 
ATOM      9  C   UNL     1       2.087   3.983  19.069  0.00  0.00    +0.000 A 
ATOM     10  C   UNL     1       3.328   4.565  18.686  0.00  0.00    +0.000 A 
ATOM     11  C   UNL     1       3.670   5.922  19.251  0.00  0.00    +0.000 C 
ATOM     12  C   UNL     1       2.485   6.736  19.761  0.00  0.00    +0.000 C 
ATOM     13  C   UNL     1       1.658   5.887  20.708  0.00  0.00    +0.000 C 
ATOM     14  C   UNL     1       1.081   4.702  19.946  0.00  0.00    +0.000 C 
ENDBRANCH   2   5
BRANCH   1  15
ATOM     15  C   UNL     1       6.824   5.900  16.210  0.00  0.00    +0.000 C 
BRANCH  15  16
ATOM     16  C   UNL     1       6.606   6.748  17.469  0.00  0.00    +0.000 C 
BRANCH  16  18
ATOM     17  C   UNL     1       7.987   8.781  17.773  0.00  0.00    +0.000 C 
ATOM     18  C   UNL     1       7.831   7.313  18.173  0.00  0.00    +0.000 C 
ENDBRANCH  16  18
ENDBRANCH  15  16
ENDBRANCH   1  15
BRANCH   1  19
ATOM     19  C   UNL     1       6.123   3.681  15.217  0.00  0.00    +0.000 C 
BRANCH  19  20
ATOM     20  C   UNL     1       5.470   4.220  13.934  0.00  0.00    +0.000 C 
BRANCH  20  21
ATOM     21  C   UNL     1       6.005   3.482  12.696  0.00  0.00    +0.000 C 
ATOM     22  C   UNL     1       4.914   3.147  11.687  0.00  0.00    +0.000 C 
ENDBRANCH  20  21
ENDBRANCH  19  20
ENDBRANCH   1  19
TORSDOF 7
ENDMDL
MODEL 4
REMARK VINA RESULT:      -7.3      1.271      4.430
REMARK  Name = 
REMARK  9 active torsions:
REMARK  status: ('A' for Active; 'I' for Inactive)
REMARK    1  A    between atoms: C_1  and  C_2
REMARK    2  A    between atoms: C_2  and  C_3
REMARK    3  A    between atoms: C_3  and  C_4
REMARK    4  A    between atoms: C_4  and  N_5
REMARK    5  A    between atoms: N_5  and  C_6
REMARK    6  A    between atoms: C_6  and  C_7
REMARK    7  A    between atoms: C_7  and  C_8
REMARK    8  A    between atoms: C_8  and  C_9
REMARK    9  A    between atoms: C_10  and  C_12
REMARK                            x       y       z     vdW  Elec       q    Type
REMARK                         _______ _______ _______ _____ _____    ______ ____
ROOT
ATOM      1  N   UNL     1       5.766   5.046  16.759  0.00  0.00    +0.000 N 
ATOM      2  C   UNL     1       5.520   4.686  18.073  0.00  0.00    +0.000 C 
ATOM      3  N   UNL     1       6.469   4.120  18.762  0.00  0.00    +0.000 NA
ATOM      4  H   UNL     1       7.279   4.008  18.151  0.00  0.00    +0.000 HD
ENDROOT
BRANCH   2   5
ATOM      5  C   UNL     1       4.185   4.916  18.769  0.00  0.00    +0.000 A 
ATOM      6  C   UNL     1       3.954   6.245  19.170  0.00  0.00    +0.000 A 
ATOM      7  C   UNL     1       2.737   6.640  19.717  0.00  0.00    +0.000 A 
ATOM      8  C   UNL     1       1.710   5.716  19.854  0.00  0.00    +0.000 A 
ATOM      9  C   UNL     1       1.895   4.384  19.458  0.00  0.00    +0.000 A 
ATOM     10  C   UNL     1       3.154   3.954  18.951  0.00  0.00    +0.000 A 
ATOM     11  C   UNL     1       3.268   2.527  18.476  0.00  0.00    +0.000 C 
ATOM     12  C   UNL     1       2.214   1.569  19.022  0.00  0.00    +0.000 C 
ATOM     13  C   UNL     1       0.834   2.159  18.808  0.00  0.00    +0.000 C 
ATOM     14  C   UNL     1       0.711   3.449  19.608  0.00  0.00    +0.000 C 
ENDBRANCH   2   5
BRANCH   1  15
ATOM     15  C   UNL     1       6.933   5.890  16.413  0.00  0.00    +0.000 C 
BRANCH  15  16
ATOM     16  C   UNL     1       6.848   7.210  17.189  0.00  0.00    +0.000 C 
BRANCH  16  18
ATOM     17  C   UNL     1       8.227   9.090  18.027  0.00  0.00    +0.000 C 
ATOM     18  C   UNL     1       8.007   7.578  18.105  0.00  0.00    +0.000 C 
ENDBRANCH  16  18
ENDBRANCH  15  16
ENDBRANCH   1  15
BRANCH   1  19
ATOM     19  C   UNL     1       5.143   4.261  15.680  0.00  0.00    +0.000 C 
BRANCH  19  20
ATOM     20  C   UNL     1       6.111   3.916  14.537  0.00  0.00    +0.000 C 
BRANCH  20  21
ATOM     21  C   UNL     1       5.395   3.972  13.178  0.00  0.00    +0.000 C 
ATOM     22  C   UNL     1       6.035   3.067  12.133  0.00  0.00    +0.000 C 
ENDBRANCH  20  21
ENDBRANCH  19  20
ENDBRANCH   1  19
TORSDOF 7
ENDMDL
MODEL 5
REMARK VINA RESULT:      -7.3      1.012      2.606
REMARK  Name = 
REMARK  9 active torsions:
REMARK  status: ('A' for Active; 'I' for Inactive)
REMARK    1  A    between atoms: C_1  and  C_2
REMARK    2  A    between atoms: C_2  and  C_3
REMARK    3  A    between atoms: C_3  and  C_4
REMARK    4  A    between atoms: C_4  and  N_5
REMARK    5  A    between atoms: N_5  and  C_6
REMARK    6  A    between atoms: C_6  and  C_7
REMARK    7  A    between atoms: C_7  and  C_8
REMARK    8  A    between atoms: C_8  and  C_9
REMARK    9  A    between atoms: C_10  and  C_12
REMARK                            x       y       z     vdW  Elec       q    Type
REMARK                         _______ _______ _______ _____ _____    ______ ____
ROOT
ATOM      1  N   UNL     1       5.196   5.600  16.903  0.00  0.00    +0.000 N 
ATOM      2  C   UNL     1       4.211   6.330  17.549  0.00  0.00    +0.000 C 
ATOM      3  N   UNL     1       4.052   7.585  17.244  0.00  0.00    +0.000 NA
ATOM      4  H   UNL     1       4.756   7.832  16.548  0.00  0.00    +0.000 HD
ENDROOT
BRANCH   2   5
ATOM      5  C   UNL     1       3.294   5.740  18.612  0.00  0.00    +0.000 A 
ATOM      6  C   UNL     1       2.830   6.666  19.565  0.00  0.00    +0.000 A 
ATOM      7  C   UNL     1       1.897   6.310  20.534  0.00  0.00    +0.000 A 
ATOM      8  C   UNL     1       1.386   5.019  20.557  0.00  0.00    +0.000 A 
ATOM      9  C   UNL     1       1.815   4.068  19.621  0.00  0.00    +0.000 A 
ATOM     10  C   UNL     1       2.811   4.404  18.661  0.00  0.00    +0.000 A 
ATOM     11  C   UNL     1       3.177   3.360  17.636  0.00  0.00    +0.000 C 
ATOM     12  C   UNL     1       2.826   1.923  18.010  0.00  0.00    +0.000 C 
ATOM     13  C   UNL     1       1.373   1.853  18.439  0.00  0.00    +0.000 C 
ATOM     14  C   UNL     1       1.179   2.693  19.694  0.00  0.00    +0.000 C 
ENDBRANCH   2   5
BRANCH   1  15
ATOM     15  C   UNL     1       5.256   5.559  15.423  0.00  0.00    +0.000 C 
BRANCH  15  16
ATOM     16  C   UNL     1       5.701   4.161  14.974  0.00  0.00    +0.000 C 
BRANCH  16  18
ATOM     17  C   UNL     1       5.641   3.426  12.610  0.00  0.00    +0.000 C 
ATOM     18  C   UNL     1       6.520   4.047  13.696  0.00  0.00    +0.000 C 
ENDBRANCH  16  18
ENDBRANCH  15  16
ENDBRANCH   1  15
BRANCH   1  19
ATOM     19  C   UNL     1       6.408   5.227  17.650  0.00  0.00    +0.000 C 
BRANCH  19  20
ATOM     20  C   UNL     1       7.081   6.416  18.355  0.00  0.00    +0.000 C 
BRANCH  20  21
ATOM     21  C   UNL     1       7.647   7.412  17.330  0.00  0.00    +0.000 C 
ATOM     22  C   UNL     1       8.120   8.713  17.964  0.00  0.00    +0.000 C 
ENDBRANCH  20  21
ENDBRANCH  19  20
ENDBRANCH   1  19
TORSDOF 7
ENDMDL
MODEL 6
REMARK VINA RESULT:      -7.2      2.247      5.455
REMARK  Name = 
REMARK  9 active torsions:
REMARK  status: ('A' for Active; 'I' for Inactive)
REMARK    1  A    between atoms: C_1  and  C_2
REMARK    2  A    between atoms: C_2  and  C_3
REMARK    3  A    between atoms: C_3  and  C_4
REMARK    4  A    between atoms: C_4  and  N_5
REMARK    5  A    between atoms: N_5  and  C_6
REMARK    6  A    between atoms: C_6  and  C_7
REMARK    7  A    between atoms: C_7  and  C_8
REMARK    8  A    between atoms: C_8  and  C_9
REMARK    9  A    between atoms: C_10  and  C_12
REMARK                            x       y       z     vdW  Elec       q    Type
REMARK                         _______ _______ _______ _____ _____    ______ ____
ROOT
ATOM      1  N   UNL     1       3.185   3.549  20.100  0.00  0.00    +0.000 N 
ATOM      2  C   UNL     1       4.391   3.193  19.519  0.00  0.00    +0.000 C 
ATOM      3  N   UNL     1       5.108   2.258  20.072  0.00  0.00    +0.000 NA
ATOM      4  H   UNL     1       4.627   1.951  20.918  0.00  0.00    +0.000 HD
ENDROOT
BRANCH   2   5
ATOM      5  C   UNL     1       4.935   3.843  18.254  0.00  0.00    +0.000 A 
ATOM      6  C   UNL     1       4.256   3.488  17.073  0.00  0.00    +0.000 A 
ATOM      7  C   UNL     1       4.559   4.081  15.851  0.00  0.00    +0.000 A 
ATOM      8  C   UNL     1       5.536   5.066  15.786  0.00  0.00    +0.000 A 
ATOM      9  C   UNL     1       6.230   5.455  16.940  0.00  0.00    +0.000 A 
ATOM     10  C   UNL     1       5.969   4.816  18.185  0.00  0.00    +0.000 A 
ATOM     11  C   UNL     1       6.697   5.329  19.403  0.00  0.00    +0.000 C 
ATOM     12  C   UNL     1       7.968   6.124  19.120  0.00  0.00    +0.000 C 
ATOM     13  C   UNL     1       7.670   7.209  18.102  0.00  0.00    +0.000 C 
ATOM     14  C   UNL     1       7.254   6.563  16.787  0.00  0.00    +0.000 C 
ENDBRANCH   2   5
BRANCH   1  15
ATOM     15  C   UNL     1       2.160   2.522  20.399  0.00  0.00    +0.000 C 
BRANCH  15  16
ATOM     16  C   UNL     1       1.503   2.067  19.090  0.00  0.00    +0.000 C 
BRANCH  16  18
ATOM     17  C   UNL     1       1.057   3.910  17.496  0.00  0.00    +0.000 C 
ATOM     18  C   UNL     1       0.412   2.945  18.493  0.00  0.00    +0.000 C 
ENDBRANCH  16  18
ENDBRANCH  15  16
ENDBRANCH   1  15
BRANCH   1  19
ATOM     19  C   UNL     1       3.089   4.841  20.800  0.00  0.00    +0.000 C 
BRANCH  19  20
ATOM     20  C   UNL     1       1.919   5.713  20.315  0.00  0.00    +0.000 C 
BRANCH  20  21
ATOM     21  C   UNL     1       2.431   7.034  19.721  0.00  0.00    +0.000 C 
ATOM     22  C   UNL     1       2.864   6.903  18.266  0.00  0.00    +0.000 C 
ENDBRANCH  20  21
ENDBRANCH  19  20
ENDBRANCH   1  19
TORSDOF 7
ENDMDL
MODEL 7
REMARK VINA RESULT:      -7.2      1.507      4.320
REMARK  Name = 
REMARK  9 active torsions:
REMARK  status: ('A' for Active; 'I' for Inactive)
REMARK    1  A    between atoms: C_1  and  C_2
REMARK    2  A    between atoms: C_2  and  C_3
REMARK    3  A    between atoms: C_3  and  C_4
REMARK    4  A    between atoms: C_4  and  N_5
REMARK    5  A    between atoms: N_5  and  C_6
REMARK    6  A    between atoms: C_6  and  C_7
REMARK    7  A    between atoms: C_7  and  C_8
REMARK    8  A    between atoms: C_8  and  C_9
REMARK    9  A    between atoms: C_10  and  C_12
REMARK                            x       y       z     vdW  Elec       q    Type
REMARK                         _______ _______ _______ _____ _____    ______ ____
ROOT
ATOM      1  N   UNL     1       6.055   5.142  17.145  0.00  0.00    +0.000 N 
ATOM      2  C   UNL     1       5.661   5.080  18.471  0.00  0.00    +0.000 C 
ATOM      3  N   UNL     1       6.515   4.680  19.367  0.00  0.00    +0.000 NA
ATOM      4  H   UNL     1       7.383   4.436  18.889  0.00  0.00    +0.000 HD
ENDROOT
BRANCH   2   5
ATOM      5  C   UNL     1       4.264   5.457  18.947  0.00  0.00    +0.000 A 
ATOM      6  C   UNL     1       3.823   6.725  18.527  0.00  0.00    +0.000 A 
ATOM      7  C   UNL     1       2.529   7.170  18.784  0.00  0.00    +0.000 A 
ATOM      8  C   UNL     1       1.635   6.342  19.449  0.00  0.00    +0.000 A 
ATOM      9  C   UNL     1       2.032   5.067  19.878  0.00  0.00    +0.000 A 
ATOM     10  C   UNL     1       3.368   4.624  19.672  0.00  0.00    +0.000 A 
ATOM     11  C   UNL     1       3.712   3.216  20.091  0.00  0.00    +0.000 C 
ATOM     12  C   UNL     1       2.770   2.589  21.114  0.00  0.00    +0.000 C 
ATOM     13  C   UNL     1       1.338   2.736  20.639  0.00  0.00    +0.000 C 
ATOM     14  C   UNL     1       0.982   4.214  20.564  0.00  0.00    +0.000 C 
ENDBRANCH   2   5
BRANCH   1  15
ATOM     15  C   UNL     1       7.273   5.891  16.754  0.00  0.00    +0.000 C 
BRANCH  15  16
ATOM     16  C   UNL     1       7.156   7.339  17.248  0.00  0.00    +0.000 C 
BRANCH  16  18
ATOM     17  C   UNL     1       8.354   9.341  18.078  0.00  0.00    +0.000 C 
ATOM     18  C   UNL     1       8.176   7.834  18.264  0.00  0.00    +0.000 C 
ENDBRANCH  16  18
ENDBRANCH  15  16
ENDBRANCH   1  15
BRANCH   1  19
ATOM     19  C   UNL     1       5.534   4.140  16.202  0.00  0.00    +0.000 C 
BRANCH  19  20
ATOM     20  C   UNL     1       6.392   3.986  14.936  0.00  0.00    +0.000 C 
BRANCH  20  21
ATOM     21  C   UNL     1       5.511   3.947  13.678  0.00  0.00    +0.000 C 
ATOM     22  C   UNL     1       6.263   3.472  12.441  0.00  0.00    +0.000 C 
ENDBRANCH  20  21
ENDBRANCH  19  20
ENDBRANCH   1  19
TORSDOF 7
ENDMDL
MODEL 8
REMARK VINA RESULT:      -7.2      1.063      2.550
REMARK  Name = 
REMARK  9 active torsions:
REMARK  status: ('A' for Active; 'I' for Inactive)
REMARK    1  A    between atoms: C_1  and  C_2
REMARK    2  A    between atoms: C_2  and  C_3
REMARK    3  A    between atoms: C_3  and  C_4
REMARK    4  A    between atoms: C_4  and  N_5
REMARK    5  A    between atoms: N_5  and  C_6
REMARK    6  A    between atoms: C_6  and  C_7
REMARK    7  A    between atoms: C_7  and  C_8
REMARK    8  A    between atoms: C_8  and  C_9
REMARK    9  A    between atoms: C_10  and  C_12
REMARK                            x       y       z     vdW  Elec       q    Type
REMARK                         _______ _______ _______ _____ _____    ______ ____
ROOT
ATOM      1  N   UNL     1       6.555   5.300  16.425  0.00  0.00    +0.000 N 
ATOM      2  C   UNL     1       5.412   6.076  16.337  0.00  0.00    +0.000 C 
ATOM      3  N   UNL     1       5.331   6.981  15.405  0.00  0.00    +0.000 NA
ATOM      4  H   UNL     1       6.208   6.974  14.882  0.00  0.00    +0.000 HD
ENDROOT
BRANCH   2   5
ATOM      5  C   UNL     1       4.227   5.932  17.284  0.00  0.00    +0.000 A 
ATOM      6  C   UNL     1       3.659   7.150  17.701  0.00  0.00    +0.000 A 
ATOM      7  C   UNL     1       2.503   7.188  18.476  0.00  0.00    +0.000 A 
ATOM      8  C   UNL     1       1.873   6.003  18.832  0.00  0.00    +0.000 A 
ATOM      9  C   UNL     1       2.401   4.768  18.430  0.00  0.00    +0.000 A 
ATOM     10  C   UNL     1       3.614   4.715  17.686  0.00  0.00    +0.000 A 
ATOM     11  C   UNL     1       4.092   3.361  17.221  0.00  0.00    +0.000 C 
ATOM     12  C   UNL     1       3.524   2.169  17.985  0.00  0.00    +0.000 C 
ATOM     13  C   UNL     1       2.013   2.279  18.044  0.00  0.00    +0.000 C 
ATOM     14  C   UNL     1       1.631   3.525  18.830  0.00  0.00    +0.000 C 
ENDBRANCH   2   5
BRANCH   1  15
ATOM     15  C   UNL     1       7.057   4.559  15.244  0.00  0.00    +0.000 C 
BRANCH  15  16
ATOM     16  C   UNL     1       5.933   3.675  14.688  0.00  0.00    +0.000 C 
BRANCH  16  18
ATOM     17  C   UNL     1       6.327   3.266  12.278  0.00  0.00    +0.000 C 
ATOM     18  C   UNL     1       5.417   3.968  13.286  0.00  0.00    +0.000 C 
ENDBRANCH  16  18
ENDBRANCH  15  16
ENDBRANCH   1  15
BRANCH   1  19
ATOM     19  C   UNL     1       7.494   5.542  17.533  0.00  0.00    +0.000 C 
BRANCH  19  20
ATOM     20  C   UNL     1       7.326   6.923  18.186  0.00  0.00    +0.000 C 
BRANCH  20  21
ATOM     21  C   UNL     1       8.072   8.002  17.385  0.00  0.00    +0.000 C 
ATOM     22  C   UNL     1       8.311   9.276  18.184  0.00  0.00    +0.000 C 
ENDBRANCH  20  21
ENDBRANCH  19  20
ENDBRANCH   1  19
TORSDOF 7
ENDMDL
MODEL 9
REMARK VINA RESULT:      -7.0      0.889      2.528
REMARK  Name = 
REMARK  9 active torsions:
REMARK  status: ('A' for Active; 'I' for Inactive)
REMARK    1  A    between atoms: C_1  and  C_2
REMARK    2  A    between atoms: C_2  and  C_3
REMARK    3  A    between atoms: C_3  and  C_4
REMARK    4  A    between atoms: C_4  and  N_5
REMARK    5  A    between atoms: N_5  and  C_6
REMARK    6  A    between atoms: C_6  and  C_7
REMARK    7  A    between atoms: C_7  and  C_8
REMARK    8  A    between atoms: C_8  and  C_9
REMARK    9  A    between atoms: C_10  and  C_12
REMARK                            x       y       z     vdW  Elec       q    Type
REMARK                         _______ _______ _______ _____ _____    ______ ____
ROOT
ATOM      1  N   UNL     1       5.154   5.132  16.278  0.00  0.00    +0.000 N 
ATOM      2  C   UNL     1       4.297   6.051  16.861  0.00  0.00    +0.000 C 
ATOM      3  N   UNL     1       4.203   7.243  16.347  0.00  0.00    +0.000 NA
ATOM      4  H   UNL     1       4.851   7.299  15.560  0.00  0.00    +0.000 HD
ENDROOT
BRANCH   2   5
ATOM      5  C   UNL     1       3.450   5.744  18.088  0.00  0.00    +0.000 A 
ATOM      6  C   UNL     1       3.262   6.833  18.959  0.00  0.00    +0.000 A 
ATOM      7  C   UNL     1       2.421   6.746  20.065  0.00  0.00    +0.000 A 
ATOM      8  C   UNL     1       1.727   5.570  20.313  0.00  0.00    +0.000 A 
ATOM      9  C   UNL     1       1.879   4.463  19.465  0.00  0.00    +0.000 A 
ATOM     10  C   UNL     1       2.779   4.521  18.364  0.00  0.00    +0.000 A 
ATOM     11  C   UNL     1       2.844   3.324  17.448  0.00  0.00    +0.000 C 
ATOM     12  C   UNL     1       2.331   2.016  18.043  0.00  0.00    +0.000 C 
ATOM     13  C   UNL     1       0.953   2.237  18.638  0.00  0.00    +0.000 C 
ATOM     14  C   UNL     1       1.057   3.230  19.787  0.00  0.00    +0.000 C 
ENDBRANCH   2   5
BRANCH   1  15
ATOM     15  C   UNL     1       5.063   4.828  14.831  0.00  0.00    +0.000 C 
BRANCH  15  16
ATOM     16  C   UNL     1       6.208   3.886  14.439  0.00  0.00    +0.000 C 
BRANCH  16  18
ATOM     17  C   UNL     1       5.580   3.215  12.140  0.00  0.00    +0.000 C 
ATOM     18  C   UNL     1       6.665   3.880  12.987  0.00  0.00    +0.000 C 
ENDBRANCH  16  18
ENDBRANCH  15  16
ENDBRANCH   1  15
BRANCH   1  19
ATOM     19  C   UNL     1       6.404   4.786  16.975  0.00  0.00    +0.000 C 
BRANCH  19  20
ATOM     20  C   UNL     1       7.365   5.975  17.135  0.00  0.00    +0.000 C 
BRANCH  20  21
ATOM     21  C   UNL     1       7.668   6.239  18.618  0.00  0.00    +0.000 C 
ATOM     22  C   UNL     1       6.797   5.415  19.558  0.00  0.00    +0.000 C 
ENDBRANCH  20  21
ENDBRANCH  19  20
ENDBRANCH   1  19
TORSDOF 7
ENDMDL
