MODEL 1
REMARK VINA RESULT:      -7.9      0.000      0.000
REMARK  Name = 
REMARK  8 active torsions:
REMARK  status: ('A' for Active; 'I' for Inactive)
REMARK    1  A    between atoms: C_1  and  N_2
REMARK    2  A    between atoms: C_5  and  C_6
REMARK    3  A    between atoms: C_6  and  O_8
REMARK    4  A    between atoms: O_8  and  C_9
REMARK    5  A    between atoms: C_9  and  C_10
REMARK    6  A    between atoms: C_9  and  C_11
REMARK    7  A    between atoms: C_9  and  C_12
REMARK    8  A    between atoms: C_19  and  N_20
REMARK                            x       y       z     vdW  Elec       q    Type
REMARK                         _______ _______ _______ _____ _____    ______ ____
ROOT
ATOM      1  C   UNL     1       1.021   4.150  20.458  0.00  0.00    +0.000 C 
ATOM      2  N   UNL     1       1.789   5.056  19.622  0.00  0.00    +0.000 N 
ATOM      3  C   UNL     1       2.480   6.162  20.253  0.00  0.00    +0.000 C 
ATOM      4  C   UNL     1       2.196   7.385  19.462  0.00  0.00    +0.000 A 
ATOM      5  C   UNL     1       1.502   8.555  19.755  0.00  0.00    +0.000 A 
ATOM      6  N   UNL     1       1.658   9.455  18.712  0.00  0.00    +0.000 NA
ATOM      7  C   UNL     1       2.397   8.840  17.816  0.00  0.00    +0.000 A 
ATOM      8  N   UNL     1       2.707   7.559  18.194  0.00  0.00    +0.000 N 
ATOM      9  C   UNL     1       3.464   6.605  17.478  0.00  0.00    +0.000 A 
ATOM     10  C   UNL     1       4.553   7.028  16.706  0.00  0.00    +0.000 A 
ATOM     11  C   UNL     1       5.397   6.076  16.113  0.00  0.00    +0.000 A 
ATOM     12  C   UNL     1       5.138   4.704  16.232  0.00  0.00    +0.000 A 
ATOM     13  C   UNL     1       4.010   4.303  16.946  0.00  0.00    +0.000 A 
ATOM     14  C   UNL     1       3.184   5.235  17.588  0.00  0.00    +0.000 A 
ATOM     15  C   UNL     1       2.032   4.648  18.319  0.00  0.00    +0.000 C 
ATOM     16  O   UNL     1       1.395   3.753  17.767  0.00  0.00    +0.000 OA
ENDROOT
BRANCH  12  17
ATOM     17  N   UNL     1       5.990   3.693  15.756  0.00  0.00    +0.000 NA
ATOM     18  N   UNL     1       6.200   3.710  14.533  0.00  0.00    +0.000 NA
ATOM     19  N   UNL     1       6.414   3.730  13.411  0.00  0.00    +0.000 NA
ENDBRANCH  12  17
BRANCH   5  20
ATOM     20  C   UNL     1       0.747   8.833  20.980  0.00  0.00    +0.000 C 
ATOM     21  O   UNL     1      -0.004   8.013  21.491  0.00  0.00    +0.000 OA
BRANCH  20  22
ATOM     22  O   UNL     1       0.957  10.093  21.471  0.00  0.00    +0.000 OA
BRANCH  22  23
ATOM     23  C   UNL     1      -0.128  11.059  21.465  0.00  0.00    +0.000 C 
ATOM     24  C   UNL     1      -0.897  11.041  22.792  0.00  0.00    +0.000 C 
ATOM     25  C   UNL     1       0.531  12.441  21.312  0.00  0.00    +0.000 C 
ATOM     26  C   UNL     1      -1.049  10.843  20.256  0.00  0.00    +0.000 C 
ENDBRANCH  22  23
ENDBRANCH  20  22
ENDBRANCH   5  20
TORSDOF 4
ENDMDL
MODEL 2
REMARK VINA RESULT:      -7.5      0.754      1.364
REMARK  Name = 
REMARK  8 active torsions:
REMARK  status: ('A' for Active; 'I' for Inactive)
REMARK    1  A    between atoms: C_1  and  N_2
REMARK    2  A    between atoms: C_5  and  C_6
REMARK    3  A    between atoms: C_6  and  O_8
REMARK    4  A    between atoms: O_8  and  C_9
REMARK    5  A    between atoms: C_9  and  C_10
REMARK    6  A    between atoms: C_9  and  C_11
REMARK    7  A    between atoms: C_9  and  C_12
REMARK    8  A    between atoms: C_19  and  N_20
REMARK                            x       y       z     vdW  Elec       q    Type
REMARK                         _______ _______ _______ _____ _____    ______ ____
ROOT
ATOM      1  C   UNL     1       1.117   4.464  20.717  0.00  0.00    +0.000 C 
ATOM      2  N   UNL     1       1.807   5.392  19.838  0.00  0.00    +0.000 N 
ATOM      3  C   UNL     1       2.393   6.585  20.415  0.00  0.00    +0.000 C 
ATOM      4  C   UNL     1       2.008   7.738  19.565  0.00  0.00    +0.000 A 
ATOM      5  C   UNL     1       1.212   8.855  19.797  0.00  0.00    +0.000 A 
ATOM      6  N   UNL     1       1.294   9.712  18.711  0.00  0.00    +0.000 NA
ATOM      7  C   UNL     1       2.090   9.122  17.849  0.00  0.00    +0.000 A 
ATOM      8  N   UNL     1       2.509   7.893  18.290  0.00  0.00    +0.000 N 
ATOM      9  C   UNL     1       3.352   6.977  17.624  0.00  0.00    +0.000 A 
ATOM     10  C   UNL     1       4.405   7.456  16.834  0.00  0.00    +0.000 A 
ATOM     11  C   UNL     1       5.333   6.555  16.291  0.00  0.00    +0.000 A 
ATOM     12  C   UNL     1       5.195   5.172  16.477  0.00  0.00    +0.000 A 
ATOM     13  C   UNL     1       4.103   4.708  17.208  0.00  0.00    +0.000 A 
ATOM     14  C   UNL     1       3.193   5.594  17.802  0.00  0.00    +0.000 A 
ATOM     15  C   UNL     1       2.093   4.944  18.558  0.00  0.00    +0.000 C 
ATOM     16  O   UNL     1       1.542   3.970  18.050  0.00  0.00    +0.000 OA
ENDROOT
BRANCH  12  17
ATOM     17  N   UNL     1       6.137   4.219  16.053  0.00  0.00    +0.000 NA
ATOM     18  N   UNL     1       7.222   4.243  16.656  0.00  0.00    +0.000 NA
ATOM     19  N   UNL     1       8.216   4.245  17.217  0.00  0.00    +0.000 NA
ENDBRANCH  12  17
BRANCH   5  20
ATOM     20  C   UNL     1       0.427   9.125  21.005  0.00  0.00    +0.000 C 
ATOM     21  O   UNL     1      -0.388   8.328  21.453  0.00  0.00    +0.000 OA
BRANCH  20  22
ATOM     22  O   UNL     1       0.688  10.349  21.558  0.00  0.00    +0.000 OA
BRANCH  22  23
ATOM     23  C   UNL     1      -0.337  11.377  21.550  0.00  0.00    +0.000 C 
ATOM     24  C   UNL     1      -1.279  11.215  20.349  0.00  0.00    +0.000 C 
ATOM     25  C   UNL     1      -1.159  11.174  22.834  0.00  0.00    +0.000 C 
ATOM     26  C   UNL     1       0.289  12.778  21.612  0.00  0.00    +0.000 C 
ENDBRANCH  22  23
ENDBRANCH  20  22
ENDBRANCH   5  20
TORSDOF 4
ENDMDL
MODEL 3
REMARK VINA RESULT:      -7.3      2.942      4.331
REMARK  Name = 
REMARK  8 active torsions:
REMARK  status: ('A' for Active; 'I' for Inactive)
REMARK    1  A    between atoms: C_1  and  N_2
REMARK    2  A    between atoms: C_5  and  C_6
REMARK    3  A    between atoms: C_6  and  O_8
REMARK    4  A    between atoms: O_8  and  C_9
REMARK    5  A    between atoms: C_9  and  C_10
REMARK    6  A    between atoms: C_9  and  C_11
REMARK    7  A    between atoms: C_9  and  C_12
REMARK    8  A    between atoms: C_19  and  N_20
REMARK                            x       y       z     vdW  Elec       q    Type
REMARK                         _______ _______ _______ _____ _____    ______ ____
ROOT
ATOM      1  C   UNL     1       5.101   7.113  16.448  0.00  0.00    +0.000 C 
ATOM      2  N   UNL     1       4.323   6.623  17.572  0.00  0.00    +0.000 N 
ATOM      3  C   UNL     1       2.877   6.664  17.483  0.00  0.00    +0.000 C 
ATOM      4  C   UNL     1       2.360   7.230  18.752  0.00  0.00    +0.000 A 
ATOM      5  C   UNL     1       1.683   8.409  19.050  0.00  0.00    +0.000 A 
ATOM      6  N   UNL     1       1.293   8.392  20.380  0.00  0.00    +0.000 NA
ATOM      7  C   UNL     1       1.739   7.257  20.869  0.00  0.00    +0.000 A 
ATOM      8  N   UNL     1       2.443   6.536  19.939  0.00  0.00    +0.000 N 
ATOM      9  C   UNL     1       3.078   5.286  20.114  0.00  0.00    +0.000 A 
ATOM     10  C   UNL     1       2.492   4.326  20.949  0.00  0.00    +0.000 A 
ATOM     11  C   UNL     1       3.035   3.034  21.012  0.00  0.00    +0.000 A 
ATOM     12  C   UNL     1       4.192   2.699  20.295  0.00  0.00    +0.000 A 
ATOM     13  C   UNL     1       4.802   3.686  19.523  0.00  0.00    +0.000 A 
ATOM     14  C   UNL     1       4.247   4.968  19.407  0.00  0.00    +0.000 A 
ATOM     15  C   UNL     1       5.008   5.900  18.537  0.00  0.00    +0.000 C 
ATOM     16  O   UNL     1       6.231   5.924  18.650  0.00  0.00    +0.000 OA
ENDROOT
BRANCH  12  17
ATOM     17  N   UNL     1       4.734   1.403  20.226  0.00  0.00    +0.000 NA
ATOM     18  N   UNL     1       5.444   1.075  21.190  0.00  0.00    +0.000 NA
ATOM     19  N   UNL     1       6.084   0.758  22.081  0.00  0.00    +0.000 NA
ENDBRANCH  12  17
BRANCH   5  20
ATOM     20  C   UNL     1       1.385   9.499  18.116  0.00  0.00    +0.000 C 
ATOM     21  O   UNL     1       2.216   9.940  17.333  0.00  0.00    +0.000 OA
BRANCH  20  22
ATOM     22  O   UNL     1       0.105   9.970  18.224  0.00  0.00    +0.000 OA
BRANCH  22  23
ATOM     23  C   UNL     1      -0.136  11.269  18.827  0.00  0.00    +0.000 C 
ATOM     24  C   UNL     1      -1.079  12.117  17.964  0.00  0.00    +0.000 C 
ATOM     25  C   UNL     1      -0.833  10.995  20.171  0.00  0.00    +0.000 C 
ATOM     26  C   UNL     1       1.186  11.991  19.125  0.00  0.00    +0.000 C 
ENDBRANCH  22  23
ENDBRANCH  20  22
ENDBRANCH   5  20
TORSDOF 4
ENDMDL
MODEL 4
REMARK VINA RESULT:      -6.8      1.490      1.718
REMARK  Name = 
REMARK  8 active torsions:
REMARK  status: ('A' for Active; 'I' for Inactive)
REMARK    1  A    between atoms: C_1  and  N_2
REMARK    2  A    between atoms: C_5  and  C_6
REMARK    3  A    between atoms: C_6  and  O_8
REMARK    4  A    between atoms: O_8  and  C_9
REMARK    5  A    between atoms: C_9  and  C_10
REMARK    6  A    between atoms: C_9  and  C_11
REMARK    7  A    between atoms: C_9  and  C_12
REMARK    8  A    between atoms: C_19  and  N_20
REMARK                            x       y       z     vdW  Elec       q    Type
REMARK                         _______ _______ _______ _____ _____    ______ ____
ROOT
ATOM      1  C   UNL     1       2.955   2.993  19.795  0.00  0.00    +0.000 C 
ATOM      2  N   UNL     1       3.313   4.160  19.007  0.00  0.00    +0.000 N 
ATOM      3  C   UNL     1       3.779   5.345  19.699  0.00  0.00    +0.000 C 
ATOM      4  C   UNL     1       3.062   6.513  19.133  0.00  0.00    +0.000 A 
ATOM      5  C   UNL     1       2.140   7.404  19.673  0.00  0.00    +0.000 A 
ATOM      6  N   UNL     1       1.885   8.413  18.758  0.00  0.00    +0.000 NA
ATOM      7  C   UNL     1       2.608   8.127  17.699  0.00  0.00    +0.000 A 
ATOM      8  N   UNL     1       3.301   6.953  17.849  0.00  0.00    +0.000 N 
ATOM      9  C   UNL     1       4.158   6.330  16.915  0.00  0.00    +0.000 A 
ATOM     10  C   UNL     1       4.961   7.120  16.082  0.00  0.00    +0.000 A 
ATOM     11  C   UNL     1       5.920   6.510  15.259  0.00  0.00    +0.000 A 
ATOM     12  C   UNL     1       6.054   5.116  15.212  0.00  0.00    +0.000 A 
ATOM     13  C   UNL     1       5.200   4.342  15.996  0.00  0.00    +0.000 A 
ATOM     14  C   UNL     1       4.270   4.933  16.863  0.00  0.00    +0.000 A 
ATOM     15  C   UNL     1       3.445   3.973  17.640  0.00  0.00    +0.000 C 
ATOM     16  O   UNL     1       2.988   2.997  17.049  0.00  0.00    +0.000 OA
ENDROOT
BRANCH  12  17
ATOM     17  N   UNL     1       7.056   4.440  14.494  0.00  0.00    +0.000 NA
ATOM     18  N   UNL     1       7.782   5.162  13.792  0.00  0.00    +0.000 NA
ATOM     19  N   UNL     1       8.466   5.820  13.158  0.00  0.00    +0.000 NA
ENDBRANCH  12  17
BRANCH   5  20
ATOM     20  C   UNL     1       1.542   7.331  21.010  0.00  0.00    +0.000 C 
ATOM     21  O   UNL     1       1.036   6.307  21.449  0.00  0.00    +0.000 OA
BRANCH  20  22
ATOM     22  O   UNL     1       1.598   8.514  21.693  0.00  0.00    +0.000 OA
BRANCH  22  23
ATOM     23  C   UNL     1       0.380   9.267  21.933  0.00  0.00    +0.000 C 
ATOM     24  C   UNL     1       0.142   9.479  23.433  0.00  0.00    +0.000 C 
ATOM     25  C   UNL     1       0.592  10.645  21.282  0.00  0.00    +0.000 C 
ATOM     26  C   UNL     1      -0.821   8.603  21.242  0.00  0.00    +0.000 C 
ENDBRANCH  22  23
ENDBRANCH  20  22
ENDBRANCH   5  20
TORSDOF 4
ENDMDL
MODEL 5
REMARK VINA RESULT:      -6.5      3.515      5.308
REMARK  Name = 
REMARK  8 active torsions:
REMARK  status: ('A' for Active; 'I' for Inactive)
REMARK    1  A    between atoms: C_1  and  N_2
REMARK    2  A    between atoms: C_5  and  C_6
REMARK    3  A    between atoms: C_6  and  O_8
REMARK    4  A    between atoms: O_8  and  C_9
REMARK    5  A    between atoms: C_9  and  C_10
REMARK    6  A    between atoms: C_9  and  C_11
REMARK    7  A    between atoms: C_9  and  C_12
REMARK    8  A    between atoms: C_19  and  N_20
REMARK                            x       y       z     vdW  Elec       q    Type
REMARK                         _______ _______ _______ _____ _____    ______ ____
ROOT
ATOM      1  C   UNL     1       7.494   5.662  19.582  0.00  0.00    +0.000 C 
ATOM      2  N   UNL     1       6.696   5.058  18.530  0.00  0.00    +0.000 N 
ATOM      3  C   UNL     1       5.270   5.317  18.508  0.00  0.00    +0.000 C 
ATOM      4  C   UNL     1       4.577   4.022  18.303  0.00  0.00    +0.000 A 
ATOM      5  C   UNL     1       3.727   3.270  19.109  0.00  0.00    +0.000 A 
ATOM      6  N   UNL     1       3.232   2.199  18.382  0.00  0.00    +0.000 NA
ATOM      7  C   UNL     1       3.782   2.289  17.193  0.00  0.00    +0.000 A 
ATOM      8  N   UNL     1       4.652   3.346  17.104  0.00  0.00    +0.000 N 
ATOM      9  C   UNL     1       5.429   3.735  15.991  0.00  0.00    +0.000 A 
ATOM     10  C   UNL     1       4.908   3.586  14.699  0.00  0.00    +0.000 A 
ATOM     11  C   UNL     1       5.611   4.106  13.602  0.00  0.00    +0.000 A 
ATOM     12  C   UNL     1       6.858   4.723  13.766  0.00  0.00    +0.000 A 
ATOM     13  C   UNL     1       7.394   4.800  15.051  0.00  0.00    +0.000 A 
ATOM     14  C   UNL     1       6.685   4.334  16.166  0.00  0.00    +0.000 A 
ATOM     15  C   UNL     1       7.386   4.502  17.465  0.00  0.00    +0.000 C 
ATOM     16  O   UNL     1       8.582   4.222  17.514  0.00  0.00    +0.000 OA
ENDROOT
BRANCH  12  17
ATOM     17  N   UNL     1       7.570   5.356  12.733  0.00  0.00    +0.000 NA
ATOM     18  N   UNL     1       8.641   5.884  13.075  0.00  0.00    +0.000 NA
ATOM     19  N   UNL     1       9.636   6.357  13.376  0.00  0.00    +0.000 NA
ENDBRANCH  12  17
BRANCH   5  20
ATOM     20  C   UNL     1       3.367   3.562  20.499  0.00  0.00    +0.000 C 
ATOM     21  O   UNL     1       3.387   2.710  21.377  0.00  0.00    +0.000 OA
BRANCH  20  22
ATOM     22  O   UNL     1       2.997   4.864  20.701  0.00  0.00    +0.000 OA
BRANCH  22  23
ATOM     23  C   UNL     1       1.723   5.339  20.191  0.00  0.00    +0.000 C 
ATOM     24  C   UNL     1       0.640   4.258  20.303  0.00  0.00    +0.000 C 
ATOM     25  C   UNL     1       1.316   6.520  21.088  0.00  0.00    +0.000 C 
ATOM     26  C   UNL     1       1.868   5.869  18.757  0.00  0.00    +0.000 C 
ENDBRANCH  22  23
ENDBRANCH  20  22
ENDBRANCH   5  20
TORSDOF 4
ENDMDL
MODEL 6
REMARK VINA RESULT:      -6.4      3.579      5.905
REMARK  Name = 
REMARK  8 active torsions:
REMARK  status: ('A' for Active; 'I' for Inactive)
REMARK    1  A    between atoms: C_1  and  N_2
REMARK    2  A    between atoms: C_5  and  C_6
REMARK    3  A    between atoms: C_6  and  O_8
REMARK    4  A    between atoms: O_8  and  C_9
REMARK    5  A    between atoms: C_9  and  C_10
REMARK    6  A    between atoms: C_9  and  C_11
REMARK    7  A    between atoms: C_9  and  C_12
REMARK    8  A    between atoms: C_19  and  N_20
REMARK                            x       y       z     vdW  Elec       q    Type
REMARK                         _______ _______ _______ _____ _____    ______ ____
ROOT
ATOM      1  C   UNL     1      -0.515  12.951  17.989  0.00  0.00    +0.000 C 
ATOM      2  N   UNL     1      -0.253  11.865  18.917  0.00  0.00    +0.000 N 
ATOM      3  C   UNL     1      -1.377  11.221  19.565  0.00  0.00    +0.000 C 
ATOM      4  C   UNL     1      -1.063  11.103  21.009  0.00  0.00    +0.000 A 
ATOM      5  C   UNL     1      -1.625  11.676  22.146  0.00  0.00    +0.000 A 
ATOM      6  N   UNL     1      -1.050  11.117  23.276  0.00  0.00    +0.000 NA
ATOM      7  C   UNL     1      -0.158  10.258  22.835  0.00  0.00    +0.000 A 
ATOM      8  N   UNL     1      -0.083  10.248  21.466  0.00  0.00    +0.000 N 
ATOM      9  C   UNL     1       0.769   9.469  20.653  0.00  0.00    +0.000 A 
ATOM     10  C   UNL     1       1.089   8.161  21.043  0.00  0.00    +0.000 A 
ATOM     11  C   UNL     1       1.811   7.333  20.170  0.00  0.00    +0.000 A 
ATOM     12  C   UNL     1       2.270   7.807  18.934  0.00  0.00    +0.000 A 
ATOM     13  C   UNL     1       2.002   9.132  18.592  0.00  0.00    +0.000 A 
ATOM     14  C   UNL     1       1.238   9.960  19.426  0.00  0.00    +0.000 A 
ATOM     15  C   UNL     1       1.030  11.338  18.913  0.00  0.00    +0.000 C 
ATOM     16  O   UNL     1       1.993  11.921  18.421  0.00  0.00    +0.000 OA
ENDROOT
BRANCH  12  17
ATOM     17  N   UNL     1       2.907   7.010  17.967  0.00  0.00    +0.000 NA
ATOM     18  N   UNL     1       2.533   5.827  17.928  0.00  0.00    +0.000 NA
ATOM     19  N   UNL     1       2.183   4.741  17.872  0.00  0.00    +0.000 NA
ENDBRANCH  12  17
BRANCH   5  20
ATOM     20  C   UNL     1      -2.685  12.688  22.173  0.00  0.00    +0.000 C 
ATOM     21  O   UNL     1      -3.617  12.688  21.379  0.00  0.00    +0.000 OA
BRANCH  20  22
ATOM     22  O   UNL     1      -2.514  13.625  23.155  0.00  0.00    +0.000 OA
BRANCH  22  23
ATOM     23  C   UNL     1      -3.600  13.911  24.076  0.00  0.00    +0.000 C 
ATOM     24  C   UNL     1      -4.200  12.620  24.647  0.00  0.00    +0.000 C 
ATOM     25  C   UNL     1      -2.978  14.705  25.238  0.00  0.00    +0.000 C 
ATOM     26  C   UNL     1      -4.661  14.803  23.415  0.00  0.00    +0.000 C 
ENDBRANCH  22  23
ENDBRANCH  20  22
ENDBRANCH   5  20
TORSDOF 4
ENDMDL
MODEL 7
REMARK VINA RESULT:      -6.4      0.917      1.075
REMARK  Name = 
REMARK  8 active torsions:
REMARK  status: ('A' for Active; 'I' for Inactive)
REMARK    1  A    between atoms: C_1  and  N_2
REMARK    2  A    between atoms: C_5  and  C_6
REMARK    3  A    between atoms: C_6  and  O_8
REMARK    4  A    between atoms: O_8  and  C_9
REMARK    5  A    between atoms: C_9  and  C_10
REMARK    6  A    between atoms: C_9  and  C_11
REMARK    7  A    between atoms: C_9  and  C_12
REMARK    8  A    between atoms: C_19  and  N_20
REMARK                            x       y       z     vdW  Elec       q    Type
REMARK                         _______ _______ _______ _____ _____    ______ ____
ROOT
ATOM      1  C   UNL     1       0.936   3.914  20.126  0.00  0.00    +0.000 C 
ATOM      2  N   UNL     1       1.703   4.960  19.473  0.00  0.00    +0.000 N 
ATOM      3  C   UNL     1       2.151   6.087  20.266  0.00  0.00    +0.000 C 
ATOM      4  C   UNL     1       1.841   7.326  19.512  0.00  0.00    +0.000 A 
ATOM      5  C   UNL     1       0.974   8.386  19.758  0.00  0.00    +0.000 A 
ATOM      6  N   UNL     1       1.172   9.373  18.805  0.00  0.00    +0.000 NA
ATOM      7  C   UNL     1       2.105   8.913  18.003  0.00  0.00    +0.000 A 
ATOM      8  N   UNL     1       2.510   7.650  18.351  0.00  0.00    +0.000 N 
ATOM      9  C   UNL     1       3.476   6.844  17.710  0.00  0.00    +0.000 A 
ATOM     10  C   UNL     1       4.608   7.443  17.143  0.00  0.00    +0.000 A 
ATOM     11  C   UNL     1       5.641   6.639  16.637  0.00  0.00    +0.000 A 
ATOM     12  C   UNL     1       5.537   5.241  16.636  0.00  0.00    +0.000 A 
ATOM     13  C   UNL     1       4.373   4.663  17.140  0.00  0.00    +0.000 A 
ATOM     14  C   UNL     1       3.352   5.446  17.697  0.00  0.00    +0.000 A 
ATOM     15  C   UNL     1       2.185   4.680  18.204  0.00  0.00    +0.000 C 
ATOM     16  O   UNL     1       1.752   3.764  17.509  0.00  0.00    +0.000 OA
ENDROOT
BRANCH  12  17
ATOM     17  N   UNL     1       6.568   4.371  16.243  0.00  0.00    +0.000 NA
ATOM     18  N   UNL     1       7.248   4.757  15.279  0.00  0.00    +0.000 NA
ATOM     19  N   UNL     1       7.891   5.113  14.405  0.00  0.00    +0.000 NA
ENDBRANCH  12  17
BRANCH   5  20
ATOM     20  C   UNL     1       0.016   8.485  20.863  0.00  0.00    +0.000 C 
ATOM     21  O   UNL     1      -0.293   7.523  21.554  0.00  0.00    +0.000 OA
BRANCH  20  22
ATOM     22  O   UNL     1      -0.497   9.743  21.023  0.00  0.00    +0.000 OA
BRANCH  22  23
ATOM     23  C   UNL     1      -0.068  10.559  22.145  0.00  0.00    +0.000 C 
ATOM     24  C   UNL     1       1.069   9.883  22.923  0.00  0.00    +0.000 C 
ATOM     25  C   UNL     1       0.476  11.865  21.541  0.00  0.00    +0.000 C 
ATOM     26  C   UNL     1      -1.256  10.920  23.049  0.00  0.00    +0.000 C 
ENDBRANCH  22  23
ENDBRANCH  20  22
ENDBRANCH   5  20
TORSDOF 4
ENDMDL
MODEL 8
REMARK VINA RESULT:      -6.4      3.053      5.029
REMARK  Name = 
REMARK  8 active torsions:
REMARK  status: ('A' for Active; 'I' for Inactive)
REMARK    1  A    between atoms: C_1  and  N_2
REMARK    2  A    between atoms: C_5  and  C_6
REMARK    3  A    between atoms: C_6  and  O_8
REMARK    4  A    between atoms: O_8  and  C_9
REMARK    5  A    between atoms: C_9  and  C_10
REMARK    6  A    between atoms: C_9  and  C_11
REMARK    7  A    between atoms: C_9  and  C_12
REMARK    8  A    between atoms: C_19  and  N_20
REMARK                            x       y       z     vdW  Elec       q    Type
REMARK                         _______ _______ _______ _____ _____    ______ ____
ROOT
ATOM      1  C   UNL     1      -0.387  12.194  18.276  0.00  0.00    +0.000 C 
ATOM      2  N   UNL     1       0.004  11.084  19.127  0.00  0.00    +0.000 N 
ATOM      3  C   UNL     1      -1.014  10.437  19.931  0.00  0.00    +0.000 C 
ATOM      4  C   UNL     1      -0.476  10.281  21.304  0.00  0.00    +0.000 A 
ATOM      5  C   UNL     1      -0.843  10.834  22.527  0.00  0.00    +0.000 A 
ATOM      6  N   UNL     1      -0.104  10.242  23.540  0.00  0.00    +0.000 NA
ATOM      7  C   UNL     1       0.694   9.384  22.945  0.00  0.00    +0.000 A 
ATOM      8  N   UNL     1       0.551   9.405  21.582  0.00  0.00    +0.000 N 
ATOM      9  C   UNL     1       1.252   8.637  20.627  0.00  0.00    +0.000 A 
ATOM     10  C   UNL     1       1.612   7.317  20.933  0.00  0.00    +0.000 A 
ATOM     11  C   UNL     1       2.175   6.502  19.939  0.00  0.00    +0.000 A 
ATOM     12  C   UNL     1       2.439   7.000  18.656  0.00  0.00    +0.000 A 
ATOM     13  C   UNL     1       2.139   8.335  18.390  0.00  0.00    +0.000 A 
ATOM     14  C   UNL     1       1.529   9.151  19.352  0.00  0.00    +0.000 A 
ATOM     15  C   UNL     1       1.262  10.544  18.909  0.00  0.00    +0.000 C 
ATOM     16  O   UNL     1       2.143  11.128  18.283  0.00  0.00    +0.000 OA
ENDROOT
BRANCH  12  17
ATOM     17  N   UNL     1       2.903   6.219  17.584  0.00  0.00    +0.000 NA
ATOM     18  N   UNL     1       3.852   5.464  17.851  0.00  0.00    +0.000 NA
ATOM     19  N   UNL     1       4.712   4.753  18.092  0.00  0.00    +0.000 NA
ENDBRANCH  12  17
BRANCH   5  20
ATOM     20  C   UNL     1      -1.871  11.856  22.744  0.00  0.00    +0.000 C 
ATOM     21  O   UNL     1      -2.921  11.621  23.328  0.00  0.00    +0.000 OA
BRANCH  20  22
ATOM     22  O   UNL     1      -1.541  13.075  22.218  0.00  0.00    +0.000 OA
BRANCH  22  23
ATOM     23  C   UNL     1      -2.552  13.863  21.536  0.00  0.00    +0.000 C 
ATOM     24  C   UNL     1      -3.454  14.599  22.536  0.00  0.00    +0.000 C 
ATOM     25  C   UNL     1      -1.790  14.916  20.712  0.00  0.00    +0.000 C 
ATOM     26  C   UNL     1      -3.357  12.996  20.557  0.00  0.00    +0.000 C 
ENDBRANCH  22  23
ENDBRANCH  20  22
ENDBRANCH   5  20
TORSDOF 4
ENDMDL
MODEL 9
REMARK VINA RESULT:      -6.3      3.583      6.004
REMARK  Name = 
REMARK  8 active torsions:
REMARK  status: ('A' for Active; 'I' for Inactive)
REMARK    1  A    between atoms: C_1  and  N_2
REMARK    2  A    between atoms: C_5  and  C_6
REMARK    3  A    between atoms: C_6  and  O_8
REMARK    4  A    between atoms: O_8  and  C_9
REMARK    5  A    between atoms: C_9  and  C_10
REMARK    6  A    between atoms: C_9  and  C_11
REMARK    7  A    between atoms: C_9  and  C_12
REMARK    8  A    between atoms: C_19  and  N_20
REMARK                            x       y       z     vdW  Elec       q    Type
REMARK                         _______ _______ _______ _____ _____    ______ ____
ROOT
ATOM      1  C   UNL     1      -0.550  13.096  18.078  0.00  0.00    +0.000 C 
ATOM      2  N   UNL     1      -0.303  11.991  18.987  0.00  0.00    +0.000 N 
ATOM      3  C   UNL     1      -1.438  11.339  19.609  0.00  0.00    +0.000 C 
ATOM      4  C   UNL     1      -1.141  11.191  21.054  0.00  0.00    +0.000 A 
ATOM      5  C   UNL     1      -1.715  11.744  22.195  0.00  0.00    +0.000 A 
ATOM      6  N   UNL     1      -1.156  11.160  23.321  0.00  0.00    +0.000 NA
ATOM      7  C   UNL     1      -0.263  10.306  22.874  0.00  0.00    +0.000 A 
ATOM      8  N   UNL     1      -0.171  10.322  21.506  0.00  0.00    +0.000 N 
ATOM      9  C   UNL     1       0.687   9.556  20.687  0.00  0.00    +0.000 A 
ATOM     10  C   UNL     1       0.998   8.240  21.055  0.00  0.00    +0.000 A 
ATOM     11  C   UNL     1       1.727   7.426  20.175  0.00  0.00    +0.000 A 
ATOM     12  C   UNL     1       2.202   7.922  18.954  0.00  0.00    +0.000 A 
ATOM     13  C   UNL     1       1.944   9.254  18.635  0.00  0.00    +0.000 A 
ATOM     14  C   UNL     1       1.174  10.069  19.476  0.00  0.00    +0.000 A 
ATOM     15  C   UNL     1       0.977  11.458  18.989  0.00  0.00    +0.000 C 
ATOM     16  O   UNL     1       1.949  12.047  18.519  0.00  0.00    +0.000 OA
ENDROOT
BRANCH  12  17
ATOM     17  N   UNL     1       2.847   7.141  17.979  0.00  0.00    +0.000 NA
ATOM     18  N   UNL     1       3.685   6.336  18.416  0.00  0.00    +0.000 NA
ATOM     19  N   UNL     1       4.443   5.579  18.810  0.00  0.00    +0.000 NA
ENDBRANCH  12  17
BRANCH   5  20
ATOM     20  C   UNL     1      -2.771  12.760  22.230  0.00  0.00    +0.000 C 
ATOM     21  O   UNL     1      -3.742  12.726  21.486  0.00  0.00    +0.000 OA
BRANCH  20  22
ATOM     22  O   UNL     1      -2.548  13.741  23.157  0.00  0.00    +0.000 OA
BRANCH  22  23
ATOM     23  C   UNL     1      -3.517  13.966  24.215  0.00  0.00    +0.000 C 
ATOM     24  C   UNL     1      -2.888  14.719  25.395  0.00  0.00    +0.000 C 
ATOM     25  C   UNL     1      -4.614  14.857  23.609  0.00  0.00    +0.000 C 
ATOM     26  C   UNL     1      -4.172  12.647  24.651  0.00  0.00    +0.000 C 
ENDBRANCH  22  23
ENDBRANCH  20  22
ENDBRANCH   5  20
TORSDOF 4
ENDMDL
