MODEL 1
REMARK VINA RESULT:      -8.6      0.000      0.000
REMARK  Name = 
REMARK  6 active torsions:
REMARK  status: ('A' for Active; 'I' for Inactive)
REMARK    1  A    between atoms: C_1  and  C_2
REMARK    2  A    between atoms: N_11  and  C_12
REMARK    3  A    between atoms: C_12  and  C_13
REMARK    4  A    between atoms: C_17  and  C_19
REMARK    5  A    between atoms: C_19  and  C_20
REMARK    6  A    between atoms: C_19  and  C_21
REMARK                            x       y       z     vdW  Elec       q    Type
REMARK                         _______ _______ _______ _____ _____    ______ ____
ROOT
ATOM      1  C   UNL     1       7.818   7.389  17.439  0.00  0.00    +0.000 C 
ATOM      2  C   UNL     1       6.808   6.288  17.309  0.00  0.00    +0.000 A 
ATOM      3  C   UNL     1       6.936   5.326  16.309  0.00  0.00    +0.000 A 
ATOM      4  C   UNL     1       6.020   4.281  16.230  0.00  0.00    +0.000 A 
ATOM      5  C   UNL     1       4.972   4.147  17.155  0.00  0.00    +0.000 A 
ATOM      6  C   UNL     1       4.805   5.129  18.148  0.00  0.00    +0.000 A 
ATOM      7  C   UNL     1       5.728   6.198  18.202  0.00  0.00    +0.000 A 
ATOM      8  C   UNL     1       3.767   5.090  19.172  0.00  0.00    +0.000 A 
ATOM      9  N   UNL     1       3.171   6.225  19.698  0.00  0.00    +0.000 NA
ATOM     10  C   UNL     1       2.236   5.887  20.561  0.00  0.00    +0.000 A 
ATOM     11  N   UNL     1       1.404   6.732  21.201  0.00  0.00    +0.000 N 
ATOM     12  S   UNL     1       2.117   4.197  20.876  0.00  0.00    +0.000 S 
ATOM     13  C   UNL     1       3.334   3.906  19.723  0.00  0.00    +0.000 A 
ATOM     14  C   UNL     1       3.748   2.544  19.313  0.00  0.00    +0.000 C 
ATOM     15  C   UNL     1       3.375   2.395  17.843  0.00  0.00    +0.000 C 
ATOM     16  O   UNL     1       4.257   3.008  16.907  0.00  0.00    +0.000 OA
ATOM     17  H   UNL     1       0.657   6.362  21.777  0.00  0.00    +0.000 HD
ENDROOT
BRANCH  11  18
ATOM     18  C   UNL     1       1.404   8.153  20.920  0.00  0.00    +0.000 C 
BRANCH  18  19
ATOM     19  C   UNL     1      -0.047   8.656  20.802  0.00  0.00    +0.000 C 
ATOM     20  C   UNL     1      -0.117   9.890  19.887  0.00  0.00    +0.000 C 
ATOM     21  C   UNL     1       0.468  11.130  20.558  0.00  0.00    +0.000 C 
ATOM     22  N   UNL     1      -0.206  11.380  21.829  0.00  0.00    +0.000 N 
ATOM     23  C   UNL     1      -0.694  12.657  22.074  0.00  0.00    +0.000 C 
ATOM     24  O   UNL     1      -0.594  13.555  21.234  0.00  0.00    +0.000 OA
ATOM     25  C   UNL     1      -0.145  10.271  22.785  0.00  0.00    +0.000 C 
ATOM     26  C   UNL     1      -0.691   8.987  22.163  0.00  0.00    +0.000 C 
BRANCH  23  27
ATOM     27  C   UNL     1      -1.445  12.918  23.380  0.00  0.00    +0.000 C 
ATOM     28  C   UNL     1      -1.306  14.385  23.791  0.00  0.00    +0.000 C 
ATOM     29  C   UNL     1      -2.920  12.559  23.201  0.00  0.00    +0.000 C 
ENDBRANCH  23  27
ENDBRANCH  18  19
ENDBRANCH  11  18
TORSDOF 3
ENDMDL
MODEL 2
REMARK VINA RESULT:      -8.2      1.554      1.898
REMARK  Name = 
REMARK  6 active torsions:
REMARK  status: ('A' for Active; 'I' for Inactive)
REMARK    1  A    between atoms: C_1  and  C_2
REMARK    2  A    between atoms: N_11  and  C_12
REMARK    3  A    between atoms: C_12  and  C_13
REMARK    4  A    between atoms: C_17  and  C_19
REMARK    5  A    between atoms: C_19  and  C_20
REMARK    6  A    between atoms: C_19  and  C_21
REMARK                            x       y       z     vdW  Elec       q    Type
REMARK                         _______ _______ _______ _____ _____    ______ ____
ROOT
ATOM      1  C   UNL     1       7.756   7.251  17.390  0.00  0.00    +0.000 C 
ATOM      2  C   UNL     1       6.632   6.272  17.226  0.00  0.00    +0.000 A 
ATOM      3  C   UNL     1       6.672   5.315  16.214  0.00  0.00    +0.000 A 
ATOM      4  C   UNL     1       5.646   4.379  16.103  0.00  0.00    +0.000 A 
ATOM      5  C   UNL     1       4.572   4.352  17.007  0.00  0.00    +0.000 A 
ATOM      6  C   UNL     1       4.497   5.334  18.012  0.00  0.00    +0.000 A 
ATOM      7  C   UNL     1       5.532   6.291  18.098  0.00  0.00    +0.000 A 
ATOM      8  C   UNL     1       3.442   5.398  19.016  0.00  0.00    +0.000 A 
ATOM      9  N   UNL     1       2.965   6.585  19.548  0.00  0.00    +0.000 NA
ATOM     10  C   UNL     1       1.982   6.343  20.389  0.00  0.00    +0.000 A 
ATOM     11  N   UNL     1       1.237   7.268  21.026  0.00  0.00    +0.000 N 
ATOM     12  S   UNL     1       1.669   4.674  20.676  0.00  0.00    +0.000 S 
ATOM     13  C   UNL     1       2.868   4.263  19.541  0.00  0.00    +0.000 A 
ATOM     14  C   UNL     1       3.135   2.869  19.118  0.00  0.00    +0.000 C 
ATOM     15  C   UNL     1       2.777   2.780  17.640  0.00  0.00    +0.000 C 
ATOM     16  O   UNL     1       3.740   3.303  16.729  0.00  0.00    +0.000 OA
ATOM     17  H   UNL     1       0.442   6.977  21.583  0.00  0.00    +0.000 HD
ENDROOT
BRANCH  11  18
ATOM     18  C   UNL     1       1.401   8.683  20.766  0.00  0.00    +0.000 C 
BRANCH  18  19
ATOM     19  C   UNL     1       0.047   9.399  20.928  0.00  0.00    +0.000 C 
ATOM     20  C   UNL     1      -0.587   9.672  19.555  0.00  0.00    +0.000 C 
ATOM     21  C   UNL     1       0.136  10.788  18.805  0.00  0.00    +0.000 C 
ATOM     22  N   UNL     1       0.171  12.000  19.618  0.00  0.00    +0.000 N 
ATOM     23  C   UNL     1      -0.245  13.192  19.038  0.00  0.00    +0.000 C 
ATOM     24  O   UNL     1      -0.664  13.230  17.878  0.00  0.00    +0.000 OA
ATOM     25  C   UNL     1       0.807  11.844  20.929  0.00  0.00    +0.000 C 
ATOM     26  C   UNL     1       0.145  10.718  21.722  0.00  0.00    +0.000 C 
BRANCH  23  27
ATOM     27  C   UNL     1      -0.260  14.459  19.894  0.00  0.00    +0.000 C 
ATOM     28  C   UNL     1       0.053  15.686  19.035  0.00  0.00    +0.000 C 
ATOM     29  C   UNL     1      -1.630  14.613  20.552  0.00  0.00    +0.000 C 
ENDBRANCH  23  27
ENDBRANCH  18  19
ENDBRANCH  11  18
TORSDOF 3
ENDMDL
MODEL 3
REMARK VINA RESULT:      -7.8      1.853      2.269
REMARK  Name = 
REMARK  6 active torsions:
REMARK  status: ('A' for Active; 'I' for Inactive)
REMARK    1  A    between atoms: C_1  and  C_2
REMARK    2  A    between atoms: N_11  and  C_12
REMARK    3  A    between atoms: C_12  and  C_13
REMARK    4  A    between atoms: C_17  and  C_19
REMARK    5  A    between atoms: C_19  and  C_20
REMARK    6  A    between atoms: C_19  and  C_21
REMARK                            x       y       z     vdW  Elec       q    Type
REMARK                         _______ _______ _______ _____ _____    ______ ____
ROOT
ATOM      1  C   UNL     1       8.043   6.860  18.320  0.00  0.00    +0.000 C 
ATOM      2  C   UNL     1       6.865   6.031  17.903  0.00  0.00    +0.000 A 
ATOM      3  C   UNL     1       6.950   5.188  16.797  0.00  0.00    +0.000 A 
ATOM      4  C   UNL     1       5.866   4.386  16.450  0.00  0.00    +0.000 A 
ATOM      5  C   UNL     1       4.683   4.379  17.205  0.00  0.00    +0.000 A 
ATOM      6  C   UNL     1       4.565   5.251  18.302  0.00  0.00    +0.000 A 
ATOM      7  C   UNL     1       5.664   6.076  18.629  0.00  0.00    +0.000 A 
ATOM      8  C   UNL     1       3.394   5.321  19.170  0.00  0.00    +0.000 A 
ATOM      9  N   UNL     1       2.964   6.490  19.777  0.00  0.00    +0.000 NA
ATOM     10  C   UNL     1       1.859   6.268  20.456  0.00  0.00    +0.000 A 
ATOM     11  N   UNL     1       1.124   7.194  21.102  0.00  0.00    +0.000 N 
ATOM     12  S   UNL     1       1.355   4.621  20.501  0.00  0.00    +0.000 S 
ATOM     13  C   UNL     1       2.652   4.206  19.481  0.00  0.00    +0.000 A 
ATOM     14  C   UNL     1       2.842   2.844  18.931  0.00  0.00    +0.000 C 
ATOM     15  C   UNL     1       2.679   2.952  17.420  0.00  0.00    +0.000 C 
ATOM     16  O   UNL     1       3.801   3.462  16.704  0.00  0.00    +0.000 OA
ATOM     17  H   UNL     1       0.238   6.933  21.518  0.00  0.00    +0.000 HD
ENDROOT
BRANCH  11  18
ATOM     18  C   UNL     1       1.453   8.603  21.035  0.00  0.00    +0.000 C 
BRANCH  18  19
ATOM     19  C   UNL     1       0.331   9.362  20.303  0.00  0.00    +0.000 C 
ATOM     20  C   UNL     1       0.772   9.736  18.878  0.00  0.00    +0.000 C 
ATOM     21  C   UNL     1       1.803  10.862  18.879  0.00  0.00    +0.000 C 
ATOM     22  N   UNL     1       1.278  12.025  19.588  0.00  0.00    +0.000 N 
ATOM     23  C   UNL     1       1.346  13.263  18.961  0.00  0.00    +0.000 C 
ATOM     24  O   UNL     1       1.807  13.382  17.823  0.00  0.00    +0.000 OA
ATOM     25  C   UNL     1       0.878  11.771  20.975  0.00  0.00    +0.000 C 
ATOM     26  C   UNL     1      -0.136  10.630  21.047  0.00  0.00    +0.000 C 
BRANCH  23  27
ATOM     27  C   UNL     1       0.755  14.480  19.674  0.00  0.00    +0.000 C 
ATOM     28  C   UNL     1       1.840  15.528  19.927  0.00  0.00    +0.000 C 
ATOM     29  C   UNL     1      -0.364  15.076  18.820  0.00  0.00    +0.000 C 
ENDBRANCH  23  27
ENDBRANCH  18  19
ENDBRANCH  11  18
TORSDOF 3
ENDMDL
MODEL 4
REMARK VINA RESULT:      -7.7      1.048      1.562
REMARK  Name = 
REMARK  6 active torsions:
REMARK  status: ('A' for Active; 'I' for Inactive)
REMARK    1  A    between atoms: C_1  and  C_2
REMARK    2  A    between atoms: N_11  and  C_12
REMARK    3  A    between atoms: C_12  and  C_13
REMARK    4  A    between atoms: C_17  and  C_19
REMARK    5  A    between atoms: C_19  and  C_20
REMARK    6  A    between atoms: C_19  and  C_21
REMARK                            x       y       z     vdW  Elec       q    Type
REMARK                         _______ _______ _______ _____ _____    ______ ____
ROOT
ATOM      1  C   UNL     1       7.716   7.634  17.403  0.00  0.00    +0.000 C 
ATOM      2  C   UNL     1       6.747   6.489  17.367  0.00  0.00    +0.000 A 
ATOM      3  C   UNL     1       6.964   5.406  16.518  0.00  0.00    +0.000 A 
ATOM      4  C   UNL     1       6.083   4.328  16.530  0.00  0.00    +0.000 A 
ATOM      5  C   UNL     1       4.984   4.283  17.402  0.00  0.00    +0.000 A 
ATOM      6  C   UNL     1       4.728   5.384  18.240  0.00  0.00    +0.000 A 
ATOM      7  C   UNL     1       5.616   6.483  18.200  0.00  0.00    +0.000 A 
ATOM      8  C   UNL     1       3.630   5.447  19.197  0.00  0.00    +0.000 A 
ATOM      9  N   UNL     1       2.971   6.621  19.526  0.00  0.00    +0.000 NA
ATOM     10  C   UNL     1       1.993   6.370  20.371  0.00  0.00    +0.000 A 
ATOM     11  N   UNL     1       1.100   7.264  20.839  0.00  0.00    +0.000 N 
ATOM     12  S   UNL     1       1.901   4.735  20.908  0.00  0.00    +0.000 S 
ATOM     13  C   UNL     1       3.195   4.335  19.879  0.00  0.00    +0.000 A 
ATOM     14  C   UNL     1       3.671   2.945  19.685  0.00  0.00    +0.000 C 
ATOM     15  C   UNL     1       3.395   2.584  18.230  0.00  0.00    +0.000 C 
ATOM     16  O   UNL     1       4.318   3.097  17.272  0.00  0.00    +0.000 OA
ATOM     17  H   UNL     1       0.328   6.949  21.416  0.00  0.00    +0.000 HD
ENDROOT
BRANCH  11  18
ATOM     18  C   UNL     1       1.078   8.632  20.366  0.00  0.00    +0.000 C 
BRANCH  18  19
ATOM     19  C   UNL     1       1.396   9.587  21.532  0.00  0.00    +0.000 C 
ATOM     20  C   UNL     1       0.477   9.300  22.731  0.00  0.00    +0.000 C 
ATOM     21  C   UNL     1      -0.954   9.770  22.476  0.00  0.00    +0.000 C 
ATOM     22  N   UNL     1      -0.964  11.189  22.133  0.00  0.00    +0.000 N 
ATOM     23  C   UNL     1      -1.836  12.025  22.821  0.00  0.00    +0.000 C 
ATOM     24  O   UNL     1      -2.563  11.594  23.720  0.00  0.00    +0.000 OA
ATOM     25  C   UNL     1      -0.152  11.546  20.967  0.00  0.00    +0.000 C 
ATOM     26  C   UNL     1       1.291  11.077  21.147  0.00  0.00    +0.000 C 
BRANCH  23  27
ATOM     27  C   UNL     1      -1.821  13.520  22.505  0.00  0.00    +0.000 C 
ATOM     28  C   UNL     1      -3.160  13.951  21.903  0.00  0.00    +0.000 C 
ATOM     29  C   UNL     1      -1.542  14.308  23.785  0.00  0.00    +0.000 C 
ENDBRANCH  23  27
ENDBRANCH  18  19
ENDBRANCH  11  18
TORSDOF 3
ENDMDL
MODEL 5
REMARK VINA RESULT:      -7.5      2.150      3.148
REMARK  Name = 
REMARK  6 active torsions:
REMARK  status: ('A' for Active; 'I' for Inactive)
REMARK    1  A    between atoms: C_1  and  C_2
REMARK    2  A    between atoms: N_11  and  C_12
REMARK    3  A    between atoms: C_12  and  C_13
REMARK    4  A    between atoms: C_17  and  C_19
REMARK    5  A    between atoms: C_19  and  C_20
REMARK    6  A    between atoms: C_19  and  C_21
REMARK                            x       y       z     vdW  Elec       q    Type
REMARK                         _______ _______ _______ _____ _____    ______ ____
ROOT
ATOM      1  C   UNL     1       6.030   5.951  15.869  0.00  0.00    +0.000 C 
ATOM      2  C   UNL     1       4.856   5.404  16.625  0.00  0.00    +0.000 A 
ATOM      3  C   UNL     1       4.505   4.061  16.508  0.00  0.00    +0.000 A 
ATOM      4  C   UNL     1       3.443   3.554  17.253  0.00  0.00    +0.000 A 
ATOM      5  C   UNL     1       2.722   4.357  18.151  0.00  0.00    +0.000 A 
ATOM      6  C   UNL     1       3.039   5.723  18.254  0.00  0.00    +0.000 A 
ATOM      7  C   UNL     1       4.103   6.230  17.475  0.00  0.00    +0.000 A 
ATOM      8  C   UNL     1       2.374   6.652  19.162  0.00  0.00    +0.000 A 
ATOM      9  N   UNL     1       2.172   7.991  18.870  0.00  0.00    +0.000 NA
ATOM     10  C   UNL     1       1.503   8.571  19.844  0.00  0.00    +0.000 A 
ATOM     11  N   UNL     1       1.065   9.845  19.857  0.00  0.00    +0.000 N 
ATOM     12  S   UNL     1       1.198   7.568  21.211  0.00  0.00    +0.000 S 
ATOM     13  C   UNL     1       1.934   6.263  20.405  0.00  0.00    +0.000 A 
ATOM     14  C   UNL     1       1.962   4.887  20.955  0.00  0.00    +0.000 C 
ATOM     15  C   UNL     1       1.137   4.019  20.013  0.00  0.00    +0.000 C 
ATOM     16  O   UNL     1       1.782   3.614  18.809  0.00  0.00    +0.000 OA
ATOM     17  H   UNL     1       0.479  10.168  20.618  0.00  0.00    +0.000 HD
ENDROOT
BRANCH  11  18
ATOM     18  C   UNL     1       1.223  10.712  18.708  0.00  0.00    +0.000 C 
BRANCH  18  19
ATOM     19  C   UNL     1       0.885  12.162  19.103  0.00  0.00    +0.000 C 
ATOM     20  C   UNL     1       0.752  12.288  20.630  0.00  0.00    +0.000 C 
ATOM     21  C   UNL     1      -0.530  11.638  21.146  0.00  0.00    +0.000 C 
ATOM     22  N   UNL     1      -1.691  12.210  20.468  0.00  0.00    +0.000 N 
ATOM     23  C   UNL     1      -2.749  12.662  21.247  0.00  0.00    +0.000 C 
ATOM     24  O   UNL     1      -2.705  12.616  22.479  0.00  0.00    +0.000 OA
ATOM     25  C   UNL     1      -1.673  12.088  19.008  0.00  0.00    +0.000 C 
ATOM     26  C   UNL     1      -0.396  12.695  18.429  0.00  0.00    +0.000 C 
BRANCH  23  27
ATOM     27  C   UNL     1      -3.948  13.307  20.552  0.00  0.00    +0.000 C 
ATOM     28  C   UNL     1      -5.238  12.570  20.922  0.00  0.00    +0.000 C 
ATOM     29  C   UNL     1      -4.046  14.776  20.962  0.00  0.00    +0.000 C 
ENDBRANCH  23  27
ENDBRANCH  18  19
ENDBRANCH  11  18
TORSDOF 3
ENDMDL
MODEL 6
REMARK VINA RESULT:      -7.4      2.186      3.822
REMARK  Name = 
REMARK  6 active torsions:
REMARK  status: ('A' for Active; 'I' for Inactive)
REMARK    1  A    between atoms: C_1  and  C_2
REMARK    2  A    between atoms: N_11  and  C_12
REMARK    3  A    between atoms: C_12  and  C_13
REMARK    4  A    between atoms: C_17  and  C_19
REMARK    5  A    between atoms: C_19  and  C_20
REMARK    6  A    between atoms: C_19  and  C_21
REMARK                            x       y       z     vdW  Elec       q    Type
REMARK                         _______ _______ _______ _____ _____    ______ ____
ROOT
ATOM      1  C   UNL     1       0.409   2.070  18.866  0.00  0.00    +0.000 C 
ATOM      2  C   UNL     1       1.783   2.658  19.000  0.00  0.00    +0.000 A 
ATOM      3  C   UNL     1       2.830   1.896  19.512  0.00  0.00    +0.000 A 
ATOM      4  C   UNL     1       4.111   2.438  19.585  0.00  0.00    +0.000 A 
ATOM      5  C   UNL     1       4.391   3.735  19.127  0.00  0.00    +0.000 A 
ATOM      6  C   UNL     1       3.338   4.532  18.642  0.00  0.00    +0.000 A 
ATOM      7  C   UNL     1       2.039   3.978  18.596  0.00  0.00    +0.000 A 
ATOM      8  C   UNL     1       3.506   5.885  18.125  0.00  0.00    +0.000 A 
ATOM      9  N   UNL     1       2.548   6.877  18.255  0.00  0.00    +0.000 NA
ATOM     10  C   UNL     1       2.991   8.005  17.743  0.00  0.00    +0.000 A 
ATOM     11  N   UNL     1       2.354   9.193  17.769  0.00  0.00    +0.000 N 
ATOM     12  S   UNL     1       4.526   7.897  16.969  0.00  0.00    +0.000 S 
ATOM     13  C   UNL     1       4.630   6.261  17.425  0.00  0.00    +0.000 A 
ATOM     14  C   UNL     1       5.834   5.432  17.189  0.00  0.00    +0.000 C 
ATOM     15  C   UNL     1       6.392   5.064  18.559  0.00  0.00    +0.000 C 
ATOM     16  O   UNL     1       5.726   4.006  19.242  0.00  0.00    +0.000 OA
ATOM     17  H   UNL     1       2.823  10.023  17.426  0.00  0.00    +0.000 HD
ENDROOT
BRANCH  11  18
ATOM     18  C   UNL     1       1.099   9.364  18.471  0.00  0.00    +0.000 C 
BRANCH  18  19
ATOM     19  C   UNL     1       0.760  10.863  18.566  0.00  0.00    +0.000 C 
ATOM     20  C   UNL     1       1.426  11.491  19.801  0.00  0.00    +0.000 C 
ATOM     21  C   UNL     1       0.749  11.054  21.097  0.00  0.00    +0.000 C 
ATOM     22  N   UNL     1      -0.676  11.370  21.052  0.00  0.00    +0.000 N 
ATOM     23  C   UNL     1      -1.231  12.059  22.123  0.00  0.00    +0.000 C 
ATOM     24  O   UNL     1      -0.540  12.426  23.077  0.00  0.00    +0.000 OA
ATOM     25  C   UNL     1      -1.404  10.769  19.931  0.00  0.00    +0.000 C 
ATOM     26  C   UNL     1      -0.756  11.145  18.599  0.00  0.00    +0.000 C 
BRANCH  23  27
ATOM     27  C   UNL     1      -2.711  12.439  22.065  0.00  0.00    +0.000 C 
ATOM     28  C   UNL     1      -3.320  12.426  23.468  0.00  0.00    +0.000 C 
ATOM     29  C   UNL     1      -2.857  13.826  21.440  0.00  0.00    +0.000 C 
ENDBRANCH  23  27
ENDBRANCH  18  19
ENDBRANCH  11  18
TORSDOF 3
ENDMDL
MODEL 7
REMARK VINA RESULT:      -7.3      1.932      2.655
REMARK  Name = 
REMARK  6 active torsions:
REMARK  status: ('A' for Active; 'I' for Inactive)
REMARK    1  A    between atoms: C_1  and  C_2
REMARK    2  A    between atoms: N_11  and  C_12
REMARK    3  A    between atoms: C_12  and  C_13
REMARK    4  A    between atoms: C_17  and  C_19
REMARK    5  A    between atoms: C_19  and  C_20
REMARK    6  A    between atoms: C_19  and  C_21
REMARK                            x       y       z     vdW  Elec       q    Type
REMARK                         _______ _______ _______ _____ _____    ______ ____
ROOT
ATOM      1  C   UNL     1       6.101   5.882  15.910  0.00  0.00    +0.000 C 
ATOM      2  C   UNL     1       4.906   5.341  16.637  0.00  0.00    +0.000 A 
ATOM      3  C   UNL     1       4.536   4.005  16.492  0.00  0.00    +0.000 A 
ATOM      4  C   UNL     1       3.455   3.503  17.211  0.00  0.00    +0.000 A 
ATOM      5  C   UNL     1       2.732   4.303  18.111  0.00  0.00    +0.000 A 
ATOM      6  C   UNL     1       3.067   5.662  18.241  0.00  0.00    +0.000 A 
ATOM      7  C   UNL     1       4.152   6.165  17.488  0.00  0.00    +0.000 A 
ATOM      8  C   UNL     1       2.402   6.586  19.153  0.00  0.00    +0.000 A 
ATOM      9  N   UNL     1       2.225   7.933  18.880  0.00  0.00    +0.000 NA
ATOM     10  C   UNL     1       1.549   8.507  19.852  0.00  0.00    +0.000 A 
ATOM     11  N   UNL     1       1.130   9.788  19.879  0.00  0.00    +0.000 N 
ATOM     12  S   UNL     1       1.206   7.487  21.197  0.00  0.00    +0.000 S 
ATOM     13  C   UNL     1       1.935   6.184  20.383  0.00  0.00    +0.000 A 
ATOM     14  C   UNL     1       1.933   4.800  20.911  0.00  0.00    +0.000 C 
ATOM     15  C   UNL     1       1.111   3.960  19.941  0.00  0.00    +0.000 C 
ATOM     16  O   UNL     1       1.769   3.564  18.741  0.00  0.00    +0.000 OA
ATOM     17  H   UNL     1       0.536  10.107  20.635  0.00  0.00    +0.000 HD
ENDROOT
BRANCH  11  18
ATOM     18  C   UNL     1       1.320  10.671  18.747  0.00  0.00    +0.000 C 
BRANCH  18  19
ATOM     19  C   UNL     1       0.122  11.632  18.634  0.00  0.00    +0.000 C 
ATOM     20  C   UNL     1       0.593  13.093  18.719  0.00  0.00    +0.000 C 
ATOM     21  C   UNL     1       1.018  13.473  20.135  0.00  0.00    +0.000 C 
ATOM     22  N   UNL     1      -0.071  13.217  21.073  0.00  0.00    +0.000 N 
ATOM     23  C   UNL     1      -0.441  14.234  21.945  0.00  0.00    +0.000 C 
ATOM     24  O   UNL     1       0.110  15.338  21.914  0.00  0.00    +0.000 OA
ATOM     25  C   UNL     1      -0.551  11.832  21.096  0.00  0.00    +0.000 C 
ATOM     26  C   UNL     1      -0.966  11.379  19.698  0.00  0.00    +0.000 C 
BRANCH  23  27
ATOM     27  C   UNL     1      -1.612  13.994  22.898  0.00  0.00    +0.000 C 
ATOM     28  C   UNL     1      -1.356  14.683  24.240  0.00  0.00    +0.000 C 
ATOM     29  C   UNL     1      -2.898  14.528  22.269  0.00  0.00    +0.000 C 
ENDBRANCH  23  27
ENDBRANCH  18  19
ENDBRANCH  11  18
TORSDOF 3
ENDMDL
MODEL 8
REMARK VINA RESULT:      -7.3      2.804      3.746
REMARK  Name = 
REMARK  6 active torsions:
REMARK  status: ('A' for Active; 'I' for Inactive)
REMARK    1  A    between atoms: C_1  and  C_2
REMARK    2  A    between atoms: N_11  and  C_12
REMARK    3  A    between atoms: C_12  and  C_13
REMARK    4  A    between atoms: C_17  and  C_19
REMARK    5  A    between atoms: C_19  and  C_20
REMARK    6  A    between atoms: C_19  and  C_21
REMARK                            x       y       z     vdW  Elec       q    Type
REMARK                         _______ _______ _______ _____ _____    ______ ____
ROOT
ATOM      1  C   UNL     1       6.102   6.438  16.036  0.00  0.00    +0.000 C 
ATOM      2  C   UNL     1       4.939   5.806  16.743  0.00  0.00    +0.000 A 
ATOM      3  C   UNL     1       4.667   4.449  16.579  0.00  0.00    +0.000 A 
ATOM      4  C   UNL     1       3.615   3.864  17.279  0.00  0.00    +0.000 A 
ATOM      5  C   UNL     1       2.826   4.601  18.178  0.00  0.00    +0.000 A 
ATOM      6  C   UNL     1       3.064   5.979  18.327  0.00  0.00    +0.000 A 
ATOM      7  C   UNL     1       4.119   6.565  17.592  0.00  0.00    +0.000 A 
ATOM      8  C   UNL     1       2.324   6.844  19.239  0.00  0.00    +0.000 A 
ATOM      9  N   UNL     1       2.056   8.177  18.978  0.00  0.00    +0.000 NA
ATOM     10  C   UNL     1       1.330   8.692  19.948  0.00  0.00    +0.000 A 
ATOM     11  N   UNL     1       0.821   9.939  19.982  0.00  0.00    +0.000 N 
ATOM     12  S   UNL     1       1.043   7.635  21.278  0.00  0.00    +0.000 S 
ATOM     13  C   UNL     1       1.872   6.396  20.459  0.00  0.00    +0.000 A 
ATOM     14  C   UNL     1       1.962   5.009  20.972  0.00  0.00    +0.000 C 
ATOM     15  C   UNL     1       1.212   4.124  19.984  0.00  0.00    +0.000 C 
ATOM     16  O   UNL     1       1.911   3.789  18.788  0.00  0.00    +0.000 OA
ATOM     17  H   UNL     1       0.197  10.208  20.734  0.00  0.00    +0.000 HD
ENDROOT
BRANCH  11  18
ATOM     18  C   UNL     1       0.962  10.846  18.862  0.00  0.00    +0.000 C 
BRANCH  18  19
ATOM     19  C   UNL     1       1.704  12.117  19.315  0.00  0.00    +0.000 C 
ATOM     20  C   UNL     1       1.159  12.607  20.667  0.00  0.00    +0.000 C 
ATOM     21  C   UNL     1      -0.229  13.228  20.531  0.00  0.00    +0.000 C 
ATOM     22  N   UNL     1      -0.202  14.311  19.552  0.00  0.00    +0.000 N 
ATOM     23  C   UNL     1      -0.744  15.538  19.914  0.00  0.00    +0.000 C 
ATOM     24  O   UNL     1      -1.209  15.726  21.041  0.00  0.00    +0.000 OA
ATOM     25  C   UNL     1       0.258  13.921  18.216  0.00  0.00    +0.000 C 
ATOM     26  C   UNL     1       1.635  13.264  18.286  0.00  0.00    +0.000 C 
BRANCH  23  27
ATOM     27  C   UNL     1      -0.677  16.693  18.915  0.00  0.00    +0.000 C 
ATOM     28  C   UNL     1      -1.844  17.657  19.137  0.00  0.00    +0.000 C 
ATOM     29  C   UNL     1       0.652  17.430  19.077  0.00  0.00    +0.000 C 
ENDBRANCH  23  27
ENDBRANCH  18  19
ENDBRANCH  11  18
TORSDOF 3
ENDMDL
MODEL 9
REMARK VINA RESULT:      -7.3      3.157      3.925
REMARK  Name = 
REMARK  6 active torsions:
REMARK  status: ('A' for Active; 'I' for Inactive)
REMARK    1  A    between atoms: C_1  and  C_2
REMARK    2  A    between atoms: N_11  and  C_12
REMARK    3  A    between atoms: C_12  and  C_13
REMARK    4  A    between atoms: C_17  and  C_19
REMARK    5  A    between atoms: C_19  and  C_20
REMARK    6  A    between atoms: C_19  and  C_21
REMARK                            x       y       z     vdW  Elec       q    Type
REMARK                         _______ _______ _______ _____ _____    ______ ____
ROOT
ATOM      1  C   UNL     1       6.134   6.256  16.097  0.00  0.00    +0.000 C 
ATOM      2  C   UNL     1       4.937   5.647  16.766  0.00  0.00    +0.000 A 
ATOM      3  C   UNL     1       4.602   4.315  16.536  0.00  0.00    +0.000 A 
ATOM      4  C   UNL     1       3.517   3.748  17.201  0.00  0.00    +0.000 A 
ATOM      5  C   UNL     1       2.757   4.478  18.128  0.00  0.00    +0.000 A 
ATOM      6  C   UNL     1       3.058   5.835  18.344  0.00  0.00    +0.000 A 
ATOM      7  C   UNL     1       4.146   6.404  17.645  0.00  0.00    +0.000 A 
ATOM      8  C   UNL     1       2.352   6.690  19.292  0.00  0.00    +0.000 A 
ATOM      9  N   UNL     1       2.149   8.046  19.093  0.00  0.00    +0.000 NA
ATOM     10  C   UNL     1       1.440   8.548  20.081  0.00  0.00    +0.000 A 
ATOM     11  N   UNL     1       0.991   9.815  20.172  0.00  0.00    +0.000 N 
ATOM     12  S   UNL     1       1.093   7.444  21.358  0.00  0.00    +0.000 S 
ATOM     13  C   UNL     1       1.869   6.207  20.486  0.00  0.00    +0.000 A 
ATOM     14  C   UNL     1       1.889   4.795  20.934  0.00  0.00    +0.000 C 
ATOM     15  C   UNL     1       1.106   3.994  19.899  0.00  0.00    +0.000 C 
ATOM     16  O   UNL     1       1.799   3.683  18.693  0.00  0.00    +0.000 OA
ATOM     17  H   UNL     1       0.374  10.077  20.932  0.00  0.00    +0.000 HD
ENDROOT
BRANCH  11  18
ATOM     18  C   UNL     1       1.184  10.766  19.096  0.00  0.00    +0.000 C 
BRANCH  18  19
ATOM     19  C   UNL     1       0.482  12.091  19.446  0.00  0.00    +0.000 C 
ATOM     20  C   UNL     1       0.610  13.093  18.286  0.00  0.00    +0.000 C 
ATOM     21  C   UNL     1       2.028  13.646  18.166  0.00  0.00    +0.000 C 
ATOM     22  N   UNL     1       2.441  14.250  19.429  0.00  0.00    +0.000 N 
ATOM     23  C   UNL     1       2.970  15.535  19.402  0.00  0.00    +0.000 C 
ATOM     24  O   UNL     1       3.062  16.169  18.347  0.00  0.00    +0.000 OA
ATOM     25  C   UNL     1       2.399  13.350  20.585  0.00  0.00    +0.000 C 
ATOM     26  C   UNL     1       1.009  12.737  20.745  0.00  0.00    +0.000 C 
BRANCH  23  27
ATOM     27  C   UNL     1       3.360  16.197  20.723  0.00  0.00    +0.000 C 
ATOM     28  C   UNL     1       4.615  17.053  20.541  0.00  0.00    +0.000 C 
ATOM     29  C   UNL     1       2.202  17.061  21.222  0.00  0.00    +0.000 C 
ENDBRANCH  23  27
ENDBRANCH  18  19
ENDBRANCH  11  18
TORSDOF 3
ENDMDL
