MODEL 1
REMARK VINA RESULT:      -8.1      0.000      0.000
REMARK  Name = 
REMARK  3 active torsions:
REMARK  status: ('A' for Active; 'I' for Inactive)
REMARK    1  A    between atoms: C_1  and  C_17
REMARK    2  A    between atoms: C_2  and  C_3
REMARK    3  A    between atoms: C_8  and  C_9
REMARK                            x       y       z     vdW  Elec       q    Type
REMARK                         _______ _______ _______ _____ _____    ______ ____
ROOT
ATOM      1  C   UNL     1       3.697   6.585  18.965  0.00  0.00    +0.000 A 
ATOM      2  N   UNL     1       4.730   5.846  19.319  0.00  0.00    +0.000 NA
ATOM      3  C   UNL     1       5.353   5.497  18.149  0.00  0.00    +0.000 A 
ATOM      4  C   UNL     1       6.463   4.666  17.940  0.00  0.00    +0.000 A 
ATOM      5  C   UNL     1       6.857   4.388  16.624  0.00  0.00    +0.000 A 
ATOM      6  C   UNL     1       6.174   4.952  15.537  0.00  0.00    +0.000 A 
ATOM      7  C   UNL     1       5.088   5.820  15.731  0.00  0.00    +0.000 A 
ATOM      8  C   UNL     1       4.706   6.058  17.053  0.00  0.00    +0.000 A 
ATOM      9  N   UNL     1       3.698   6.803  17.609  0.00  0.00    +0.000 N 
ATOM     10  H   UNL     1       3.016   7.350  17.102  0.00  0.00    +0.000 HD
ENDROOT
BRANCH   6  11
ATOM     11  C   UNL     1       6.633   4.658  14.158  0.00  0.00    +0.000 C 
ATOM     12  N   UNL     1       7.495   5.431  13.547  0.00  0.00    +0.000 NA
ATOM     13  C   UNL     1       7.702   4.804  12.216  0.00  0.00    +0.000 C 
ATOM     14  C   UNL     1       6.806   3.565  12.152  0.00  0.00    +0.000 C 
ATOM     15  N   UNL     1       6.190   3.560  13.461  0.00  0.00    +0.000 N 
ATOM     16  H   UNL     1       5.191   3.386  13.493  0.00  0.00    +0.000 HD
ENDBRANCH   6  11
BRANCH   1  18
ATOM     17  C   UNL     1       1.699   6.216  20.338  0.00  0.00    +0.000 C 
ATOM     18  C   UNL     1       2.579   7.010  19.707  0.00  0.00    +0.000 C 
BRANCH  17  19
ATOM     19  C   UNL     1       1.605   4.751  20.439  0.00  0.00    +0.000 A 
ATOM     20  C   UNL     1       1.038   4.051  19.362  0.00  0.00    +0.000 A 
ATOM     21  C   UNL     1       1.016   2.654  19.343  0.00  0.00    +0.000 A 
ATOM     22  C   UNL     1       1.572   1.936  20.396  0.00  0.00    +0.000 A 
ATOM     23  C   UNL     1       2.135   2.615  21.474  0.00  0.00    +0.000 A 
ATOM     24  C   UNL     1       2.157   4.013  21.493  0.00  0.00    +0.000 A 
ENDBRANCH  17  19
ENDBRANCH   1  18
TORSDOF 3
ENDMDL
MODEL 2
REMARK VINA RESULT:      -7.8      0.271      1.046
REMARK  Name = 
REMARK  3 active torsions:
REMARK  status: ('A' for Active; 'I' for Inactive)
REMARK    1  A    between atoms: C_1  and  C_17
REMARK    2  A    between atoms: C_2  and  C_3
REMARK    3  A    between atoms: C_8  and  C_9
REMARK                            x       y       z     vdW  Elec       q    Type
REMARK                         _______ _______ _______ _____ _____    ______ ____
ROOT
ATOM      1  C   UNL     1       3.868   6.541  18.916  0.00  0.00    +0.000 A 
ATOM      2  N   UNL     1       4.951   5.864  19.244  0.00  0.00    +0.000 NA
ATOM      3  C   UNL     1       5.542   5.514  18.057  0.00  0.00    +0.000 A 
ATOM      4  C   UNL     1       6.683   4.734  17.821  0.00  0.00    +0.000 A 
ATOM      5  C   UNL     1       7.035   4.440  16.497  0.00  0.00    +0.000 A 
ATOM      6  C   UNL     1       6.279   4.939  15.427  0.00  0.00    +0.000 A 
ATOM      7  C   UNL     1       5.159   5.756  15.645  0.00  0.00    +0.000 A 
ATOM      8  C   UNL     1       4.821   6.011  16.976  0.00  0.00    +0.000 A 
ATOM      9  N   UNL     1       3.801   6.720  17.557  0.00  0.00    +0.000 N 
ATOM     10  H   UNL     1       3.071   7.219  17.065  0.00  0.00    +0.000 HD
ENDROOT
BRANCH   6  11
ATOM     11  C   UNL     1       6.694   4.630  14.038  0.00  0.00    +0.000 C 
ATOM     12  N   UNL     1       7.521   5.406  13.384  0.00  0.00    +0.000 NA
ATOM     13  C   UNL     1       7.691   4.761  12.057  0.00  0.00    +0.000 C 
ATOM     14  C   UNL     1       6.813   3.507  12.044  0.00  0.00    +0.000 C 
ATOM     15  N   UNL     1       6.244   3.514  13.374  0.00  0.00    +0.000 N 
ATOM     16  H   UNL     1       5.250   3.325  13.444  0.00  0.00    +0.000 HD
ENDBRANCH   6  11
BRANCH   1  18
ATOM     17  C   UNL     1       1.837   6.111  20.222  0.00  0.00    +0.000 C 
ATOM     18  C   UNL     1       2.762   6.929  19.695  0.00  0.00    +0.000 C 
BRANCH  17  19
ATOM     19  C   UNL     1       1.673   4.650  20.149  0.00  0.00    +0.000 A 
ATOM     20  C   UNL     1       1.819   3.912  21.335  0.00  0.00    +0.000 A 
ATOM     21  C   UNL     1       1.569   2.537  21.360  0.00  0.00    +0.000 A 
ATOM     22  C   UNL     1       1.160   1.883  20.204  0.00  0.00    +0.000 A 
ATOM     23  C   UNL     1       1.014   2.601  19.019  0.00  0.00    +0.000 A 
ATOM     24  C   UNL     1       1.264   3.976  18.993  0.00  0.00    +0.000 A 
ENDBRANCH  17  19
ENDBRANCH   1  18
TORSDOF 3
ENDMDL
MODEL 3
REMARK VINA RESULT:      -7.8      2.587      7.440
REMARK  Name = 
REMARK  3 active torsions:
REMARK  status: ('A' for Active; 'I' for Inactive)
REMARK    1  A    between atoms: C_1  and  C_17
REMARK    2  A    between atoms: C_2  and  C_3
REMARK    3  A    between atoms: C_8  and  C_9
REMARK                            x       y       z     vdW  Elec       q    Type
REMARK                         _______ _______ _______ _____ _____    ______ ____
ROOT
ATOM      1  C   UNL     1       3.970   4.366  17.342  0.00  0.00    +0.000 A 
ATOM      2  N   UNL     1       3.379   3.797  18.374  0.00  0.00    +0.000 NA
ATOM      3  C   UNL     1       2.755   4.814  19.048  0.00  0.00    +0.000 A 
ATOM      4  C   UNL     1       2.035   4.781  20.251  0.00  0.00    +0.000 A 
ATOM      5  C   UNL     1       1.566   5.987  20.789  0.00  0.00    +0.000 A 
ATOM      6  C   UNL     1       1.786   7.202  20.124  0.00  0.00    +0.000 A 
ATOM      7  C   UNL     1       2.468   7.247  18.898  0.00  0.00    +0.000 A 
ATOM      8  C   UNL     1       2.942   6.030  18.400  0.00  0.00    +0.000 A 
ATOM      9  N   UNL     1       3.660   5.701  17.280  0.00  0.00    +0.000 N 
ATOM     10  H   UNL     1       3.983   6.347  16.571  0.00  0.00    +0.000 HD
ENDROOT
BRANCH   6  11
ATOM     11  C   UNL     1       1.255   8.457  20.707  0.00  0.00    +0.000 C 
ATOM     12  N   UNL     1       1.114   8.601  22.001  0.00  0.00    +0.000 NA
ATOM     13  C   UNL     1       0.574   9.973  22.181  0.00  0.00    +0.000 C 
ATOM     14  C   UNL     1       0.405  10.583  20.787  0.00  0.00    +0.000 C 
ATOM     15  N   UNL     1       0.897   9.529  19.927  0.00  0.00    +0.000 N 
ATOM     16  H   UNL     1       0.341   9.316  19.105  0.00  0.00    +0.000 HD
ENDBRANCH   6  11
BRANCH   1  18
ATOM     17  C   UNL     1       6.231   4.243  16.398  0.00  0.00    +0.000 C 
ATOM     18  C   UNL     1       4.943   3.865  16.456  0.00  0.00    +0.000 C 
BRANCH  17  19
ATOM     19  C   UNL     1       6.990   5.242  17.167  0.00  0.00    +0.000 A 
ATOM     20  C   UNL     1       7.053   6.551  16.664  0.00  0.00    +0.000 A 
ATOM     21  C   UNL     1       7.663   7.574  17.395  0.00  0.00    +0.000 A 
ATOM     22  C   UNL     1       8.209   7.304  18.645  0.00  0.00    +0.000 A 
ATOM     23  C   UNL     1       8.158   6.010  19.157  0.00  0.00    +0.000 A 
ATOM     24  C   UNL     1       7.548   4.987  18.425  0.00  0.00    +0.000 A 
ENDBRANCH  17  19
ENDBRANCH   1  18
TORSDOF 3
ENDMDL
MODEL 4
REMARK VINA RESULT:      -7.8      3.533      8.006
REMARK  Name = 
REMARK  3 active torsions:
REMARK  status: ('A' for Active; 'I' for Inactive)
REMARK    1  A    between atoms: C_1  and  C_17
REMARK    2  A    between atoms: C_2  and  C_3
REMARK    3  A    between atoms: C_8  and  C_9
REMARK                            x       y       z     vdW  Elec       q    Type
REMARK                         _______ _______ _______ _____ _____    ______ ____
ROOT
ATOM      1  C   UNL     1       2.926   5.786  19.348  0.00  0.00    +0.000 A 
ATOM      2  N   UNL     1       2.878   6.546  18.271  0.00  0.00    +0.000 NA
ATOM      3  C   UNL     1       2.255   7.703  18.663  0.00  0.00    +0.000 A 
ATOM      4  C   UNL     1       1.889   8.823  17.904  0.00  0.00    +0.000 A 
ATOM      5  C   UNL     1       1.170   9.853  18.527  0.00  0.00    +0.000 A 
ATOM      6  C   UNL     1       0.849   9.779  19.890  0.00  0.00    +0.000 A 
ATOM      7  C   UNL     1       1.246   8.684  20.673  0.00  0.00    +0.000 A 
ATOM      8  C   UNL     1       1.940   7.665  20.017  0.00  0.00    +0.000 A 
ATOM      9  N   UNL     1       2.443   6.461  20.441  0.00  0.00    +0.000 N 
ATOM     10  H   UNL     1       2.389   6.094  21.382  0.00  0.00    +0.000 HD
ENDROOT
BRANCH   6  11
ATOM     11  C   UNL     1       0.111  10.898  20.524  0.00  0.00    +0.000 C 
ATOM     12  N   UNL     1       0.617  11.566  21.529  0.00  0.00    +0.000 NA
ATOM     13  C   UNL     1      -0.404  12.591  21.867  0.00  0.00    +0.000 C 
ATOM     14  C   UNL     1      -1.584  12.389  20.912  0.00  0.00    +0.000 C 
ATOM     15  N   UNL     1      -1.128  11.295  20.084  0.00  0.00    +0.000 N 
ATOM     16  H   UNL     1      -1.796  10.553  19.903  0.00  0.00    +0.000 HD
ENDBRANCH   6  11
BRANCH   1  18
ATOM     17  C   UNL     1       4.144   3.731  18.791  0.00  0.00    +0.000 C 
ATOM     18  C   UNL     1       3.223   4.418  19.488  0.00  0.00    +0.000 C 
BRANCH  17  19
ATOM     19  C   UNL     1       5.062   4.144  17.718  0.00  0.00    +0.000 A 
ATOM     20  C   UNL     1       6.344   4.584  18.081  0.00  0.00    +0.000 A 
ATOM     21  C   UNL     1       7.303   4.887  17.110  0.00  0.00    +0.000 A 
ATOM     22  C   UNL     1       6.996   4.743  15.762  0.00  0.00    +0.000 A 
ATOM     23  C   UNL     1       5.726   4.312  15.385  0.00  0.00    +0.000 A 
ATOM     24  C   UNL     1       4.768   4.009  16.356  0.00  0.00    +0.000 A 
ENDBRANCH  17  19
ENDBRANCH   1  18
TORSDOF 3
ENDMDL
MODEL 5
REMARK VINA RESULT:      -7.7      3.236      7.368
REMARK  Name = 
REMARK  3 active torsions:
REMARK  status: ('A' for Active; 'I' for Inactive)
REMARK    1  A    between atoms: C_1  and  C_17
REMARK    2  A    between atoms: C_2  and  C_3
REMARK    3  A    between atoms: C_8  and  C_9
REMARK                            x       y       z     vdW  Elec       q    Type
REMARK                         _______ _______ _______ _____ _____    ______ ____
ROOT
ATOM      1  C   UNL     1       3.545   6.268  17.858  0.00  0.00    +0.000 A 
ATOM      2  N   UNL     1       3.204   7.356  17.196  0.00  0.00    +0.000 NA
ATOM      3  C   UNL     1       2.492   8.120  18.083  0.00  0.00    +0.000 A 
ATOM      4  C   UNL     1       1.840   9.346  17.887  0.00  0.00    +0.000 A 
ATOM      5  C   UNL     1       1.092   9.888  18.941  0.00  0.00    +0.000 A 
ATOM      6  C   UNL     1       1.019   9.232  20.179  0.00  0.00    +0.000 A 
ATOM      7  C   UNL     1       1.700   8.025  20.405  0.00  0.00    +0.000 A 
ATOM      8  C   UNL     1       2.418   7.501  19.327  0.00  0.00    +0.000 A 
ATOM      9  N   UNL     1       3.158   6.357  19.172  0.00  0.00    +0.000 N 
ATOM     10  H   UNL     1       3.318   5.654  19.881  0.00  0.00    +0.000 HD
ENDROOT
BRANCH   6  11
ATOM     11  C   UNL     1       0.240   9.845  21.281  0.00  0.00    +0.000 C 
ATOM     12  N   UNL     1      -0.135   9.145  22.322  0.00  0.00    +0.000 NA
ATOM     13  C   UNL     1      -0.869  10.102  23.189  0.00  0.00    +0.000 C 
ATOM     14  C   UNL     1      -0.877  11.453  22.470  0.00  0.00    +0.000 C 
ATOM     15  N   UNL     1      -0.115  11.172  21.273  0.00  0.00    +0.000 N 
ATOM     16  H   UNL     1      -0.493  11.526  20.400  0.00  0.00    +0.000 HD
ENDBRANCH   6  11
BRANCH   1  18
ATOM     17  C   UNL     1       3.752   3.824  17.870  0.00  0.00    +0.000 C 
ATOM     18  C   UNL     1       4.062   5.043  17.397  0.00  0.00    +0.000 C 
BRANCH  17  19
ATOM     19  C   UNL     1       2.855   3.398  18.955  0.00  0.00    +0.000 A 
ATOM     20  C   UNL     1       3.431   3.047  20.187  0.00  0.00    +0.000 A 
ATOM     21  C   UNL     1       2.633   2.739  21.292  0.00  0.00    +0.000 A 
ATOM     22  C   UNL     1       1.248   2.788  21.184  0.00  0.00    +0.000 A 
ATOM     23  C   UNL     1       0.661   3.130  19.969  0.00  0.00    +0.000 A 
ATOM     24  C   UNL     1       1.458   3.438  18.863  0.00  0.00    +0.000 A 
ENDBRANCH  17  19
ENDBRANCH   1  18
TORSDOF 3
ENDMDL
MODEL 6
REMARK VINA RESULT:      -7.7      3.489      7.926
REMARK  Name = 
REMARK  3 active torsions:
REMARK  status: ('A' for Active; 'I' for Inactive)
REMARK    1  A    between atoms: C_1  and  C_17
REMARK    2  A    between atoms: C_2  and  C_3
REMARK    3  A    between atoms: C_8  and  C_9
REMARK                            x       y       z     vdW  Elec       q    Type
REMARK                         _______ _______ _______ _____ _____    ______ ____
ROOT
ATOM      1  C   UNL     1       2.972   5.711  19.360  0.00  0.00    +0.000 A 
ATOM      2  N   UNL     1       2.924   6.474  18.286  0.00  0.00    +0.000 NA
ATOM      3  C   UNL     1       2.292   7.625  18.680  0.00  0.00    +0.000 A 
ATOM      4  C   UNL     1       1.921   8.746  17.923  0.00  0.00    +0.000 A 
ATOM      5  C   UNL     1       1.194   9.769  18.547  0.00  0.00    +0.000 A 
ATOM      6  C   UNL     1       0.868   9.688  19.909  0.00  0.00    +0.000 A 
ATOM      7  C   UNL     1       1.268   8.593  20.690  0.00  0.00    +0.000 A 
ATOM      8  C   UNL     1       1.971   7.580  20.033  0.00  0.00    +0.000 A 
ATOM      9  N   UNL     1       2.480   6.379  20.454  0.00  0.00    +0.000 N 
ATOM     10  H   UNL     1       2.425   6.008  21.393  0.00  0.00    +0.000 HD
ENDROOT
BRANCH   6  11
ATOM     11  C   UNL     1       0.120  10.800  20.544  0.00  0.00    +0.000 C 
ATOM     12  N   UNL     1       0.483  11.293  21.701  0.00  0.00    +0.000 NA
ATOM     13  C   UNL     1      -0.494  12.375  21.985  0.00  0.00    +0.000 C 
ATOM     14  C   UNL     1      -1.488  12.408  20.821  0.00  0.00    +0.000 C 
ATOM     15  N   UNL     1      -0.979  11.373  19.949  0.00  0.00    +0.000 N 
ATOM     16  H   UNL     1      -1.660  10.729  19.560  0.00  0.00    +0.000 HD
ENDBRANCH   6  11
BRANCH   1  18
ATOM     17  C   UNL     1       4.233   3.675  18.830  0.00  0.00    +0.000 C 
ATOM     18  C   UNL     1       3.278   4.344  19.497  0.00  0.00    +0.000 C 
BRANCH  17  19
ATOM     19  C   UNL     1       5.190   4.109  17.800  0.00  0.00    +0.000 A 
ATOM     20  C   UNL     1       4.804   4.001  16.455  0.00  0.00    +0.000 A 
ATOM     21  C   UNL     1       5.617   4.495  15.431  0.00  0.00    +0.000 A 
ATOM     22  C   UNL     1       6.823   5.114  15.739  0.00  0.00    +0.000 A 
ATOM     23  C   UNL     1       7.222   5.226  17.068  0.00  0.00    +0.000 A 
ATOM     24  C   UNL     1       6.409   4.732  18.092  0.00  0.00    +0.000 A 
ENDBRANCH  17  19
ENDBRANCH   1  18
TORSDOF 3
ENDMDL
MODEL 7
REMARK VINA RESULT:      -7.7      1.674      7.543
REMARK  Name = 
REMARK  3 active torsions:
REMARK  status: ('A' for Active; 'I' for Inactive)
REMARK    1  A    between atoms: C_1  and  C_17
REMARK    2  A    between atoms: C_2  and  C_3
REMARK    3  A    between atoms: C_8  and  C_9
REMARK                            x       y       z     vdW  Elec       q    Type
REMARK                         _______ _______ _______ _____ _____    ______ ____
ROOT
ATOM      1  C   UNL     1       7.106   5.025  14.683  0.00  0.00    +0.000 A 
ATOM      2  N   UNL     1       7.717   4.734  15.814  0.00  0.00    +0.000 NA
ATOM      3  C   UNL     1       6.727   4.667  16.761  0.00  0.00    +0.000 A 
ATOM      4  C   UNL     1       6.825   4.453  18.143  0.00  0.00    +0.000 A 
ATOM      5  C   UNL     1       5.659   4.521  18.919  0.00  0.00    +0.000 A 
ATOM      6  C   UNL     1       4.415   4.769  18.322  0.00  0.00    +0.000 A 
ATOM      7  C   UNL     1       4.295   4.944  16.935  0.00  0.00    +0.000 A 
ATOM      8  C   UNL     1       5.478   4.893  16.193  0.00  0.00    +0.000 A 
ATOM      9  N   UNL     1       5.744   5.048  14.857  0.00  0.00    +0.000 N 
ATOM     10  H   UNL     1       5.062   5.234  14.134  0.00  0.00    +0.000 HD
ENDROOT
BRANCH   6  11
ATOM     11  C   UNL     1       3.198   4.809  19.168  0.00  0.00    +0.000 C 
ATOM     12  N   UNL     1       2.280   3.879  19.087  0.00  0.00    +0.000 NA
ATOM     13  C   UNL     1       1.248   4.265  20.084  0.00  0.00    +0.000 C 
ATOM     14  C   UNL     1       1.707   5.575  20.730  0.00  0.00    +0.000 C 
ATOM     15  N   UNL     1       2.979   5.811  20.083  0.00  0.00    +0.000 N 
ATOM     16  H   UNL     1       3.156   6.756  19.759  0.00  0.00    +0.000 HD
ENDBRANCH   6  11
BRANCH   1  18
ATOM     17  C   UNL     1       7.508   4.814  12.272  0.00  0.00    +0.000 C 
ATOM     18  C   UNL     1       7.626   5.454  13.447  0.00  0.00    +0.000 C 
BRANCH  17  19
ATOM     19  C   UNL     1       6.864   3.540  11.917  0.00  0.00    +0.000 A 
ATOM     20  C   UNL     1       5.460   3.496  11.892  0.00  0.00    +0.000 A 
ATOM     21  C   UNL     1       4.784   2.353  11.458  0.00  0.00    +0.000 A 
ATOM     22  C   UNL     1       5.501   1.241  11.032  0.00  0.00    +0.000 A 
ATOM     23  C   UNL     1       6.894   1.266  11.055  0.00  0.00    +0.000 A 
ATOM     24  C   UNL     1       7.570   2.410  11.489  0.00  0.00    +0.000 A 
ENDBRANCH  17  19
ENDBRANCH   1  18
TORSDOF 3
ENDMDL
MODEL 8
REMARK VINA RESULT:      -7.6      1.457      3.078
REMARK  Name = 
REMARK  3 active torsions:
REMARK  status: ('A' for Active; 'I' for Inactive)
REMARK    1  A    between atoms: C_1  and  C_17
REMARK    2  A    between atoms: C_2  and  C_3
REMARK    3  A    between atoms: C_8  and  C_9
REMARK                            x       y       z     vdW  Elec       q    Type
REMARK                         _______ _______ _______ _____ _____    ______ ____
ROOT
ATOM      1  C   UNL     1       3.806   5.098  19.418  0.00  0.00    +0.000 A 
ATOM      2  N   UNL     1       5.110   5.145  19.602  0.00  0.00    +0.000 NA
ATOM      3  C   UNL     1       5.664   5.036  18.353  0.00  0.00    +0.000 A 
ATOM      4  C   UNL     1       7.012   4.965  17.974  0.00  0.00    +0.000 A 
ATOM      5  C   UNL     1       7.323   4.761  16.623  0.00  0.00    +0.000 A 
ATOM      6  C   UNL     1       6.307   4.658  15.662  0.00  0.00    +0.000 A 
ATOM      7  C   UNL     1       4.953   4.769  16.019  0.00  0.00    +0.000 A 
ATOM      8  C   UNL     1       4.677   4.949  17.376  0.00  0.00    +0.000 A 
ATOM      9  N   UNL     1       3.505   5.063  18.079  0.00  0.00    +0.000 N 
ATOM     10  H   UNL     1       2.574   5.037  17.686  0.00  0.00    +0.000 HD
ENDROOT
BRANCH   6  11
ATOM     11  C   UNL     1       6.670   4.468  14.238  0.00  0.00    +0.000 C 
ATOM     12  N   UNL     1       7.493   5.284  13.628  0.00  0.00    +0.000 NA
ATOM     13  C   UNL     1       7.606   4.758  12.244  0.00  0.00    +0.000 C 
ATOM     14  C   UNL     1       6.701   3.527  12.148  0.00  0.00    +0.000 C 
ATOM     15  N   UNL     1       6.176   3.425  13.492  0.00  0.00    +0.000 N 
ATOM     16  H   UNL     1       5.180   3.249  13.579  0.00  0.00    +0.000 HD
ENDBRANCH   6  11
BRANCH   1  18
ATOM     17  C   UNL     1       1.854   5.844  20.702  0.00  0.00    +0.000 C 
ATOM     18  C   UNL     1       2.758   4.919  20.340  0.00  0.00    +0.000 C 
BRANCH  17  19
ATOM     19  C   UNL     1       1.683   7.249  20.302  0.00  0.00    +0.000 A 
ATOM     20  C   UNL     1       2.026   7.606  18.987  0.00  0.00    +0.000 A 
ATOM     21  C   UNL     1       1.787   8.896  18.506  0.00  0.00    +0.000 A 
ATOM     22  C   UNL     1       1.192   9.845  19.330  0.00  0.00    +0.000 A 
ATOM     23  C   UNL     1       0.850   9.509  20.637  0.00  0.00    +0.000 A 
ATOM     24  C   UNL     1       1.089   8.219  21.118  0.00  0.00    +0.000 A 
ENDBRANCH  17  19
ENDBRANCH   1  18
TORSDOF 3
ENDMDL
MODEL 9
REMARK VINA RESULT:      -7.6      1.998      7.520
REMARK  Name = 
REMARK  3 active torsions:
REMARK  status: ('A' for Active; 'I' for Inactive)
REMARK    1  A    between atoms: C_1  and  C_17
REMARK    2  A    between atoms: C_2  and  C_3
REMARK    3  A    between atoms: C_8  and  C_9
REMARK                            x       y       z     vdW  Elec       q    Type
REMARK                         _______ _______ _______ _____ _____    ______ ____
ROOT
ATOM      1  C   UNL     1       7.080   4.885  14.755  0.00  0.00    +0.000 A 
ATOM      2  N   UNL     1       7.533   4.890  15.993  0.00  0.00    +0.000 NA
ATOM      3  C   UNL     1       6.472   4.514  16.776  0.00  0.00    +0.000 A 
ATOM      4  C   UNL     1       6.379   4.417  18.171  0.00  0.00    +0.000 A 
ATOM      5  C   UNL     1       5.140   4.096  18.743  0.00  0.00    +0.000 A 
ATOM      6  C   UNL     1       4.021   3.848  17.936  0.00  0.00    +0.000 A 
ATOM      7  C   UNL     1       4.107   3.900  16.536  0.00  0.00    +0.000 A 
ATOM      8  C   UNL     1       5.350   4.245  15.998  0.00  0.00    +0.000 A 
ATOM      9  N   UNL     1       5.789   4.421  14.711  0.00  0.00    +0.000 N 
ATOM     10  H   UNL     1       5.231   4.313  13.874  0.00  0.00    +0.000 HD
ENDROOT
BRANCH   6  11
ATOM     11  C   UNL     1       2.732   3.486  18.572  0.00  0.00    +0.000 C 
ATOM     12  N   UNL     1       1.836   2.772  17.938  0.00  0.00    +0.000 NA
ATOM     13  C   UNL     1       0.713   2.619  18.899  0.00  0.00    +0.000 C 
ATOM     14  C   UNL     1       1.095   3.378  20.172  0.00  0.00    +0.000 C 
ATOM     15  N   UNL     1       2.418   3.869  19.853  0.00  0.00    +0.000 N 
ATOM     16  H   UNL     1       2.613   4.836  20.089  0.00  0.00    +0.000 HD
ENDBRANCH   6  11
BRANCH   1  18
ATOM     17  C   UNL     1       7.519   4.896  12.342  0.00  0.00    +0.000 C 
ATOM     18  C   UNL     1       7.639   5.413  13.576  0.00  0.00    +0.000 C 
BRANCH  17  19
ATOM     19  C   UNL     1       6.834   3.689  11.852  0.00  0.00    +0.000 A 
ATOM     20  C   UNL     1       7.623   2.584  11.494  0.00  0.00    +0.000 A 
ATOM     21  C   UNL     1       7.036   1.370  11.126  0.00  0.00    +0.000 A 
ATOM     22  C   UNL     1       5.651   1.242  11.120  0.00  0.00    +0.000 A 
ATOM     23  C   UNL     1       4.855   2.330  11.468  0.00  0.00    +0.000 A 
ATOM     24  C   UNL     1       5.442   3.544  11.837  0.00  0.00    +0.000 A 
ENDBRANCH  17  19
ENDBRANCH   1  18
TORSDOF 3
ENDMDL
