MODEL 1
REMARK VINA RESULT:      -8.2      0.000      0.000
REMARK  Name = 
REMARK  7 active torsions:
REMARK  status: ('A' for Active; 'I' for Inactive)
REMARK    1  A    between atoms: C_1  and  C_2
REMARK    2  A    between atoms: C_2  and  C_3
REMARK    3  A    between atoms: C_2  and  C_4
REMARK    4  A    between atoms: C_4  and  C_5
REMARK    5  A    between atoms: C_7  and  C_8
REMARK    6  A    between atoms: C_8  and  N_9
REMARK    7  A    between atoms: C_15  and  C_16
REMARK                            x       y       z     vdW  Elec       q    Type
REMARK                         _______ _______ _______ _____ _____    ______ ____
ROOT
ATOM      1  N   UNL     1       4.900   5.682  16.940  0.00  0.00    +0.000 NA
ATOM      2  C   UNL     1       4.826   6.942  17.668  0.00  0.00    +0.000 C 
ATOM      3  C   UNL     1       3.451   7.596  17.730  0.00  0.00    +0.000 C 
ATOM      4  C   UNL     1       2.409   6.943  18.634  0.00  0.00    +0.000 C 
ATOM      5  N   UNL     1       2.626   5.589  19.090  0.00  0.00    +0.000 N 
ATOM      6  N   UNL     1       2.064   5.224  20.266  0.00  0.00    +0.000 NA
ATOM      7  C   UNL     1       2.265   3.903  20.330  0.00  0.00    +0.000 A 
ATOM      8  C   UNL     1       2.967   3.430  19.206  0.00  0.00    +0.000 A 
ATOM      9  C   UNL     1       3.226   4.549  18.431  0.00  0.00    +0.000 A 
ATOM     10  C   UNL     1       3.874   4.663  17.096  0.00  0.00    +0.000 C 
ENDROOT
BRANCH   7  11
ATOM     11  C   UNL     1       1.763   3.146  21.443  0.00  0.00    +0.000 C 
ATOM     12  N   UNL     1       1.403   2.522  22.358  0.00  0.00    +0.000 NA
ENDBRANCH   7  11
BRANCH   1  13
ATOM     13  C   UNL     1       6.277   5.194  16.746  0.00  0.00    +0.000 C 
BRANCH  13  16
ATOM     14  C   UNL     1       6.756   4.206  13.246  0.00  0.00    +0.000 A 
ATOM     15  C   UNL     1       6.013   4.093  14.391  0.00  0.00    +0.000 A 
ATOM     16  C   UNL     1       6.631   4.963  15.308  0.00  0.00    +0.000 A 
ATOM     17  N   UNL     1       7.668   5.600  14.743  0.00  0.00    +0.000 NA
ATOM     18  O   UNL     1       7.739   5.124  13.441  0.00  0.00    +0.000 OA
BRANCH  14  19
ATOM     19  C   UNL     1       6.685   3.528  11.928  0.00  0.00    +0.000 C 
BRANCH  19  21
ATOM     20  C   UNL     1       4.284   3.055  11.196  0.00  0.00    +0.000 C 
ATOM     21  C   UNL     1       5.558   2.486  11.829  0.00  0.00    +0.000 C 
ATOM     22  C   UNL     1       6.033   1.283  11.007  0.00  0.00    +0.000 C 
ENDBRANCH  19  21
ENDBRANCH  14  19
ENDBRANCH  13  16
ENDBRANCH   1  13
TORSDOF 5
ENDMDL
MODEL 2
REMARK VINA RESULT:      -6.9      3.183      8.423
REMARK  Name = 
REMARK  7 active torsions:
REMARK  status: ('A' for Active; 'I' for Inactive)
REMARK    1  A    between atoms: C_1  and  C_2
REMARK    2  A    between atoms: C_2  and  C_3
REMARK    3  A    between atoms: C_2  and  C_4
REMARK    4  A    between atoms: C_4  and  C_5
REMARK    5  A    between atoms: C_7  and  C_8
REMARK    6  A    between atoms: C_8  and  N_9
REMARK    7  A    between atoms: C_15  and  C_16
REMARK                            x       y       z     vdW  Elec       q    Type
REMARK                         _______ _______ _______ _____ _____    ______ ____
ROOT
ATOM      1  N   UNL     1       4.097   4.575  18.082  0.00  0.00    +0.000 NA
ATOM      2  C   UNL     1       4.962   5.578  18.689  0.00  0.00    +0.000 C 
ATOM      3  C   UNL     1       6.382   5.128  19.009  0.00  0.00    +0.000 C 
ATOM      4  C   UNL     1       7.333   4.933  17.832  0.00  0.00    +0.000 C 
ATOM      5  N   UNL     1       6.786   4.825  16.499  0.00  0.00    +0.000 N 
ATOM      6  N   UNL     1       7.570   5.211  15.465  0.00  0.00    +0.000 NA
ATOM      7  C   UNL     1       6.893   4.826  14.377  0.00  0.00    +0.000 A 
ATOM      8  C   UNL     1       5.674   4.209  14.717  0.00  0.00    +0.000 A 
ATOM      9  C   UNL     1       5.607   4.255  16.100  0.00  0.00    +0.000 A 
ATOM     10  C   UNL     1       4.586   3.698  17.029  0.00  0.00    +0.000 C 
ENDROOT
BRANCH   7  11
ATOM     11  C   UNL     1       7.442   5.039  13.068  0.00  0.00    +0.000 C 
ATOM     12  N   UNL     1       7.921   5.243  12.025  0.00  0.00    +0.000 NA
ENDBRANCH   7  11
BRANCH   1  13
ATOM     13  C   UNL     1       2.690   5.000  17.971  0.00  0.00    +0.000 C 
BRANCH  13  16
ATOM     14  C   UNL     1       1.674   7.286  20.655  0.00  0.00    +0.000 A 
ATOM     15  C   UNL     1       2.133   7.134  19.373  0.00  0.00    +0.000 A 
ATOM     16  C   UNL     1       2.195   5.742  19.176  0.00  0.00    +0.000 A 
ATOM     17  N   UNL     1       1.760   5.083  20.260  0.00  0.00    +0.000 NA
ATOM     18  O   UNL     1       1.428   6.060  21.188  0.00  0.00    +0.000 OA
BRANCH  14  19
ATOM     19  C   UNL     1       1.437   8.478  21.505  0.00  0.00    +0.000 C 
BRANCH  19  21
ATOM     20  C   UNL     1      -0.397   9.596  22.889  0.00  0.00    +0.000 C 
ATOM     21  C   UNL     1      -0.038   8.910  21.566  0.00  0.00    +0.000 C 
ATOM     22  C   UNL     1      -0.349   9.863  20.407  0.00  0.00    +0.000 C 
ENDBRANCH  19  21
ENDBRANCH  14  19
ENDBRANCH  13  16
ENDBRANCH   1  13
TORSDOF 5
ENDMDL
MODEL 3
REMARK VINA RESULT:      -6.8      3.077      8.285
REMARK  Name = 
REMARK  7 active torsions:
REMARK  status: ('A' for Active; 'I' for Inactive)
REMARK    1  A    between atoms: C_1  and  C_2
REMARK    2  A    between atoms: C_2  and  C_3
REMARK    3  A    between atoms: C_2  and  C_4
REMARK    4  A    between atoms: C_4  and  C_5
REMARK    5  A    between atoms: C_7  and  C_8
REMARK    6  A    between atoms: C_8  and  N_9
REMARK    7  A    between atoms: C_15  and  C_16
REMARK                            x       y       z     vdW  Elec       q    Type
REMARK                         _______ _______ _______ _____ _____    ______ ____
ROOT
ATOM      1  N   UNL     1       4.153   4.632  18.162  0.00  0.00    +0.000 NA
ATOM      2  C   UNL     1       5.004   5.685  18.698  0.00  0.00    +0.000 C 
ATOM      3  C   UNL     1       6.442   5.288  19.005  0.00  0.00    +0.000 C 
ATOM      4  C   UNL     1       7.371   5.060  17.816  0.00  0.00    +0.000 C 
ATOM      5  N   UNL     1       6.797   4.873  16.503  0.00  0.00    +0.000 N 
ATOM      6  N   UNL     1       7.546   5.228  15.432  0.00  0.00    +0.000 NA
ATOM      7  C   UNL     1       6.854   4.772  14.382  0.00  0.00    +0.000 A 
ATOM      8  C   UNL     1       5.661   4.142  14.781  0.00  0.00    +0.000 A 
ATOM      9  C   UNL     1       5.624   4.253  16.161  0.00  0.00    +0.000 A 
ATOM     10  C   UNL     1       4.641   3.717  17.141  0.00  0.00    +0.000 C 
ENDROOT
BRANCH   7  11
ATOM     11  C   UNL     1       7.367   4.935  13.051  0.00  0.00    +0.000 C 
ATOM     12  N   UNL     1       7.736   5.073  11.954  0.00  0.00    +0.000 NA
ENDBRANCH   7  11
BRANCH   1  13
ATOM     13  C   UNL     1       2.732   5.015  18.065  0.00  0.00    +0.000 C 
BRANCH  13  16
ATOM     14  C   UNL     1       1.854   7.816  20.264  0.00  0.00    +0.000 A 
ATOM     15  C   UNL     1       2.165   6.488  20.148  0.00  0.00    +0.000 A 
ATOM     16  C   UNL     1       2.410   6.295  18.775  0.00  0.00    +0.000 A 
ATOM     17  N   UNL     1       2.295   7.448  18.099  0.00  0.00    +0.000 NA
ATOM     18  O   UNL     1       1.949   8.405  19.043  0.00  0.00    +0.000 OA
BRANCH  14  19
ATOM     19  C   UNL     1       1.439   8.657  21.414  0.00  0.00    +0.000 C 
BRANCH  19  21
ATOM     20  C   UNL     1      -0.619   9.244  22.809  0.00  0.00    +0.000 C 
ATOM     21  C   UNL     1      -0.054   9.029  21.401  0.00  0.00    +0.000 C 
ATOM     22  C   UNL     1      -0.264  10.303  20.577  0.00  0.00    +0.000 C 
ENDBRANCH  19  21
ENDBRANCH  14  19
ENDBRANCH  13  16
ENDBRANCH   1  13
TORSDOF 5
ENDMDL
MODEL 4
REMARK VINA RESULT:      -6.7      3.025      7.738
REMARK  Name = 
REMARK  7 active torsions:
REMARK  status: ('A' for Active; 'I' for Inactive)
REMARK    1  A    between atoms: C_1  and  C_2
REMARK    2  A    between atoms: C_2  and  C_3
REMARK    3  A    between atoms: C_2  and  C_4
REMARK    4  A    between atoms: C_4  and  C_5
REMARK    5  A    between atoms: C_7  and  C_8
REMARK    6  A    between atoms: C_8  and  N_9
REMARK    7  A    between atoms: C_15  and  C_16
REMARK                            x       y       z     vdW  Elec       q    Type
REMARK                         _______ _______ _______ _____ _____    ______ ____
ROOT
ATOM      1  N   UNL     1       4.207   4.515  18.391  0.00  0.00    +0.000 NA
ATOM      2  C   UNL     1       5.006   5.609  18.927  0.00  0.00    +0.000 C 
ATOM      3  C   UNL     1       6.467   5.288  19.216  0.00  0.00    +0.000 C 
ATOM      4  C   UNL     1       7.393   5.120  18.016  0.00  0.00    +0.000 C 
ATOM      5  N   UNL     1       6.816   4.912  16.707  0.00  0.00    +0.000 N 
ATOM      6  N   UNL     1       7.532   5.316  15.632  0.00  0.00    +0.000 NA
ATOM      7  C   UNL     1       6.856   4.831  14.585  0.00  0.00    +0.000 A 
ATOM      8  C   UNL     1       5.702   4.134  14.991  0.00  0.00    +0.000 A 
ATOM      9  C   UNL     1       5.675   4.232  16.372  0.00  0.00    +0.000 A 
ATOM     10  C   UNL     1       4.733   3.636  17.358  0.00  0.00    +0.000 C 
ENDROOT
BRANCH   7  11
ATOM     11  C   UNL     1       7.344   5.032  13.250  0.00  0.00    +0.000 C 
ATOM     12  N   UNL     1       7.783   5.171  12.179  0.00  0.00    +0.000 NA
ENDBRANCH   7  11
BRANCH   1  13
ATOM     13  C   UNL     1       2.767   4.820  18.312  0.00  0.00    +0.000 C 
BRANCH  13  16
ATOM     14  C   UNL     1       2.122   8.431  18.393  0.00  0.00    +0.000 A 
ATOM     15  C   UNL     1       2.371   7.315  17.640  0.00  0.00    +0.000 A 
ATOM     16  C   UNL     1       2.449   6.262  18.571  0.00  0.00    +0.000 A 
ATOM     17  N   UNL     1       2.220   6.705  19.816  0.00  0.00    +0.000 NA
ATOM     18  O   UNL     1       2.009   8.071  19.699  0.00  0.00    +0.000 OA
BRANCH  14  19
ATOM     19  C   UNL     1       1.985   9.868  18.050  0.00  0.00    +0.000 C 
BRANCH  19  21
ATOM     20  C   UNL     1       1.017  12.109  18.802  0.00  0.00    +0.000 C 
ATOM     21  C   UNL     1       0.867  10.585  18.827  0.00  0.00    +0.000 C 
ATOM     22  C   UNL     1      -0.497  10.206  18.242  0.00  0.00    +0.000 C 
ENDBRANCH  19  21
ENDBRANCH  14  19
ENDBRANCH  13  16
ENDBRANCH   1  13
TORSDOF 5
ENDMDL
MODEL 5
REMARK VINA RESULT:      -6.5      4.327      8.356
REMARK  Name = 
REMARK  7 active torsions:
REMARK  status: ('A' for Active; 'I' for Inactive)
REMARK    1  A    between atoms: C_1  and  C_2
REMARK    2  A    between atoms: C_2  and  C_3
REMARK    3  A    between atoms: C_2  and  C_4
REMARK    4  A    between atoms: C_4  and  C_5
REMARK    5  A    between atoms: C_7  and  C_8
REMARK    6  A    between atoms: C_8  and  N_9
REMARK    7  A    between atoms: C_15  and  C_16
REMARK                            x       y       z     vdW  Elec       q    Type
REMARK                         _______ _______ _______ _____ _____    ______ ____
ROOT
ATOM      1  N   UNL     1       1.842   6.837  19.792  0.00  0.00    +0.000 NA
ATOM      2  C   UNL     1       1.783   5.678  20.674  0.00  0.00    +0.000 C 
ATOM      3  C   UNL     1       1.466   4.347  20.003  0.00  0.00    +0.000 C 
ATOM      4  C   UNL     1       2.564   3.718  19.151  0.00  0.00    +0.000 C 
ATOM      5  N   UNL     1       3.676   4.536  18.723  0.00  0.00    +0.000 N 
ATOM      6  N   UNL     1       4.857   3.919  18.486  0.00  0.00    +0.000 NA
ATOM      7  C   UNL     1       5.619   4.868  17.934  0.00  0.00    +0.000 A 
ATOM      8  C   UNL     1       4.932   6.092  17.833  0.00  0.00    +0.000 A 
ATOM      9  C   UNL     1       3.683   5.864  18.388  0.00  0.00    +0.000 A 
ATOM     10  C   UNL     1       2.504   6.765  18.499  0.00  0.00    +0.000 C 
ENDROOT
BRANCH   7  11
ATOM     11  C   UNL     1       6.957   4.567  17.506  0.00  0.00    +0.000 C 
ATOM     12  N   UNL     1       8.025   4.319  17.113  0.00  0.00    +0.000 NA
ENDBRANCH   7  11
BRANCH   1  13
ATOM     13  C   UNL     1       1.959   8.119  20.511  0.00  0.00    +0.000 C 
BRANCH  13  16
ATOM     14  C   UNL     1      -0.285  10.700  19.185  0.00  0.00    +0.000 A 
ATOM     15  C   UNL     1       0.846   9.949  19.013  0.00  0.00    +0.000 A 
ATOM     16  C   UNL     1       0.896   9.109  20.141  0.00  0.00    +0.000 A 
ATOM     17  N   UNL     1      -0.166   9.309  20.936  0.00  0.00    +0.000 NA
ATOM     18  O   UNL     1      -0.911  10.309  20.326  0.00  0.00    +0.000 OA
BRANCH  14  19
ATOM     19  C   UNL     1      -0.889  11.805  18.401  0.00  0.00    +0.000 C 
BRANCH  19  21
ATOM     20  C   UNL     1      -1.963   9.920  17.053  0.00  0.00    +0.000 C 
ATOM     21  C   UNL     1      -2.084  11.368  17.536  0.00  0.00    +0.000 C 
ATOM     22  C   UNL     1      -3.385  11.526  18.329  0.00  0.00    +0.000 C 
ENDBRANCH  19  21
ENDBRANCH  14  19
ENDBRANCH  13  16
ENDBRANCH   1  13
TORSDOF 5
ENDMDL
MODEL 6
REMARK VINA RESULT:      -6.5      2.802      7.642
REMARK  Name = 
REMARK  7 active torsions:
REMARK  status: ('A' for Active; 'I' for Inactive)
REMARK    1  A    between atoms: C_1  and  C_2
REMARK    2  A    between atoms: C_2  and  C_3
REMARK    3  A    between atoms: C_2  and  C_4
REMARK    4  A    between atoms: C_4  and  C_5
REMARK    5  A    between atoms: C_7  and  C_8
REMARK    6  A    between atoms: C_8  and  N_9
REMARK    7  A    between atoms: C_15  and  C_16
REMARK                            x       y       z     vdW  Elec       q    Type
REMARK                         _______ _______ _______ _____ _____    ______ ____
ROOT
ATOM      1  N   UNL     1       4.455   4.627  18.739  0.00  0.00    +0.000 NA
ATOM      2  C   UNL     1       5.388   5.653  19.185  0.00  0.00    +0.000 C 
ATOM      3  C   UNL     1       6.835   5.209  19.357  0.00  0.00    +0.000 C 
ATOM      4  C   UNL     1       7.639   4.946  18.086  0.00  0.00    +0.000 C 
ATOM      5  N   UNL     1       6.936   4.774  16.835  0.00  0.00    +0.000 N 
ATOM      6  N   UNL     1       7.591   5.101  15.696  0.00  0.00    +0.000 NA
ATOM      7  C   UNL     1       6.788   4.665  14.719  0.00  0.00    +0.000 A 
ATOM      8  C   UNL     1       5.617   4.076  15.234  0.00  0.00    +0.000 A 
ATOM      9  C   UNL     1       5.716   4.193  16.610  0.00  0.00    +0.000 A 
ATOM     10  C   UNL     1       4.814   3.693  17.683  0.00  0.00    +0.000 C 
ENDROOT
BRANCH   7  11
ATOM     11  C   UNL     1       7.176   4.806  13.344  0.00  0.00    +0.000 C 
ATOM     12  N   UNL     1       7.470   4.877  12.219  0.00  0.00    +0.000 NA
ENDBRANCH   7  11
BRANCH   1  13
ATOM     13  C   UNL     1       3.046   5.057  18.775  0.00  0.00    +0.000 C 
BRANCH  13  16
ATOM     14  C   UNL     1       2.175   8.575  18.207  0.00  0.00    +0.000 A 
ATOM     15  C   UNL     1       2.081   7.474  19.016  0.00  0.00    +0.000 A 
ATOM     16  C   UNL     1       2.848   6.486  18.370  0.00  0.00    +0.000 A 
ATOM     17  N   UNL     1       3.411   6.969  17.252  0.00  0.00    +0.000 NA
ATOM     18  O   UNL     1       2.988   8.288  17.156  0.00  0.00    +0.000 OA
BRANCH  14  19
ATOM     19  C   UNL     1       1.566   9.926  18.270  0.00  0.00    +0.000 C 
BRANCH  19  21
ATOM     20  C   UNL     1       0.520  10.947  20.365  0.00  0.00    +0.000 C 
ATOM     21  C   UNL     1       0.324  10.003  19.175  0.00  0.00    +0.000 C 
ATOM     22  C   UNL     1      -0.885  10.469  18.359  0.00  0.00    +0.000 C 
ENDBRANCH  19  21
ENDBRANCH  14  19
ENDBRANCH  13  16
ENDBRANCH   1  13
TORSDOF 5
ENDMDL
MODEL 7
REMARK VINA RESULT:      -6.5      1.738      3.228
REMARK  Name = 
REMARK  7 active torsions:
REMARK  status: ('A' for Active; 'I' for Inactive)
REMARK    1  A    between atoms: C_1  and  C_2
REMARK    2  A    between atoms: C_2  and  C_3
REMARK    3  A    between atoms: C_2  and  C_4
REMARK    4  A    between atoms: C_4  and  C_5
REMARK    5  A    between atoms: C_7  and  C_8
REMARK    6  A    between atoms: C_8  and  N_9
REMARK    7  A    between atoms: C_15  and  C_16
REMARK                            x       y       z     vdW  Elec       q    Type
REMARK                         _______ _______ _______ _____ _____    ______ ____
ROOT
ATOM      1  N   UNL     1       5.297   4.127  18.239  0.00  0.00    +0.000 NA
ATOM      2  C   UNL     1       4.301   3.387  17.474  0.00  0.00    +0.000 C 
ATOM      3  C   UNL     1       3.010   3.053  18.209  0.00  0.00    +0.000 C 
ATOM      4  C   UNL     1       2.041   4.201  18.474  0.00  0.00    +0.000 C 
ATOM      5  N   UNL     1       2.517   5.561  18.359  0.00  0.00    +0.000 N 
ATOM      6  N   UNL     1       1.615   6.517  18.036  0.00  0.00    +0.000 NA
ATOM      7  C   UNL     1       2.284   7.665  18.190  0.00  0.00    +0.000 A 
ATOM      8  C   UNL     1       3.613   7.440  18.595  0.00  0.00    +0.000 A 
ATOM      9  C   UNL     1       3.754   6.064  18.660  0.00  0.00    +0.000 A 
ATOM     10  C   UNL     1       4.913   5.238  19.096  0.00  0.00    +0.000 C 
ENDROOT
BRANCH   7  11
ATOM     11  C   UNL     1       1.627   8.923  17.969  0.00  0.00    +0.000 C 
ATOM     12  N   UNL     1       1.093   9.933  17.740  0.00  0.00    +0.000 NA
ENDBRANCH   7  11
BRANCH   1  13
ATOM     13  C   UNL     1       6.593   4.256  17.549  0.00  0.00    +0.000 C 
BRANCH  13  16
ATOM     14  C   UNL     1       6.405   4.302  13.886  0.00  0.00    +0.000 A 
ATOM     15  C   UNL     1       6.495   3.559  15.032  0.00  0.00    +0.000 A 
ATOM     16  C   UNL     1       6.463   4.502  16.076  0.00  0.00    +0.000 A 
ATOM     17  N   UNL     1       6.321   5.746  15.596  0.00  0.00    +0.000 NA
ATOM     18  O   UNL     1       6.279   5.615  14.215  0.00  0.00    +0.000 OA
BRANCH  14  19
ATOM     19  C   UNL     1       6.439   3.943  12.447  0.00  0.00    +0.000 C 
BRANCH  19  21
ATOM     20  C   UNL     1       4.253   3.289  11.298  0.00  0.00    +0.000 C 
ATOM     21  C   UNL     1       5.481   2.799  12.072  0.00  0.00    +0.000 C 
ATOM     22  C   UNL     1       6.222   1.756  11.230  0.00  0.00    +0.000 C 
ENDBRANCH  19  21
ENDBRANCH  14  19
ENDBRANCH  13  16
ENDBRANCH   1  13
TORSDOF 5
ENDMDL
MODEL 8
REMARK VINA RESULT:      -6.4      4.708      8.308
REMARK  Name = 
REMARK  7 active torsions:
REMARK  status: ('A' for Active; 'I' for Inactive)
REMARK    1  A    between atoms: C_1  and  C_2
REMARK    2  A    between atoms: C_2  and  C_3
REMARK    3  A    between atoms: C_2  and  C_4
REMARK    4  A    between atoms: C_4  and  C_5
REMARK    5  A    between atoms: C_7  and  C_8
REMARK    6  A    between atoms: C_8  and  N_9
REMARK    7  A    between atoms: C_15  and  C_16
REMARK                            x       y       z     vdW  Elec       q    Type
REMARK                         _______ _______ _______ _____ _____    ______ ____
ROOT
ATOM      1  N   UNL     1       2.093   7.893  18.415  0.00  0.00    +0.000 NA
ATOM      2  C   UNL     1       2.154   7.673  19.855  0.00  0.00    +0.000 C 
ATOM      3  C   UNL     1       1.876   6.251  20.324  0.00  0.00    +0.000 C 
ATOM      4  C   UNL     1       2.955   5.206  20.058  0.00  0.00    +0.000 C 
ATOM      5  N   UNL     1       3.991   5.497  19.092  0.00  0.00    +0.000 N 
ATOM      6  N   UNL     1       5.189   4.889  19.253  0.00  0.00    +0.000 NA
ATOM      7  C   UNL     1       5.861   5.188  18.136  0.00  0.00    +0.000 A 
ATOM      8  C   UNL     1       5.099   5.996  17.272  0.00  0.00    +0.000 A 
ATOM      9  C   UNL     1       3.901   6.218  17.931  0.00  0.00    +0.000 A 
ATOM     10  C   UNL     1       2.680   6.942  17.484  0.00  0.00    +0.000 C 
ENDROOT
BRANCH   7  11
ATOM     11  C   UNL     1       7.186   4.674  17.928  0.00  0.00    +0.000 C 
ATOM     12  N   UNL     1       8.247   4.215  17.781  0.00  0.00    +0.000 NA
ENDBRANCH   7  11
BRANCH   1  13
ATOM     13  C   UNL     1       2.177   9.314  18.032  0.00  0.00    +0.000 C 
BRANCH  13  16
ATOM     14  C   UNL     1      -1.089  10.903  18.544  0.00  0.00    +0.000 A 
ATOM     15  C   UNL     1      -0.378   9.861  18.012  0.00  0.00    +0.000 A 
ATOM     16  C   UNL     1       0.955  10.103  18.393  0.00  0.00    +0.000 A 
ATOM     17  N   UNL     1       1.046  11.208  19.148  0.00  0.00    +0.000 NA
ATOM     18  O   UNL     1      -0.246  11.706  19.245  0.00  0.00    +0.000 OA
BRANCH  14  19
ATOM     19  C   UNL     1      -2.520  11.288  18.471  0.00  0.00    +0.000 C 
BRANCH  19  21
ATOM     20  C   UNL     1      -4.816  10.766  17.479  0.00  0.00    +0.000 C 
ATOM     21  C   UNL     1      -3.303  10.551  17.370  0.00  0.00    +0.000 C 
ATOM     22  C   UNL     1      -2.828  11.021  15.992  0.00  0.00    +0.000 C 
ENDBRANCH  19  21
ENDBRANCH  14  19
ENDBRANCH  13  16
ENDBRANCH   1  13
TORSDOF 5
ENDMDL
MODEL 9
REMARK VINA RESULT:      -6.4      4.756      9.156
REMARK  Name = 
REMARK  7 active torsions:
REMARK  status: ('A' for Active; 'I' for Inactive)
REMARK    1  A    between atoms: C_1  and  C_2
REMARK    2  A    between atoms: C_2  and  C_3
REMARK    3  A    between atoms: C_2  and  C_4
REMARK    4  A    between atoms: C_4  and  C_5
REMARK    5  A    between atoms: C_7  and  C_8
REMARK    6  A    between atoms: C_8  and  N_9
REMARK    7  A    between atoms: C_15  and  C_16
REMARK                            x       y       z     vdW  Elec       q    Type
REMARK                         _______ _______ _______ _____ _____    ______ ____
ROOT
ATOM      1  N   UNL     1       1.967   7.812  18.650  0.00  0.00    +0.000 NA
ATOM      2  C   UNL     1       2.074   7.565  20.082  0.00  0.00    +0.000 C 
ATOM      3  C   UNL     1       1.835   6.129  20.530  0.00  0.00    +0.000 C 
ATOM      4  C   UNL     1       2.924   5.109  20.211  0.00  0.00    +0.000 C 
ATOM      5  N   UNL     1       3.925   5.438  19.222  0.00  0.00    +0.000 N 
ATOM      6  N   UNL     1       5.139   4.848  19.335  0.00  0.00    +0.000 NA
ATOM      7  C   UNL     1       5.772   5.181  18.205  0.00  0.00    +0.000 A 
ATOM      8  C   UNL     1       4.971   5.993  17.381  0.00  0.00    +0.000 A 
ATOM      9  C   UNL     1       3.789   6.180  18.079  0.00  0.00    +0.000 A 
ATOM     10  C   UNL     1       2.543   6.891  17.683  0.00  0.00    +0.000 C 
ENDROOT
BRANCH   7  11
ATOM     11  C   UNL     1       7.099   4.696  17.948  0.00  0.00    +0.000 C 
ATOM     12  N   UNL     1       8.156   4.257  17.731  0.00  0.00    +0.000 NA
ENDBRANCH   7  11
BRANCH   1  13
ATOM     13  C   UNL     1       2.016   9.242  18.294  0.00  0.00    +0.000 C 
BRANCH  13  16
ATOM     14  C   UNL     1      -0.576  11.245  19.947  0.00  0.00    +0.000 A 
ATOM     15  C   UNL     1       0.728  10.827  19.926  0.00  0.00    +0.000 A 
ATOM     16  C   UNL     1       0.828  10.018  18.778  0.00  0.00    +0.000 A 
ATOM     17  N   UNL     1      -0.337   9.978  18.115  0.00  0.00    +0.000 NA
ATOM     18  O   UNL     1      -1.218  10.758  18.853  0.00  0.00    +0.000 OA
BRANCH  14  19
ATOM     19  C   UNL     1      -1.355  12.066  20.906  0.00  0.00    +0.000 C 
BRANCH  19  21
ATOM     20  C   UNL     1      -1.007  13.387  23.065  0.00  0.00    +0.000 C 
ATOM     21  C   UNL     1      -0.781  12.060  22.334  0.00  0.00    +0.000 C 
ATOM     22  C   UNL     1      -1.416  10.925  23.144  0.00  0.00    +0.000 C 
ENDBRANCH  19  21
ENDBRANCH  14  19
ENDBRANCH  13  16
ENDBRANCH   1  13
TORSDOF 5
ENDMDL
