MODEL 1
REMARK VINA RESULT:      -8.0      0.000      0.000
REMARK  Name = 
REMARK  7 active torsions:
REMARK  status: ('A' for Active; 'I' for Inactive)
REMARK    1  A    between atoms: C_1  and  C_2
REMARK    2  A    between atoms: C_4  and  C_5
REMARK    3  A    between atoms: C_6  and  N_7
REMARK    4  A    between atoms: C_12  and  C_13
REMARK    5  A    between atoms: C_13  and  N_14
REMARK    6  A    between atoms: C_18  and  C_19
REMARK    7  A    between atoms: C_22  and  C_23
REMARK                            x       y       z     vdW  Elec       q    Type
REMARK                         _______ _______ _______ _____ _____    ______ ____
ROOT
ATOM      1  N   UNL     1       5.030   5.430  17.267  0.00  0.00    +0.000 NA
ATOM      2  C   UNL     1       5.765   5.204  18.516  0.00  0.00    +0.000 C 
ATOM      3  C   UNL     1       6.908   6.189  18.554  0.00  0.00    +0.000 C 
ATOM      4  C   UNL     1       7.245   6.422  17.102  0.00  0.00    +0.000 C 
ATOM      5  C   UNL     1       5.955   6.110  16.329  0.00  0.00    +0.000 C 
ENDROOT
BRANCH   5   6
ATOM      6  C   UNL     1       6.275   5.249  15.132  0.00  0.00    +0.000 A 
ATOM      7  C   UNL     1       7.425   5.188  14.368  0.00  0.00    +0.000 A 
ATOM      8  C   UNL     1       7.268   4.356  13.221  0.00  0.00    +0.000 A 
ATOM      9  C   UNL     1       6.013   3.785  13.146  0.00  0.00    +0.000 A 
ATOM     10  S   UNL     1       5.061   4.216  14.504  0.00  0.00    +0.000 S 
BRANCH   9  11
ATOM     11  C   UNL     1       5.496   2.935  12.089  0.00  0.00    +0.000 C 
ATOM     12  N   UNL     1       6.267   1.857  11.732  0.00  0.00    +0.000 N 
ATOM     13  O   UNL     1       4.424   3.115  11.520  0.00  0.00    +0.000 OA
ATOM     14  H   UNL     1       7.139   1.659  12.196  0.00  0.00    +0.000 HD
ATOM     15  H   UNL     1       5.916   1.238  11.025  0.00  0.00    +0.000 HD
ENDBRANCH   9  11
ENDBRANCH   5   6
BRANCH   1  16
ATOM     16  C   UNL     1       3.769   6.195  17.403  0.00  0.00    +0.000 C 
BRANCH  16  23
ATOM     17  C   UNL     1       1.431   8.515  21.177  0.00  0.00    +0.000 C 
ATOM     18  C   UNL     1       1.804   7.212  20.536  0.00  0.00    +0.000 A 
ATOM     19  C   UNL     1       1.330   5.994  21.009  0.00  0.00    +0.000 A 
ATOM     20  C   UNL     1       1.665   4.782  20.375  0.00  0.00    +0.000 A 
ATOM     21  C   UNL     1       1.146   3.522  21.028  0.00  0.00    +0.000 C 
ATOM     22  C   UNL     1       2.493   4.802  19.209  0.00  0.00    +0.000 A 
ATOM     23  C   UNL     1       2.973   6.052  18.704  0.00  0.00    +0.000 A 
ATOM     24  C   UNL     1       2.635   7.220  19.417  0.00  0.00    +0.000 A 
BRANCH  22  25
ATOM     25  N   UNL     1       2.815   3.556  18.569  0.00  0.00    +0.000 N 
ATOM     26  C   UNL     1       3.685   2.563  18.984  0.00  0.00    +0.000 A 
ATOM     27  C   UNL     1       3.705   1.587  18.016  0.00  0.00    +0.000 A 
ATOM     28  C   UNL     1       2.771   2.020  17.072  0.00  0.00    +0.000 A 
ATOM     29  N   UNL     1       2.223   3.189  17.399  0.00  0.00    +0.000 NA
ENDBRANCH  22  25
ENDBRANCH  16  23
ENDBRANCH   1  16
TORSDOF 5
ENDMDL
MODEL 2
REMARK VINA RESULT:      -7.3      2.870      4.572
REMARK  Name = 
REMARK  7 active torsions:
REMARK  status: ('A' for Active; 'I' for Inactive)
REMARK    1  A    between atoms: C_1  and  C_2
REMARK    2  A    between atoms: C_4  and  C_5
REMARK    3  A    between atoms: C_6  and  N_7
REMARK    4  A    between atoms: C_12  and  C_13
REMARK    5  A    between atoms: C_13  and  N_14
REMARK    6  A    between atoms: C_18  and  C_19
REMARK    7  A    between atoms: C_22  and  C_23
REMARK                            x       y       z     vdW  Elec       q    Type
REMARK                         _______ _______ _______ _____ _____    ______ ____
ROOT
ATOM      1  N   UNL     1       5.247   5.496  16.097  0.00  0.00    +0.000 NA
ATOM      2  C   UNL     1       5.422   5.446  14.641  0.00  0.00    +0.000 C 
ATOM      3  C   UNL     1       6.427   4.361  14.342  0.00  0.00    +0.000 C 
ATOM      4  C   UNL     1       7.314   4.332  15.562  0.00  0.00    +0.000 C 
ATOM      5  C   UNL     1       6.453   4.888  16.706  0.00  0.00    +0.000 C 
ENDROOT
BRANCH   5   6
ATOM      6  C   UNL     1       7.251   5.895  17.499  0.00  0.00    +0.000 A 
ATOM      7  C   UNL     1       7.836   5.776  18.745  0.00  0.00    +0.000 A 
ATOM      8  C   UNL     1       8.364   7.014  19.214  0.00  0.00    +0.000 A 
ATOM      9  C   UNL     1       8.190   8.043  18.309  0.00  0.00    +0.000 A 
ATOM     10  S   UNL     1       7.443   7.479  16.875  0.00  0.00    +0.000 S 
BRANCH   9  11
ATOM     11  C   UNL     1       8.554   9.437  18.484  0.00  0.00    +0.000 C 
ATOM     12  N   UNL     1       9.323   9.742  19.580  0.00  0.00    +0.000 N 
ATOM     13  O   UNL     1       8.231  10.337  17.714  0.00  0.00    +0.000 OA
ATOM     14  H   UNL     1       9.632   9.027  20.218  0.00  0.00    +0.000 HD
ATOM     15  H   UNL     1       9.613  10.694  19.704  0.00  0.00    +0.000 HD
ENDBRANCH   9  11
ENDBRANCH   5   6
BRANCH   1  16
ATOM     16  C   UNL     1       4.019   4.847  16.610  0.00  0.00    +0.000 C 
BRANCH  16  23
ATOM     17  C   UNL     1       1.849   8.732  18.909  0.00  0.00    +0.000 C 
ATOM     18  C   UNL     1       2.304   7.307  19.001  0.00  0.00    +0.000 A 
ATOM     19  C   UNL     1       2.036   6.517  20.113  0.00  0.00    +0.000 A 
ATOM     20  C   UNL     1       2.443   5.170  20.168  0.00  0.00    +0.000 A 
ATOM     21  C   UNL     1       2.155   4.440  21.460  0.00  0.00    +0.000 C 
ATOM     22  C   UNL     1       3.128   4.594  19.054  0.00  0.00    +0.000 A 
ATOM     23  C   UNL     1       3.395   5.393  17.898  0.00  0.00    +0.000 A 
ATOM     24  C   UNL     1       2.999   6.746  17.931  0.00  0.00    +0.000 A 
BRANCH  22  25
ATOM     25  N   UNL     1       3.525   3.214  19.124  0.00  0.00    +0.000 N 
ATOM     26  C   UNL     1       2.898   2.100  18.594  0.00  0.00    +0.000 A 
ATOM     27  C   UNL     1       3.620   0.991  18.968  0.00  0.00    +0.000 A 
ATOM     28  C   UNL     1       4.713   1.512  19.667  0.00  0.00    +0.000 A 
ATOM     29  N   UNL     1       4.672   2.841  19.755  0.00  0.00    +0.000 NA
ENDBRANCH  22  25
ENDBRANCH  16  23
ENDBRANCH   1  16
TORSDOF 5
ENDMDL
MODEL 3
REMARK VINA RESULT:      -7.2      1.466      2.239
REMARK  Name = 
REMARK  7 active torsions:
REMARK  status: ('A' for Active; 'I' for Inactive)
REMARK    1  A    between atoms: C_1  and  C_2
REMARK    2  A    between atoms: C_4  and  C_5
REMARK    3  A    between atoms: C_6  and  N_7
REMARK    4  A    between atoms: C_12  and  C_13
REMARK    5  A    between atoms: C_13  and  N_14
REMARK    6  A    between atoms: C_18  and  C_19
REMARK    7  A    between atoms: C_22  and  C_23
REMARK                            x       y       z     vdW  Elec       q    Type
REMARK                         _______ _______ _______ _____ _____    ______ ____
ROOT
ATOM      1  N   UNL     1       4.475   4.544  17.554  0.00  0.00    +0.000 NA
ATOM      2  C   UNL     1       5.172   4.417  18.838  0.00  0.00    +0.000 C 
ATOM      3  C   UNL     1       5.931   5.701  19.071  0.00  0.00    +0.000 C 
ATOM      4  C   UNL     1       6.256   6.195  17.683  0.00  0.00    +0.000 C 
ATOM      5  C   UNL     1       5.182   5.585  16.771  0.00  0.00    +0.000 C 
ENDROOT
BRANCH   5   6
ATOM      6  C   UNL     1       5.830   5.013  15.533  0.00  0.00    +0.000 A 
ATOM      7  C   UNL     1       7.026   5.348  14.927  0.00  0.00    +0.000 A 
ATOM      8  C   UNL     1       7.204   4.681  13.679  0.00  0.00    +0.000 A 
ATOM      9  C   UNL     1       6.153   3.839  13.372  0.00  0.00    +0.000 A 
ATOM     10  S   UNL     1       4.993   3.821  14.632  0.00  0.00    +0.000 S 
BRANCH   9  11
ATOM     11  C   UNL     1       5.981   3.055  12.163  0.00  0.00    +0.000 C 
ATOM     12  N   UNL     1       7.086   2.387  11.698  0.00  0.00    +0.000 N 
ATOM     13  O   UNL     1       4.920   2.947  11.555  0.00  0.00    +0.000 OA
ATOM     14  H   UNL     1       7.966   2.427  12.185  0.00  0.00    +0.000 HD
ATOM     15  H   UNL     1       6.983   1.813  10.882  0.00  0.00    +0.000 HD
ENDBRANCH   9  11
ENDBRANCH   5   6
BRANCH   1  16
ATOM     16  C   UNL     1       3.029   4.850  17.645  0.00  0.00    +0.000 C 
BRANCH  16  23
ATOM     17  C   UNL     1       2.377   9.815  17.551  0.00  0.00    +0.000 C 
ATOM     18  C   UNL     1       2.261   8.543  18.336  0.00  0.00    +0.000 A 
ATOM     19  C   UNL     1       1.671   8.503  19.593  0.00  0.00    +0.000 A 
ATOM     20  C   UNL     1       1.542   7.294  20.303  0.00  0.00    +0.000 A 
ATOM     21  C   UNL     1       0.948   7.395  21.689  0.00  0.00    +0.000 C 
ATOM     22  C   UNL     1       2.007   6.078  19.714  0.00  0.00    +0.000 A 
ATOM     23  C   UNL     1       2.602   6.105  18.412  0.00  0.00    +0.000 A 
ATOM     24  C   UNL     1       2.740   7.358  17.781  0.00  0.00    +0.000 A 
BRANCH  22  25
ATOM     25  N   UNL     1       1.856   4.851  20.448  0.00  0.00    +0.000 N 
ATOM     26  C   UNL     1       2.667   4.325  21.439  0.00  0.00    +0.000 A 
ATOM     27  C   UNL     1       2.149   3.104  21.803  0.00  0.00    +0.000 A 
ATOM     28  C   UNL     1       0.984   2.984  21.041  0.00  0.00    +0.000 A 
ATOM     29  N   UNL     1       0.793   4.028  20.237  0.00  0.00    +0.000 NA
ENDBRANCH  22  25
ENDBRANCH  16  23
ENDBRANCH   1  16
TORSDOF 5
ENDMDL
MODEL 4
REMARK VINA RESULT:      -7.2      2.914      5.696
REMARK  Name = 
REMARK  7 active torsions:
REMARK  status: ('A' for Active; 'I' for Inactive)
REMARK    1  A    between atoms: C_1  and  C_2
REMARK    2  A    between atoms: C_4  and  C_5
REMARK    3  A    between atoms: C_6  and  N_7
REMARK    4  A    between atoms: C_12  and  C_13
REMARK    5  A    between atoms: C_13  and  N_14
REMARK    6  A    between atoms: C_18  and  C_19
REMARK    7  A    between atoms: C_22  and  C_23
REMARK                            x       y       z     vdW  Elec       q    Type
REMARK                         _______ _______ _______ _____ _____    ______ ____
ROOT
ATOM      1  N   UNL     1       1.891   4.680  20.107  0.00  0.00    +0.000 NA
ATOM      2  C   UNL     1       1.018   3.654  20.688  0.00  0.00    +0.000 C 
ATOM      3  C   UNL     1       1.873   2.779  21.572  0.00  0.00    +0.000 C 
ATOM      4  C   UNL     1       3.240   2.834  20.936  0.00  0.00    +0.000 C 
ATOM      5  C   UNL     1       3.278   4.162  20.165  0.00  0.00    +0.000 C 
ENDROOT
BRANCH   5   6
ATOM      6  C   UNL     1       3.850   3.933  18.787  0.00  0.00    +0.000 A 
ATOM      7  C   UNL     1       3.413   3.100  17.775  0.00  0.00    +0.000 A 
ATOM      8  C   UNL     1       4.328   3.052  16.682  0.00  0.00    +0.000 A 
ATOM      9  C   UNL     1       5.429   3.864  16.874  0.00  0.00    +0.000 A 
ATOM     10  S   UNL     1       5.307   4.723  18.352  0.00  0.00    +0.000 S 
BRANCH   9  11
ATOM     11  C   UNL     1       6.574   4.014  15.995  0.00  0.00    +0.000 C 
ATOM     12  N   UNL     1       6.380   3.709  14.671  0.00  0.00    +0.000 N 
ATOM     13  O   UNL     1       7.679   4.403  16.361  0.00  0.00    +0.000 OA
ATOM     14  H   UNL     1       5.480   3.414  14.328  0.00  0.00    +0.000 HD
ATOM     15  H   UNL     1       7.148   3.834  14.039  0.00  0.00    +0.000 HD
ENDBRANCH   9  11
ENDBRANCH   5   6
BRANCH   1  16
ATOM     16  C   UNL     1       1.805   6.017  20.740  0.00  0.00    +0.000 C 
BRANCH  16  23
ATOM     17  C   UNL     1       3.560   7.850  16.421  0.00  0.00    +0.000 C 
ATOM     18  C   UNL     1       2.851   8.127  17.713  0.00  0.00    +0.000 A 
ATOM     19  C   UNL     1       2.294   9.368  17.998  0.00  0.00    +0.000 A 
ATOM     20  C   UNL     1       1.604   9.601  19.203  0.00  0.00    +0.000 A 
ATOM     21  C   UNL     1       1.109  11.011  19.426  0.00  0.00    +0.000 C 
ATOM     22  C   UNL     1       1.452   8.537  20.145  0.00  0.00    +0.000 A 
ATOM     23  C   UNL     1       2.007   7.250  19.855  0.00  0.00    +0.000 A 
ATOM     24  C   UNL     1       2.725   7.103  18.651  0.00  0.00    +0.000 A 
BRANCH  22  25
ATOM     25  N   UNL     1       0.734   8.790  21.365  0.00  0.00    +0.000 N 
ATOM     26  C   UNL     1      -0.604   8.572  21.648  0.00  0.00    +0.000 A 
ATOM     27  C   UNL     1      -0.842   9.021  22.925  0.00  0.00    +0.000 A 
ATOM     28  C   UNL     1       0.411   9.436  23.384  0.00  0.00    +0.000 A 
ATOM     29  N   UNL     1       1.362   9.289  22.464  0.00  0.00    +0.000 NA
ENDBRANCH  22  25
ENDBRANCH  16  23
ENDBRANCH   1  16
TORSDOF 5
ENDMDL
MODEL 5
REMARK VINA RESULT:      -7.1      1.653      3.580
REMARK  Name = 
REMARK  7 active torsions:
REMARK  status: ('A' for Active; 'I' for Inactive)
REMARK    1  A    between atoms: C_1  and  C_2
REMARK    2  A    between atoms: C_4  and  C_5
REMARK    3  A    between atoms: C_6  and  N_7
REMARK    4  A    between atoms: C_12  and  C_13
REMARK    5  A    between atoms: C_13  and  N_14
REMARK    6  A    between atoms: C_18  and  C_19
REMARK    7  A    between atoms: C_22  and  C_23
REMARK                            x       y       z     vdW  Elec       q    Type
REMARK                         _______ _______ _______ _____ _____    ______ ____
ROOT
ATOM      1  N   UNL     1       6.828   5.468  18.379  0.00  0.00    +0.000 NA
ATOM      2  C   UNL     1       8.014   6.043  19.024  0.00  0.00    +0.000 C 
ATOM      3  C   UNL     1       8.130   7.476  18.565  0.00  0.00    +0.000 C 
ATOM      4  C   UNL     1       7.517   7.473  17.186  0.00  0.00    +0.000 C 
ATOM      5  C   UNL     1       6.543   6.285  17.175  0.00  0.00    +0.000 C 
ENDROOT
BRANCH   5   6
ATOM      6  C   UNL     1       6.722   5.494  15.903  0.00  0.00    +0.000 A 
ATOM      7  C   UNL     1       7.805   5.427  15.048  0.00  0.00    +0.000 A 
ATOM      8  C   UNL     1       7.515   4.686  13.865  0.00  0.00    +0.000 A 
ATOM      9  C   UNL     1       6.227   4.186  13.854  0.00  0.00    +0.000 A 
ATOM     10  S   UNL     1       5.407   4.570  15.308  0.00  0.00    +0.000 S 
BRANCH   9  11
ATOM     11  C   UNL     1       5.584   3.439  12.788  0.00  0.00    +0.000 C 
ATOM     12  N   UNL     1       6.332   2.460  12.183  0.00  0.00    +0.000 N 
ATOM     13  O   UNL     1       4.429   3.621  12.417  0.00  0.00    +0.000 OA
ATOM     14  H   UNL     1       7.273   2.260  12.480  0.00  0.00    +0.000 HD
ATOM     15  H   UNL     1       5.898   1.909  11.465  0.00  0.00    +0.000 HD
ENDBRANCH   9  11
ENDBRANCH   5   6
BRANCH   1  16
ATOM     16  C   UNL     1       5.626   5.365  19.237  0.00  0.00    +0.000 C 
BRANCH  16  23
ATOM     17  C   UNL     1       4.046   0.651  18.632  0.00  0.00    +0.000 C 
ATOM     18  C   UNL     1       3.725   2.111  18.525  0.00  0.00    +0.000 A 
ATOM     19  C   UNL     1       2.454   2.566  18.194  0.00  0.00    +0.000 A 
ATOM     20  C   UNL     1       2.163   3.942  18.130  0.00  0.00    +0.000 A 
ATOM     21  C   UNL     1       0.765   4.307  17.688  0.00  0.00    +0.000 C 
ATOM     22  C   UNL     1       3.186   4.894  18.430  0.00  0.00    +0.000 A 
ATOM     23  C   UNL     1       4.494   4.437  18.788  0.00  0.00    +0.000 A 
ATOM     24  C   UNL     1       4.725   3.046  18.787  0.00  0.00    +0.000 A 
BRANCH  22  25
ATOM     25  N   UNL     1       2.866   6.294  18.370  0.00  0.00    +0.000 N 
ATOM     26  C   UNL     1       3.066   7.189  17.333  0.00  0.00    +0.000 A 
ATOM     27  C   UNL     1       2.653   8.428  17.760  0.00  0.00    +0.000 A 
ATOM     28  C   UNL     1       2.149   8.200  19.044  0.00  0.00    +0.000 A 
ATOM     29  N   UNL     1       2.260   6.925  19.413  0.00  0.00    +0.000 NA
ENDBRANCH  22  25
ENDBRANCH  16  23
ENDBRANCH   1  16
TORSDOF 5
ENDMDL
MODEL 6
REMARK VINA RESULT:      -7.1      4.871      7.764
REMARK  Name = 
REMARK  7 active torsions:
REMARK  status: ('A' for Active; 'I' for Inactive)
REMARK    1  A    between atoms: C_1  and  C_2
REMARK    2  A    between atoms: C_4  and  C_5
REMARK    3  A    between atoms: C_6  and  N_7
REMARK    4  A    between atoms: C_12  and  C_13
REMARK    5  A    between atoms: C_13  and  N_14
REMARK    6  A    between atoms: C_18  and  C_19
REMARK    7  A    between atoms: C_22  and  C_23
REMARK                            x       y       z     vdW  Elec       q    Type
REMARK                         _______ _______ _______ _____ _____    ______ ____
ROOT
ATOM      1  N   UNL     1       1.914   8.579  19.257  0.00  0.00    +0.000 NA
ATOM      2  C   UNL     1       1.872   8.172  20.666  0.00  0.00    +0.000 C 
ATOM      3  C   UNL     1       0.443   8.301  21.133  0.00  0.00    +0.000 C 
ATOM      4  C   UNL     1      -0.123   9.417  20.289  0.00  0.00    +0.000 C 
ATOM      5  C   UNL     1       0.728   9.433  19.011  0.00  0.00    +0.000 C 
ENDROOT
BRANCH   5   6
ATOM      6  C   UNL     1       1.117  10.852  18.677  0.00  0.00    +0.000 A 
ATOM      7  C   UNL     1       2.309  11.351  18.188  0.00  0.00    +0.000 A 
ATOM      8  C   UNL     1       2.327  12.776  18.159  0.00  0.00    +0.000 A 
ATOM      9  C   UNL     1       1.144  13.332  18.606  0.00  0.00    +0.000 A 
ATOM     10  S   UNL     1       0.002  12.115  18.994  0.00  0.00    +0.000 S 
BRANCH   9  11
ATOM     11  C   UNL     1       0.839  14.743  18.761  0.00  0.00    +0.000 C 
ATOM     12  N   UNL     1      -0.484  15.100  18.696  0.00  0.00    +0.000 N 
ATOM     13  O   UNL     1       1.682  15.613  18.958  0.00  0.00    +0.000 OA
ATOM     14  H   UNL     1      -1.207  14.411  18.565  0.00  0.00    +0.000 HD
ATOM     15  H   UNL     1      -0.721  16.065  18.832  0.00  0.00    +0.000 HD
ENDBRANCH   9  11
ENDBRANCH   5   6
BRANCH   1  16
ATOM     16  C   UNL     1       1.973   7.469  18.279  0.00  0.00    +0.000 C 
BRANCH  16  23
ATOM     17  C   UNL     1       6.845   7.457  17.117  0.00  0.00    +0.000 C 
ATOM     18  C   UNL     1       5.670   6.681  17.631  0.00  0.00    +0.000 A 
ATOM     19  C   UNL     1       5.796   5.385  18.118  0.00  0.00    +0.000 A 
ATOM     20  C   UNL     1       4.686   4.683  18.626  0.00  0.00    +0.000 A 
ATOM     21  C   UNL     1       4.941   3.257  19.058  0.00  0.00    +0.000 C 
ATOM     22  C   UNL     1       3.407   5.319  18.664  0.00  0.00    +0.000 A 
ATOM     23  C   UNL     1       3.268   6.659  18.180  0.00  0.00    +0.000 A 
ATOM     24  C   UNL     1       4.412   7.283  17.643  0.00  0.00    +0.000 A 
BRANCH  22  25
ATOM     25  N   UNL     1       2.288   4.590  19.197  0.00  0.00    +0.000 N 
ATOM     26  C   UNL     1       1.823   4.542  20.500  0.00  0.00    +0.000 A 
ATOM     27  C   UNL     1       0.762   3.668  20.536  0.00  0.00    +0.000 A 
ATOM     28  C   UNL     1       0.594   3.275  19.206  0.00  0.00    +0.000 A 
ATOM     29  N   UNL     1       1.493   3.831  18.395  0.00  0.00    +0.000 NA
ENDBRANCH  22  25
ENDBRANCH  16  23
ENDBRANCH   1  16
TORSDOF 5
ENDMDL
MODEL 7
REMARK VINA RESULT:      -7.0      4.662      8.233
REMARK  Name = 
REMARK  7 active torsions:
REMARK  status: ('A' for Active; 'I' for Inactive)
REMARK    1  A    between atoms: C_1  and  C_2
REMARK    2  A    between atoms: C_4  and  C_5
REMARK    3  A    between atoms: C_6  and  N_7
REMARK    4  A    between atoms: C_12  and  C_13
REMARK    5  A    between atoms: C_13  and  N_14
REMARK    6  A    between atoms: C_18  and  C_19
REMARK    7  A    between atoms: C_22  and  C_23
REMARK                            x       y       z     vdW  Elec       q    Type
REMARK                         _______ _______ _______ _____ _____    ______ ____
ROOT
ATOM      1  N   UNL     1       1.824   7.468  19.388  0.00  0.00    +0.000 NA
ATOM      2  C   UNL     1       1.308   7.449  18.015  0.00  0.00    +0.000 C 
ATOM      3  C   UNL     1       1.669   8.767  17.376  0.00  0.00    +0.000 C 
ATOM      4  C   UNL     1       1.702   9.740  18.529  0.00  0.00    +0.000 C 
ATOM      5  C   UNL     1       1.997   8.889  19.773  0.00  0.00    +0.000 C 
ENDROOT
BRANCH   5   6
ATOM      6  C   UNL     1       1.065   9.286  20.892  0.00  0.00    +0.000 A 
ATOM      7  C   UNL     1       0.380   8.496  21.795  0.00  0.00    +0.000 A 
ATOM      8  C   UNL     1      -0.526   9.251  22.595  0.00  0.00    +0.000 A 
ATOM      9  C   UNL     1      -0.496  10.601  22.302  0.00  0.00    +0.000 A 
ATOM     10  S   UNL     1       0.677  10.942  21.101  0.00  0.00    +0.000 S 
BRANCH   9  11
ATOM     11  C   UNL     1      -1.323  11.644  22.882  0.00  0.00    +0.000 C 
ATOM     12  N   UNL     1      -0.846  12.928  22.795  0.00  0.00    +0.000 N 
ATOM     13  O   UNL     1      -2.407  11.446  23.421  0.00  0.00    +0.000 OA
ATOM     14  H   UNL     1       0.025  13.134  22.335  0.00  0.00    +0.000 HD
ATOM     15  H   UNL     1      -1.415  13.669  23.161  0.00  0.00    +0.000 HD
ENDBRANCH   9  11
ENDBRANCH   5   6
BRANCH   1  16
ATOM     16  C   UNL     1       3.078   6.711  19.605  0.00  0.00    +0.000 C 
BRANCH  16  23
ATOM     17  C   UNL     1       5.578   5.926  15.337  0.00  0.00    +0.000 C 
ATOM     18  C   UNL     1       4.768   5.333  16.451  0.00  0.00    +0.000 A 
ATOM     19  C   UNL     1       4.567   3.963  16.569  0.00  0.00    +0.000 A 
ATOM     20  C   UNL     1       3.830   3.422  17.640  0.00  0.00    +0.000 A 
ATOM     21  C   UNL     1       3.622   1.925  17.617  0.00  0.00    +0.000 C 
ATOM     22  C   UNL     1       3.294   4.293  18.639  0.00  0.00    +0.000 A 
ATOM     23  C   UNL     1       3.509   5.704  18.536  0.00  0.00    +0.000 A 
ATOM     24  C   UNL     1       4.216   6.178  17.412  0.00  0.00    +0.000 A 
BRANCH  22  25
ATOM     25  N   UNL     1       2.555   3.721  19.732  0.00  0.00    +0.000 N 
ATOM     26  C   UNL     1       1.187   3.558  19.866  0.00  0.00    +0.000 A 
ATOM     27  C   UNL     1       0.947   3.016  21.106  0.00  0.00    +0.000 A 
ATOM     28  C   UNL     1       2.220   2.811  21.644  0.00  0.00    +0.000 A 
ATOM     29  N   UNL     1       3.189   3.217  20.825  0.00  0.00    +0.000 NA
ENDBRANCH  22  25
ENDBRANCH  16  23
ENDBRANCH   1  16
TORSDOF 5
ENDMDL
MODEL 8
REMARK VINA RESULT:      -7.0      1.698      3.606
REMARK  Name = 
REMARK  7 active torsions:
REMARK  status: ('A' for Active; 'I' for Inactive)
REMARK    1  A    between atoms: C_1  and  C_2
REMARK    2  A    between atoms: C_4  and  C_5
REMARK    3  A    between atoms: C_6  and  N_7
REMARK    4  A    between atoms: C_12  and  C_13
REMARK    5  A    between atoms: C_13  and  N_14
REMARK    6  A    between atoms: C_18  and  C_19
REMARK    7  A    between atoms: C_22  and  C_23
REMARK                            x       y       z     vdW  Elec       q    Type
REMARK                         _______ _______ _______ _____ _____    ______ ____
ROOT
ATOM      1  N   UNL     1       6.369   5.359  18.325  0.00  0.00    +0.000 NA
ATOM      2  C   UNL     1       7.719   5.738  18.756  0.00  0.00    +0.000 C 
ATOM      3  C   UNL     1       7.989   7.127  18.231  0.00  0.00    +0.000 C 
ATOM      4  C   UNL     1       7.172   7.210  16.966  0.00  0.00    +0.000 C 
ATOM      5  C   UNL     1       6.031   6.198  17.151  0.00  0.00    +0.000 C 
ENDROOT
BRANCH   5   6
ATOM      6  C   UNL     1       5.875   5.373  15.896  0.00  0.00    +0.000 A 
ATOM      7  C   UNL     1       5.003   4.336  15.623  0.00  0.00    +0.000 A 
ATOM      8  C   UNL     1       5.284   3.710  14.373  0.00  0.00    +0.000 A 
ATOM      9  C   UNL     1       6.348   4.295  13.713  0.00  0.00    +0.000 A 
ATOM     10  S   UNL     1       6.951   5.637  14.590  0.00  0.00    +0.000 S 
BRANCH   9  11
ATOM     11  C   UNL     1       6.935   3.879  12.453  0.00  0.00    +0.000 C 
ATOM     12  N   UNL     1       6.670   2.596  12.042  0.00  0.00    +0.000 N 
ATOM     13  O   UNL     1       7.629   4.600  11.742  0.00  0.00    +0.000 OA
ATOM     14  H   UNL     1       6.081   1.984  12.582  0.00  0.00    +0.000 HD
ATOM     15  H   UNL     1       7.039   2.297  11.159  0.00  0.00    +0.000 HD
ENDBRANCH   9  11
ENDBRANCH   5   6
BRANCH   1  16
ATOM     16  C   UNL     1       5.319   5.464  19.363  0.00  0.00    +0.000 C 
BRANCH  16  23
ATOM     17  C   UNL     1       4.059   0.626  19.060  0.00  0.00    +0.000 C 
ATOM     18  C   UNL     1       3.595   2.041  19.238  0.00  0.00    +0.000 A 
ATOM     19  C   UNL     1       2.272   2.353  19.529  0.00  0.00    +0.000 A 
ATOM     20  C   UNL     1       1.861   3.685  19.725  0.00  0.00    +0.000 A 
ATOM     21  C   UNL     1       0.385   3.899  19.963  0.00  0.00    +0.000 C 
ATOM     22  C   UNL     1       2.824   4.739  19.644  0.00  0.00    +0.000 A 
ATOM     23  C   UNL     1       4.192   4.428  19.361  0.00  0.00    +0.000 A 
ATOM     24  C   UNL     1       4.522   3.077  19.130  0.00  0.00    +0.000 A 
BRANCH  22  25
ATOM     25  N   UNL     1       2.387   6.093  19.858  0.00  0.00    +0.000 N 
ATOM     26  C   UNL     1       1.871   6.669  21.005  0.00  0.00    +0.000 A 
ATOM     27  C   UNL     1       1.545   7.972  20.713  0.00  0.00    +0.000 A 
ATOM     28  C   UNL     1       1.955   8.140  19.387  0.00  0.00    +0.000 A 
ATOM     29  N   UNL     1       2.472   7.026  18.871  0.00  0.00    +0.000 NA
ENDBRANCH  22  25
ENDBRANCH  16  23
ENDBRANCH   1  16
TORSDOF 5
ENDMDL
MODEL 9
REMARK VINA RESULT:      -7.0      6.381      9.241
REMARK  Name = 
REMARK  7 active torsions:
REMARK  status: ('A' for Active; 'I' for Inactive)
REMARK    1  A    between atoms: C_1  and  C_2
REMARK    2  A    between atoms: C_4  and  C_5
REMARK    3  A    between atoms: C_6  and  N_7
REMARK    4  A    between atoms: C_12  and  C_13
REMARK    5  A    between atoms: C_13  and  N_14
REMARK    6  A    between atoms: C_18  and  C_19
REMARK    7  A    between atoms: C_22  and  C_23
REMARK                            x       y       z     vdW  Elec       q    Type
REMARK                         _______ _______ _______ _____ _____    ______ ____
ROOT
ATOM      1  N   UNL     1      -0.442  12.120  19.833  0.00  0.00    +0.000 NA
ATOM      2  C   UNL     1       0.105  13.182  20.684  0.00  0.00    +0.000 C 
ATOM      3  C   UNL     1       1.402  13.638  20.063  0.00  0.00    +0.000 C 
ATOM      4  C   UNL     1       1.925  12.412  19.355  0.00  0.00    +0.000 C 
ATOM      5  C   UNL     1       0.685  11.556  19.054  0.00  0.00    +0.000 C 
ENDROOT
BRANCH   5   6
ATOM      6  C   UNL     1       0.960  10.118  19.422  0.00  0.00    +0.000 A 
ATOM      7  C   UNL     1       0.752   9.456  20.617  0.00  0.00    +0.000 A 
ATOM      8  C   UNL     1       1.296   8.138  20.606  0.00  0.00    +0.000 A 
ATOM      9  C   UNL     1       1.886   7.817  19.399  0.00  0.00    +0.000 A 
ATOM     10  S   UNL     1       1.717   9.097  18.273  0.00  0.00    +0.000 S 
BRANCH   9  11
ATOM     11  C   UNL     1       2.582   6.589  19.061  0.00  0.00    +0.000 C 
ATOM     12  N   UNL     1       3.261   5.964  20.077  0.00  0.00    +0.000 N 
ATOM     13  O   UNL     1       2.583   6.081  17.943  0.00  0.00    +0.000 OA
ATOM     14  H   UNL     1       3.259   6.334  21.013  0.00  0.00    +0.000 HD
ATOM     15  H   UNL     1       3.723   5.098  19.874  0.00  0.00    +0.000 HD
ENDBRANCH   9  11
ENDBRANCH   5   6
BRANCH   1  16
ATOM     16  C   UNL     1      -1.545  12.532  18.935  0.00  0.00    +0.000 C 
BRANCH  16  23
ATOM     17  C   UNL     1      -5.084  13.368  22.379  0.00  0.00    +0.000 C 
ATOM     18  C   UNL     1      -4.719  12.717  21.078  0.00  0.00    +0.000 A 
ATOM     19  C   UNL     1      -5.660  12.068  20.288  0.00  0.00    +0.000 A 
ATOM     20  C   UNL     1      -5.306  11.491  19.054  0.00  0.00    +0.000 A 
ATOM     21  C   UNL     1      -6.404  10.751  18.325  0.00  0.00    +0.000 C 
ATOM     22  C   UNL     1      -3.958  11.590  18.590  0.00  0.00    +0.000 A 
ATOM     23  C   UNL     1      -2.984  12.271  19.388  0.00  0.00    +0.000 A 
ATOM     24  C   UNL     1      -3.400  12.783  20.633  0.00  0.00    +0.000 A 
BRANCH  22  25
ATOM     25  N   UNL     1      -3.617  11.004  17.322  0.00  0.00    +0.000 N 
ATOM     26  C   UNL     1      -3.826  11.505  16.048  0.00  0.00    +0.000 A 
ATOM     27  C   UNL     1      -3.384  10.565  15.148  0.00  0.00    +0.000 A 
ATOM     28  C   UNL     1      -2.855   9.547  15.946  0.00  0.00    +0.000 A 
ATOM     29  N   UNL     1      -2.978   9.805  17.246  0.00  0.00    +0.000 NA
ENDBRANCH  22  25
ENDBRANCH  16  23
ENDBRANCH   1  16
TORSDOF 5
ENDMDL
