MODEL 1
REMARK VINA RESULT:      -7.3      0.000      0.000
REMARK  Name = 
REMARK  6 active torsions:
REMARK  status: ('A' for Active; 'I' for Inactive)
REMARK    1  A    between atoms: C_1  and  C_2
REMARK    2  A    between atoms: C_4  and  C_5
REMARK    3  A    between atoms: C_6  and  C_7
REMARK    4  A    between atoms: C_9  and  C_10
REMARK    5  A    between atoms: N_12  and  C_13
REMARK    6  A    between atoms: C_13  and  C_14
REMARK                            x       y       z     vdW  Elec       q    Type
REMARK                         _______ _______ _______ _____ _____    ______ ____
ROOT
ATOM      1  C   UNL     1       4.791   4.973  17.930  0.00  0.00    +0.000 A 
ATOM      2  C   UNL     1       3.951   6.002  18.405  0.00  0.00    +0.000 A 
ATOM      3  C   UNL     1       3.243   5.452  19.456  0.00  0.00    +0.000 A 
ATOM      4  N   UNL     1       3.764   4.195  19.604  0.00  0.00    +0.000 N 
ATOM      5  N   UNL     1       4.642   3.853  18.648  0.00  0.00    +0.000 NA
ATOM      6  H   UNL     1       3.525   3.515  20.320  0.00  0.00    +0.000 HD
ENDROOT
BRANCH   1  12
ATOM      7  C   UNL     1       7.317   4.690  13.256  0.00  0.00    +0.000 C 
ATOM      8  C   UNL     1       6.891   4.976  14.651  0.00  0.00    +0.000 A 
ATOM      9  N   UNL     1       7.544   5.757  15.482  0.00  0.00    +0.000 NA
ATOM     10  C   UNL     1       6.888   5.809  16.708  0.00  0.00    +0.000 A 
ATOM     11  C   UNL     1       7.536   6.553  17.820  0.00  0.00    +0.000 C 
ATOM     12  C   UNL     1       5.709   5.085  16.757  0.00  0.00    +0.000 A 
ATOM     13  S   UNL     1       5.471   4.255  15.277  0.00  0.00    +0.000 S 
ENDBRANCH   1  12
BRANCH   3  14
ATOM     14  C   UNL     1       2.169   5.944  20.270  0.00  0.00    +0.000 C 
ATOM     15  O   UNL     1       1.328   5.189  20.762  0.00  0.00    +0.000 OA
ATOM     16  N   UNL     1       2.140   7.304  20.424  0.00  0.00    +0.000 N 
ATOM     17  H   UNL     1       2.887   7.864  20.041  0.00  0.00    +0.000 HD
BRANCH  16  18
ATOM     18  C   UNL     1       1.112   7.966  21.194  0.00  0.00    +0.000 C 
BRANCH  18  19
ATOM     19  C   UNL     1       0.624   9.236  20.550  0.00  0.00    +0.000 A 
ATOM     20  C   UNL     1       0.940   9.594  19.234  0.00  0.00    +0.000 A 
ATOM     21  C   UNL     1       0.439  10.782  18.695  0.00  0.00    +0.000 A 
ATOM     22  C   UNL     1      -0.385  11.565  19.485  0.00  0.00    +0.000 A 
ATOM     23  N   UNL     1      -0.735  11.242  20.747  0.00  0.00    +0.000 NA
ATOM     24  C   UNL     1      -0.229  10.089  21.244  0.00  0.00    +0.000 A 
ENDBRANCH  18  19
ENDBRANCH  16  18
ENDBRANCH   3  14
TORSDOF 4
ENDMDL
MODEL 2
REMARK VINA RESULT:      -7.2      2.433      3.596
REMARK  Name = 
REMARK  6 active torsions:
REMARK  status: ('A' for Active; 'I' for Inactive)
REMARK    1  A    between atoms: C_1  and  C_2
REMARK    2  A    between atoms: C_4  and  C_5
REMARK    3  A    between atoms: C_6  and  C_7
REMARK    4  A    between atoms: C_9  and  C_10
REMARK    5  A    between atoms: N_12  and  C_13
REMARK    6  A    between atoms: C_13  and  C_14
REMARK                            x       y       z     vdW  Elec       q    Type
REMARK                         _______ _______ _______ _____ _____    ______ ____
ROOT
ATOM      1  C   UNL     1       3.026   6.466  18.670  0.00  0.00    +0.000 A 
ATOM      2  C   UNL     1       2.531   7.752  18.366  0.00  0.00    +0.000 A 
ATOM      3  C   UNL     1       1.843   8.164  19.490  0.00  0.00    +0.000 A 
ATOM      4  N   UNL     1       2.052   7.170  20.408  0.00  0.00    +0.000 N 
ATOM      5  N   UNL     1       2.694   6.099  19.914  0.00  0.00    +0.000 NA
ATOM      6  H   UNL     1       1.741   7.157  21.375  0.00  0.00    +0.000 HD
ENDROOT
BRANCH   1  12
ATOM      7  C   UNL     1       6.468   4.227  15.288  0.00  0.00    +0.000 C 
ATOM      8  C   UNL     1       5.327   4.544  16.186  0.00  0.00    +0.000 A 
ATOM      9  N   UNL     1       4.336   3.722  16.447  0.00  0.00    +0.000 NA
ATOM     10  C   UNL     1       3.430   4.324  17.316  0.00  0.00    +0.000 A 
ATOM     11  C   UNL     1       2.178   3.591  17.640  0.00  0.00    +0.000 C 
ATOM     12  C   UNL     1       3.792   5.594  17.730  0.00  0.00    +0.000 A 
ATOM     13  S   UNL     1       5.238   6.074  16.948  0.00  0.00    +0.000 S 
ENDBRANCH   1  12
BRANCH   3  14
ATOM     14  C   UNL     1       1.033   9.314  19.768  0.00  0.00    +0.000 C 
ATOM     15  O   UNL     1       0.629   9.567  20.905  0.00  0.00    +0.000 OA
ATOM     16  N   UNL     1       0.724  10.079  18.674  0.00  0.00    +0.000 N 
ATOM     17  H   UNL     1       1.128   9.851  17.778  0.00  0.00    +0.000 HD
BRANCH  16  18
ATOM     18  C   UNL     1      -0.103  11.260  18.774  0.00  0.00    +0.000 C 
BRANCH  18  19
ATOM     19  C   UNL     1      -1.510  11.033  18.290  0.00  0.00    +0.000 A 
ATOM     20  C   UNL     1      -1.849  10.031  17.373  0.00  0.00    +0.000 A 
ATOM     21  C   UNL     1      -3.179   9.867  16.980  0.00  0.00    +0.000 A 
ATOM     22  C   UNL     1      -4.135  10.698  17.537  0.00  0.00    +0.000 A 
ATOM     23  N   UNL     1      -3.855  11.656  18.443  0.00  0.00    +0.000 NA
ATOM     24  C   UNL     1      -2.556  11.796  18.800  0.00  0.00    +0.000 A 
ENDBRANCH  18  19
ENDBRANCH  16  18
ENDBRANCH   3  14
TORSDOF 4
ENDMDL
MODEL 3
REMARK VINA RESULT:      -7.2      2.886      4.160
REMARK  Name = 
REMARK  6 active torsions:
REMARK  status: ('A' for Active; 'I' for Inactive)
REMARK    1  A    between atoms: C_1  and  C_2
REMARK    2  A    between atoms: C_4  and  C_5
REMARK    3  A    between atoms: C_6  and  C_7
REMARK    4  A    between atoms: C_9  and  C_10
REMARK    5  A    between atoms: N_12  and  C_13
REMARK    6  A    between atoms: C_13  and  C_14
REMARK                            x       y       z     vdW  Elec       q    Type
REMARK                         _______ _______ _______ _____ _____    ______ ____
ROOT
ATOM      1  C   UNL     1       2.901   6.976  18.427  0.00  0.00    +0.000 A 
ATOM      2  C   UNL     1       2.414   8.164  17.840  0.00  0.00    +0.000 A 
ATOM      3  C   UNL     1       1.701   8.807  18.833  0.00  0.00    +0.000 A 
ATOM      4  N   UNL     1       1.888   8.036  19.949  0.00  0.00    +0.000 N 
ATOM      5  N   UNL     1       2.541   6.886  19.713  0.00  0.00    +0.000 NA
ATOM      6  H   UNL     1       1.556   8.231  20.889  0.00  0.00    +0.000 HD
ENDROOT
BRANCH   1  12
ATOM      7  C   UNL     1       6.468   4.047  15.782  0.00  0.00    +0.000 C 
ATOM      8  C   UNL     1       5.278   4.562  16.509  0.00  0.00    +0.000 A 
ATOM      9  N   UNL     1       4.221   3.842  16.808  0.00  0.00    +0.000 NA
ATOM     10  C   UNL     1       3.284   4.622  17.481  0.00  0.00    +0.000 A 
ATOM     11  C   UNL     1       1.967   4.013  17.804  0.00  0.00    +0.000 C 
ATOM     12  C   UNL     1       3.688   5.925  17.715  0.00  0.00    +0.000 A 
ATOM     13  S   UNL     1       5.219   6.200  17.001  0.00  0.00    +0.000 S 
ENDBRANCH   1  12
BRANCH   3  14
ATOM     14  C   UNL     1       0.885   9.986  18.838  0.00  0.00    +0.000 C 
ATOM     15  O   UNL     1       1.356  11.104  18.619  0.00  0.00    +0.000 OA
ATOM     16  N   UNL     1      -0.435   9.773  19.132  0.00  0.00    +0.000 N 
ATOM     17  H   UNL     1      -0.771   8.828  19.250  0.00  0.00    +0.000 HD
BRANCH  16  18
ATOM     18  C   UNL     1      -1.390  10.854  19.202  0.00  0.00    +0.000 C 
BRANCH  18  19
ATOM     19  C   UNL     1      -2.319  10.893  18.018  0.00  0.00    +0.000 A 
ATOM     20  C   UNL     1      -2.084  10.174  16.840  0.00  0.00    +0.000 A 
ATOM     21  C   UNL     1      -2.998  10.244  15.786  0.00  0.00    +0.000 A 
ATOM     22  C   UNL     1      -4.135  11.016  15.954  0.00  0.00    +0.000 A 
ATOM     23  N   UNL     1      -4.412  11.701  17.082  0.00  0.00    +0.000 NA
ATOM     24  C   UNL     1      -3.504  11.619  18.083  0.00  0.00    +0.000 A 
ENDBRANCH  18  19
ENDBRANCH  16  18
ENDBRANCH   3  14
TORSDOF 4
ENDMDL
MODEL 4
REMARK VINA RESULT:      -7.1      0.713      1.103
REMARK  Name = 
REMARK  6 active torsions:
REMARK  status: ('A' for Active; 'I' for Inactive)
REMARK    1  A    between atoms: C_1  and  C_2
REMARK    2  A    between atoms: C_4  and  C_5
REMARK    3  A    between atoms: C_6  and  C_7
REMARK    4  A    between atoms: C_9  and  C_10
REMARK    5  A    between atoms: N_12  and  C_13
REMARK    6  A    between atoms: C_13  and  C_14
REMARK                            x       y       z     vdW  Elec       q    Type
REMARK                         _______ _______ _______ _____ _____    ______ ____
ROOT
ATOM      1  C   UNL     1       4.837   5.314  18.114  0.00  0.00    +0.000 A 
ATOM      2  C   UNL     1       3.726   6.159  18.318  0.00  0.00    +0.000 A 
ATOM      3  C   UNL     1       3.244   5.846  19.574  0.00  0.00    +0.000 A 
ATOM      4  N   UNL     1       4.135   4.933  20.070  0.00  0.00    +0.000 N 
ATOM      5  N   UNL     1       5.059   4.536  19.180  0.00  0.00    +0.000 NA
ATOM      6  H   UNL     1       4.133   4.518  20.997  0.00  0.00    +0.000 HD
ENDROOT
BRANCH   1  12
ATOM      7  C   UNL     1       6.981   4.334  13.345  0.00  0.00    +0.000 C 
ATOM      8  C   UNL     1       6.662   4.831  14.708  0.00  0.00    +0.000 A 
ATOM      9  N   UNL     1       7.358   5.744  15.348  0.00  0.00    +0.000 NA
ATOM     10  C   UNL     1       6.802   5.978  16.603  0.00  0.00    +0.000 A 
ATOM     11  C   UNL     1       7.517   6.899  17.525  0.00  0.00    +0.000 C 
ATOM     12  C   UNL     1       5.653   5.253  16.864  0.00  0.00    +0.000 A 
ATOM     13  S   UNL     1       5.319   4.196  15.558  0.00  0.00    +0.000 S 
ENDBRANCH   1  12
BRANCH   3  14
ATOM     14  C   UNL     1       2.085   6.270  20.306  0.00  0.00    +0.000 C 
ATOM     15  O   UNL     1       1.195   5.480  20.628  0.00  0.00    +0.000 OA
ATOM     16  N   UNL     1       2.037   7.610  20.584  0.00  0.00    +0.000 N 
ATOM     17  H   UNL     1       2.821   8.196  20.341  0.00  0.00    +0.000 HD
BRANCH  16  18
ATOM     18  C   UNL     1       0.928   8.206  21.293  0.00  0.00    +0.000 C 
BRANCH  18  19
ATOM     19  C   UNL     1       0.417   9.459  20.634  0.00  0.00    +0.000 A 
ATOM     20  C   UNL     1      -0.377  10.402  21.298  0.00  0.00    +0.000 A 
ATOM     21  C   UNL     1      -0.803  11.551  20.628  0.00  0.00    +0.000 A 
ATOM     22  C   UNL     1      -0.399  11.734  19.317  0.00  0.00    +0.000 A 
ATOM     23  N   UNL     1       0.388  10.865  18.650  0.00  0.00    +0.000 NA
ATOM     24  C   UNL     1       0.779   9.757  19.323  0.00  0.00    +0.000 A 
ENDBRANCH  18  19
ENDBRANCH  16  18
ENDBRANCH   3  14
TORSDOF 4
ENDMDL
MODEL 5
REMARK VINA RESULT:      -7.1      3.784      8.898
REMARK  Name = 
REMARK  6 active torsions:
REMARK  status: ('A' for Active; 'I' for Inactive)
REMARK    1  A    between atoms: C_1  and  C_2
REMARK    2  A    between atoms: C_4  and  C_5
REMARK    3  A    between atoms: C_6  and  C_7
REMARK    4  A    between atoms: C_9  and  C_10
REMARK    5  A    between atoms: N_12  and  C_13
REMARK    6  A    between atoms: C_13  and  C_14
REMARK                            x       y       z     vdW  Elec       q    Type
REMARK                         _______ _______ _______ _____ _____    ______ ____
ROOT
ATOM      1  C   UNL     1       5.005   4.247  18.669  0.00  0.00    +0.000 A 
ATOM      2  C   UNL     1       4.914   4.386  17.267  0.00  0.00    +0.000 A 
ATOM      3  C   UNL     1       6.207   4.589  16.827  0.00  0.00    +0.000 A 
ATOM      4  N   UNL     1       6.980   4.458  17.949  0.00  0.00    +0.000 N 
ATOM      5  N   UNL     1       6.274   4.330  19.084  0.00  0.00    +0.000 NA
ATOM      6  H   UNL     1       7.994   4.488  17.999  0.00  0.00    +0.000 HD
ENDROOT
BRANCH   1  12
ATOM      7  C   UNL     1       1.241   2.536  22.017  0.00  0.00    +0.000 C 
ATOM      8  C   UNL     1       2.113   3.324  21.107  0.00  0.00    +0.000 A 
ATOM      9  N   UNL     1       1.952   4.602  20.846  0.00  0.00    +0.000 NA
ATOM     10  C   UNL     1       2.927   5.036  19.953  0.00  0.00    +0.000 A 
ATOM     11  C   UNL     1       2.843   6.430  19.445  0.00  0.00    +0.000 C 
ATOM     12  C   UNL     1       3.844   4.064  19.592  0.00  0.00    +0.000 A 
ATOM     13  S   UNL     1       3.422   2.566  20.307  0.00  0.00    +0.000 S 
ENDBRANCH   1  12
BRANCH   3  14
ATOM     14  C   UNL     1       6.759   4.904  15.541  0.00  0.00    +0.000 C 
ATOM     15  O   UNL     1       7.801   5.552  15.422  0.00  0.00    +0.000 OA
ATOM     16  N   UNL     1       6.026   4.458  14.474  0.00  0.00    +0.000 N 
ATOM     17  H   UNL     1       5.210   3.886  14.636  0.00  0.00    +0.000 HD
BRANCH  16  18
ATOM     18  C   UNL     1       6.428   4.709  13.109  0.00  0.00    +0.000 C 
BRANCH  18  19
ATOM     19  C   UNL     1       6.400   3.471  12.253  0.00  0.00    +0.000 A 
ATOM     20  C   UNL     1       7.556   2.875  11.735  0.00  0.00    +0.000 A 
ATOM     21  C   UNL     1       7.457   1.718  10.960  0.00  0.00    +0.000 A 
ATOM     22  C   UNL     1       6.201   1.176  10.747  0.00  0.00    +0.000 A 
ATOM     23  N   UNL     1       5.066   1.703  11.251  0.00  0.00    +0.000 NA
ATOM     24  C   UNL     1       5.193   2.829  11.992  0.00  0.00    +0.000 A 
ENDBRANCH  18  19
ENDBRANCH  16  18
ENDBRANCH   3  14
TORSDOF 4
ENDMDL
MODEL 6
REMARK VINA RESULT:      -7.0      2.883      4.317
REMARK  Name = 
REMARK  6 active torsions:
REMARK  status: ('A' for Active; 'I' for Inactive)
REMARK    1  A    between atoms: C_1  and  C_2
REMARK    2  A    between atoms: C_4  and  C_5
REMARK    3  A    between atoms: C_6  and  C_7
REMARK    4  A    between atoms: C_9  and  C_10
REMARK    5  A    between atoms: N_12  and  C_13
REMARK    6  A    between atoms: C_13  and  C_14
REMARK                            x       y       z     vdW  Elec       q    Type
REMARK                         _______ _______ _______ _____ _____    ______ ____
ROOT
ATOM      1  C   UNL     1       2.800   7.044  18.437  0.00  0.00    +0.000 A 
ATOM      2  C   UNL     1       2.403   8.271  17.865  0.00  0.00    +0.000 A 
ATOM      3  C   UNL     1       1.684   8.926  18.846  0.00  0.00    +0.000 A 
ATOM      4  N   UNL     1       1.783   8.118  19.946  0.00  0.00    +0.000 N 
ATOM      5  N   UNL     1       2.383   6.940  19.705  0.00  0.00    +0.000 NA
ATOM      6  H   UNL     1       1.423   8.306  20.877  0.00  0.00    +0.000 HD
ENDROOT
BRANCH   1  12
ATOM      7  C   UNL     1       6.275   4.020  15.775  0.00  0.00    +0.000 C 
ATOM      8  C   UNL     1       5.107   4.565  16.515  0.00  0.00    +0.000 A 
ATOM      9  N   UNL     1       4.045   3.865  16.847  0.00  0.00    +0.000 NA
ATOM     10  C   UNL     1       3.133   4.669  17.524  0.00  0.00    +0.000 A 
ATOM     11  C   UNL     1       1.814   4.084  17.882  0.00  0.00    +0.000 C 
ATOM     12  C   UNL     1       3.558   5.970  17.728  0.00  0.00    +0.000 A 
ATOM     13  S   UNL     1       5.080   6.212  16.980  0.00  0.00    +0.000 S 
ENDBRANCH   1  12
BRANCH   3  14
ATOM     14  C   UNL     1       0.933  10.148  18.851  0.00  0.00    +0.000 C 
ATOM     15  O   UNL     1       1.448  11.229  18.560  0.00  0.00    +0.000 OA
ATOM     16  N   UNL     1      -0.376  10.018  19.231  0.00  0.00    +0.000 N 
ATOM     17  H   UNL     1      -0.754   9.099  19.405  0.00  0.00    +0.000 HD
BRANCH  16  18
ATOM     18  C   UNL     1      -1.267  11.153  19.312  0.00  0.00    +0.000 C 
BRANCH  18  19
ATOM     19  C   UNL     1      -2.333  11.138  18.250  0.00  0.00    +0.000 A 
ATOM     20  C   UNL     1      -3.633  11.612  18.467  0.00  0.00    +0.000 A 
ATOM     21  C   UNL     1      -4.568  11.581  17.430  0.00  0.00    +0.000 A 
ATOM     22  C   UNL     1      -4.165  11.098  16.197  0.00  0.00    +0.000 A 
ATOM     23  N   UNL     1      -2.917  10.658  15.939  0.00  0.00    +0.000 NA
ATOM     24  C   UNL     1      -2.034  10.694  16.966  0.00  0.00    +0.000 A 
ENDBRANCH  18  19
ENDBRANCH  16  18
ENDBRANCH   3  14
TORSDOF 4
ENDMDL
MODEL 7
REMARK VINA RESULT:      -7.0      3.719      8.902
REMARK  Name = 
REMARK  6 active torsions:
REMARK  status: ('A' for Active; 'I' for Inactive)
REMARK    1  A    between atoms: C_1  and  C_2
REMARK    2  A    between atoms: C_4  and  C_5
REMARK    3  A    between atoms: C_6  and  C_7
REMARK    4  A    between atoms: C_9  and  C_10
REMARK    5  A    between atoms: N_12  and  C_13
REMARK    6  A    between atoms: C_13  and  C_14
REMARK                            x       y       z     vdW  Elec       q    Type
REMARK                         _______ _______ _______ _____ _____    ______ ____
ROOT
ATOM      1  C   UNL     1       4.985   4.417  18.775  0.00  0.00    +0.000 A 
ATOM      2  C   UNL     1       4.937   4.498  17.367  0.00  0.00    +0.000 A 
ATOM      3  C   UNL     1       6.224   4.796  16.965  0.00  0.00    +0.000 A 
ATOM      4  N   UNL     1       6.962   4.773  18.118  0.00  0.00    +0.000 N 
ATOM      5  N   UNL     1       6.226   4.625  19.232  0.00  0.00    +0.000 NA
ATOM      6  H   UNL     1       7.967   4.891  18.203  0.00  0.00    +0.000 HD
ENDROOT
BRANCH   1  12
ATOM      7  C   UNL     1       1.225   2.494  22.009  0.00  0.00    +0.000 C 
ATOM      8  C   UNL     1       2.078   3.331  21.126  0.00  0.00    +0.000 A 
ATOM      9  N   UNL     1       1.853   4.598  20.859  0.00  0.00    +0.000 NA
ATOM     10  C   UNL     1       2.830   5.087  19.996  0.00  0.00    +0.000 A 
ATOM     11  C   UNL     1       2.682   6.475  19.485  0.00  0.00    +0.000 C 
ATOM     12  C   UNL     1       3.810   4.169  19.663  0.00  0.00    +0.000 A 
ATOM     13  S   UNL     1       3.451   2.649  20.366  0.00  0.00    +0.000 S 
ENDBRANCH   1  12
BRANCH   3  14
ATOM     14  C   UNL     1       6.797   5.110  15.688  0.00  0.00    +0.000 C 
ATOM     15  O   UNL     1       7.724   5.915  15.571  0.00  0.00    +0.000 OA
ATOM     16  N   UNL     1       6.216   4.475  14.623  0.00  0.00    +0.000 N 
ATOM     17  H   UNL     1       5.496   3.788  14.788  0.00  0.00    +0.000 HD
BRANCH  16  18
ATOM     18  C   UNL     1       6.655   4.697  13.265  0.00  0.00    +0.000 C 
BRANCH  18  19
ATOM     19  C   UNL     1       6.455   3.495  12.381  0.00  0.00    +0.000 A 
ATOM     20  C   UNL     1       5.191   3.017  12.018  0.00  0.00    +0.000 A 
ATOM     21  C   UNL     1       5.079   1.905  11.181  0.00  0.00    +0.000 A 
ATOM     22  C   UNL     1       6.242   1.318  10.712  0.00  0.00    +0.000 A 
ATOM     23  N   UNL     1       7.478   1.763  11.015  0.00  0.00    +0.000 NA
ATOM     24  C   UNL     1       7.554   2.839  11.834  0.00  0.00    +0.000 A 
ENDBRANCH  18  19
ENDBRANCH  16  18
ENDBRANCH   3  14
TORSDOF 4
ENDMDL
MODEL 8
REMARK VINA RESULT:      -7.0      2.730      8.535
REMARK  Name = 
REMARK  6 active torsions:
REMARK  status: ('A' for Active; 'I' for Inactive)
REMARK    1  A    between atoms: C_1  and  C_2
REMARK    2  A    between atoms: C_4  and  C_5
REMARK    3  A    between atoms: C_6  and  C_7
REMARK    4  A    between atoms: C_9  and  C_10
REMARK    5  A    between atoms: N_12  and  C_13
REMARK    6  A    between atoms: C_13  and  C_14
REMARK                            x       y       z     vdW  Elec       q    Type
REMARK                         _______ _______ _______ _____ _____    ______ ____
ROOT
ATOM      1  C   UNL     1       1.361   9.152  19.091  0.00  0.00    +0.000 A 
ATOM      2  C   UNL     1       1.775   7.899  19.591  0.00  0.00    +0.000 A 
ATOM      3  C   UNL     1       2.550   7.338  18.596  0.00  0.00    +0.000 A 
ATOM      4  N   UNL     1       2.634   8.307  17.633  0.00  0.00    +0.000 N 
ATOM      5  N   UNL     1       1.862   9.379  17.871  0.00  0.00    +0.000 NA
ATOM      6  H   UNL     1       3.176   8.269  16.774  0.00  0.00    +0.000 HD
ENDROOT
BRANCH   1  12
ATOM      7  C   UNL     1      -1.119  12.459  22.440  0.00  0.00    +0.000 C 
ATOM      8  C   UNL     1      -0.710  11.606  21.295  0.00  0.00    +0.000 A 
ATOM      9  N   UNL     1      -1.380  11.501  20.169  0.00  0.00    +0.000 NA
ATOM     10  C   UNL     1      -0.735  10.618  19.307  0.00  0.00    +0.000 A 
ATOM     11  C   UNL     1      -1.402  10.279  18.023  0.00  0.00    +0.000 C 
ATOM     12  C   UNL     1       0.452  10.104  19.799  0.00  0.00    +0.000 A 
ATOM     13  S   UNL     1       0.714  10.661  21.397  0.00  0.00    +0.000 S 
ENDBRANCH   1  12
BRANCH   3  14
ATOM     14  C   UNL     1       3.162   6.049  18.449  0.00  0.00    +0.000 C 
ATOM     15  O   UNL     1       2.568   5.009  18.743  0.00  0.00    +0.000 OA
ATOM     16  N   UNL     1       4.453   6.072  17.993  0.00  0.00    +0.000 N 
ATOM     17  H   UNL     1       4.867   6.951  17.719  0.00  0.00    +0.000 HD
BRANCH  16  18
ATOM     18  C   UNL     1       5.224   4.864  17.811  0.00  0.00    +0.000 C 
BRANCH  18  19
ATOM     19  C   UNL     1       5.856   4.772  16.448  0.00  0.00    +0.000 A 
ATOM     20  C   UNL     1       5.294   4.043  15.394  0.00  0.00    +0.000 A 
ATOM     21  C   UNL     1       5.928   4.014  14.150  0.00  0.00    +0.000 A 
ATOM     22  C   UNL     1       7.097   4.739  13.992  0.00  0.00    +0.000 A 
ATOM     23  N   UNL     1       7.656   5.476  14.973  0.00  0.00    +0.000 NA
ATOM     24  C   UNL     1       7.022   5.479  16.170  0.00  0.00    +0.000 A 
ENDBRANCH  18  19
ENDBRANCH  16  18
ENDBRANCH   3  14
TORSDOF 4
ENDMDL
MODEL 9
REMARK VINA RESULT:      -6.9      1.864      2.228
REMARK  Name = 
REMARK  6 active torsions:
REMARK  status: ('A' for Active; 'I' for Inactive)
REMARK    1  A    between atoms: C_1  and  C_2
REMARK    2  A    between atoms: C_4  and  C_5
REMARK    3  A    between atoms: C_6  and  C_7
REMARK    4  A    between atoms: C_9  and  C_10
REMARK    5  A    between atoms: N_12  and  C_13
REMARK    6  A    between atoms: C_13  and  C_14
REMARK                            x       y       z     vdW  Elec       q    Type
REMARK                         _______ _______ _______ _____ _____    ______ ____
ROOT
ATOM      1  C   UNL     1       3.928   6.135  18.264  0.00  0.00    +0.000 A 
ATOM      2  C   UNL     1       3.197   7.339  18.335  0.00  0.00    +0.000 A 
ATOM      3  C   UNL     1       2.507   7.288  19.530  0.00  0.00    +0.000 A 
ATOM      4  N   UNL     1       2.937   6.135  20.129  0.00  0.00    +0.000 N 
ATOM      5  N   UNL     1       3.733   5.382  19.353  0.00  0.00    +0.000 NA
ATOM      6  H   UNL     1       2.685   5.796  21.053  0.00  0.00    +0.000 HD
ENDROOT
BRANCH   1  12
ATOM      7  C   UNL     1       6.202   3.853  14.030  0.00  0.00    +0.000 C 
ATOM      8  C   UNL     1       5.856   4.704  15.198  0.00  0.00    +0.000 A 
ATOM      9  N   UNL     1       6.570   5.728  15.609  0.00  0.00    +0.000 NA
ATOM     10  C   UNL     1       5.979   6.305  16.729  0.00  0.00    +0.000 A 
ATOM     11  C   UNL     1       6.701   7.410  17.412  0.00  0.00    +0.000 C 
ATOM     12  C   UNL     1       4.787   5.716  17.115  0.00  0.00    +0.000 A 
ATOM     13  S   UNL     1       4.453   4.365  16.118  0.00  0.00    +0.000 S 
ENDBRANCH   1  12
BRANCH   3  14
ATOM     14  C   UNL     1       1.520   8.144  20.123  0.00  0.00    +0.000 C 
ATOM     15  O   UNL     1       0.960   7.856  21.182  0.00  0.00    +0.000 OA
ATOM     16  N   UNL     1       1.235   9.276  19.406  0.00  0.00    +0.000 N 
ATOM     17  H   UNL     1       1.765   9.483  18.573  0.00  0.00    +0.000 HD
BRANCH  16  18
ATOM     18  C   UNL     1       0.249  10.235  19.848  0.00  0.00    +0.000 C 
BRANCH  18  19
ATOM     19  C   UNL     1      -0.845  10.458  18.838  0.00  0.00    +0.000 A 
ATOM     20  C   UNL     1      -0.948   9.725  17.650  0.00  0.00    +0.000 A 
ATOM     21  C   UNL     1      -1.998   9.976  16.765  0.00  0.00    +0.000 A 
ATOM     22  C   UNL     1      -2.930  10.939  17.109  0.00  0.00    +0.000 A 
ATOM     23  N   UNL     1      -2.883  11.648  18.255  0.00  0.00    +0.000 NA
ATOM     24  C   UNL     1      -1.849  11.388  19.090  0.00  0.00    +0.000 A 
ENDBRANCH  18  19
ENDBRANCH  16  18
ENDBRANCH   3  14
TORSDOF 4
ENDMDL
