MODEL 1
REMARK VINA RESULT:      -7.2      0.000      0.000
REMARK  Name = 
REMARK  7 active torsions:
REMARK  status: ('A' for Active; 'I' for Inactive)
REMARK    1  A    between atoms: C_1  and  C_2
REMARK    2  A    between atoms: C_2  and  C_3
REMARK    3  A    between atoms: C_3  and  C_4
REMARK    4  A    between atoms: C_3  and  C_6
REMARK    5  A    between atoms: C_4  and  C_5
REMARK    6  A    between atoms: C_11  and  C_13
REMARK    7  A    between atoms: C_14  and  C_15
REMARK                            x       y       z     vdW  Elec       q    Type
REMARK                         _______ _______ _______ _____ _____    ______ ____
ROOT
ATOM      1  C   UNL     1       6.395   4.777  17.500  0.00  0.00    +0.000 A 
ATOM      2  N   UNL     1       7.151   4.324  18.480  0.00  0.00    +0.000 NA
ATOM      3  N   UNL     1       7.921   5.321  19.047  0.00  0.00    +0.000 NA
ATOM      4  C   UNL     1       7.743   6.482  18.458  0.00  0.00    +0.000 A 
ATOM      5  N   UNL     1       8.403   7.621  18.860  0.00  0.00    +0.000 N 
ATOM      6  C   UNL     1       8.391   8.827  18.210  0.00  0.00    +0.000 C 
ATOM      7  O   UNL     1       7.823   9.093  17.156  0.00  0.00    +0.000 OA
ATOM      8  S   UNL     1       6.593   6.456  17.199  0.00  0.00    +0.000 S 
ATOM      9  H   UNL     1       8.983   7.481  19.675  0.00  0.00    +0.000 HD
ENDROOT
BRANCH   6  10
ATOM     10  C   UNL     1       9.197   9.865  18.911  0.00  0.00    +0.000 C 
ATOM     11  C   UNL     1       9.358  11.053  18.310  0.00  0.00    +0.000 C 
BRANCH  11  12
ATOM     12  C   UNL     1      10.100  12.103  18.909  0.00  0.00    +0.000 A 
ATOM     13  C   UNL     1      11.280  12.008  19.641  0.00  0.00    +0.000 A 
ATOM     14  C   UNL     1      11.658  13.311  20.037  0.00  0.00    +0.000 A 
ATOM     15  C   UNL     1      10.695  14.146  19.532  0.00  0.00    +0.000 A 
ATOM     16  O   UNL     1       9.756  13.437  18.856  0.00  0.00    +0.000 OA
ENDBRANCH  11  12
ENDBRANCH   6  10
BRANCH   1  17
ATOM     17  C   UNL     1       5.422   3.950  16.692  0.00  0.00    +0.000 C 
BRANCH  17  19
ATOM     18  C   UNL     1       3.188   4.845  17.604  0.00  0.00    +0.000 C 
ATOM     19  C   UNL     1       4.149   3.667  17.519  0.00  0.00    +0.000 C 
ENDBRANCH  17  19
BRANCH  17  20
ATOM     20  C   UNL     1       5.160   4.589  15.312  0.00  0.00    +0.000 C 
ATOM     21  C   UNL     1       6.066   4.101  14.187  0.00  0.00    +0.000 C 
ENDBRANCH  17  20
ENDBRANCH   1  17
TORSDOF 5
ENDMDL
MODEL 2
REMARK VINA RESULT:      -6.9      0.785      1.817
REMARK  Name = 
REMARK  7 active torsions:
REMARK  status: ('A' for Active; 'I' for Inactive)
REMARK    1  A    between atoms: C_1  and  C_2
REMARK    2  A    between atoms: C_2  and  C_3
REMARK    3  A    between atoms: C_3  and  C_4
REMARK    4  A    between atoms: C_3  and  C_6
REMARK    5  A    between atoms: C_4  and  C_5
REMARK    6  A    between atoms: C_11  and  C_13
REMARK    7  A    between atoms: C_14  and  C_15
REMARK                            x       y       z     vdW  Elec       q    Type
REMARK                         _______ _______ _______ _____ _____    ______ ____
ROOT
ATOM      1  C   UNL     1       6.204   4.947  17.387  0.00  0.00    +0.000 A 
ATOM      2  N   UNL     1       6.983   4.409  18.304  0.00  0.00    +0.000 NA
ATOM      3  N   UNL     1       7.814   5.342  18.894  0.00  0.00    +0.000 NA
ATOM      4  C   UNL     1       7.655   6.543  18.383  0.00  0.00    +0.000 A 
ATOM      5  N   UNL     1       8.374   7.630  18.822  0.00  0.00    +0.000 N 
ATOM      6  C   UNL     1       8.380   8.873  18.246  0.00  0.00    +0.000 C 
ATOM      7  O   UNL     1       7.777   9.223  17.236  0.00  0.00    +0.000 OA
ATOM      8  S   UNL     1       6.452   6.633  17.178  0.00  0.00    +0.000 S 
ATOM      9  H   UNL     1       8.982   7.421  19.601  0.00  0.00    +0.000 HD
ENDROOT
BRANCH   6  10
ATOM     10  C   UNL     1       9.254   9.838  18.971  0.00  0.00    +0.000 C 
ATOM     11  C   UNL     1       9.135  11.141  18.678  0.00  0.00    +0.000 C 
BRANCH  11  12
ATOM     12  C   UNL     1       9.918  12.131  19.326  0.00  0.00    +0.000 A 
ATOM     13  C   UNL     1       9.618  12.833  20.489  0.00  0.00    +0.000 A 
ATOM     14  C   UNL     1      10.690  13.712  20.762  0.00  0.00    +0.000 A 
ATOM     15  C   UNL     1      11.599  13.511  19.754  0.00  0.00    +0.000 A 
ATOM     16  O   UNL     1      11.150  12.569  18.888  0.00  0.00    +0.000 OA
ENDBRANCH  11  12
ENDBRANCH   6  10
BRANCH   1  17
ATOM     17  C   UNL     1       5.167   4.206  16.576  0.00  0.00    +0.000 C 
BRANCH  17  19
ATOM     18  C   UNL     1       5.878   4.189  14.103  0.00  0.00    +0.000 C 
ATOM     19  C   UNL     1       5.844   3.432  15.424  0.00  0.00    +0.000 C 
ENDBRANCH  17  19
BRANCH  17  20
ATOM     20  C   UNL     1       4.264   3.344  17.483  0.00  0.00    +0.000 C 
ATOM     21  C   UNL     1       2.768   3.602  17.345  0.00  0.00    +0.000 C 
ENDBRANCH  17  20
ENDBRANCH   1  17
TORSDOF 5
ENDMDL
MODEL 3
REMARK VINA RESULT:      -6.7      1.675      2.346
REMARK  Name = 
REMARK  7 active torsions:
REMARK  status: ('A' for Active; 'I' for Inactive)
REMARK    1  A    between atoms: C_1  and  C_2
REMARK    2  A    between atoms: C_2  and  C_3
REMARK    3  A    between atoms: C_3  and  C_4
REMARK    4  A    between atoms: C_3  and  C_6
REMARK    5  A    between atoms: C_4  and  C_5
REMARK    6  A    between atoms: C_11  and  C_13
REMARK    7  A    between atoms: C_14  and  C_15
REMARK                            x       y       z     vdW  Elec       q    Type
REMARK                         _______ _______ _______ _____ _____    ______ ____
ROOT
ATOM      1  C   UNL     1       4.657   4.134  18.002  0.00  0.00    +0.000 A 
ATOM      2  N   UNL     1       5.291   3.734  19.087  0.00  0.00    +0.000 NA
ATOM      3  N   UNL     1       6.306   4.600  19.444  0.00  0.00    +0.000 NA
ATOM      4  C   UNL     1       6.423   5.603  18.604  0.00  0.00    +0.000 A 
ATOM      5  N   UNL     1       7.366   6.593  18.765  0.00  0.00    +0.000 N 
ATOM      6  C   UNL     1       7.653   7.582  17.862  0.00  0.00    +0.000 C 
ATOM      7  O   UNL     1       7.150   7.740  16.755  0.00  0.00    +0.000 OA
ATOM      8  S   UNL     1       5.277   5.592  17.341  0.00  0.00    +0.000 S 
ATOM      9  H   UNL     1       7.908   6.495  19.612  0.00  0.00    +0.000 HD
ENDROOT
BRANCH   6  10
ATOM     10  C   UNL     1       8.718   8.506  18.342  0.00  0.00    +0.000 C 
ATOM     11  C   UNL     1       8.541   9.823  18.160  0.00  0.00    +0.000 C 
BRANCH  11  12
ATOM     12  C   UNL     1       9.497  10.777  18.595  0.00  0.00    +0.000 A 
ATOM     13  C   UNL     1       9.975  10.981  19.886  0.00  0.00    +0.000 A 
ATOM     14  C   UNL     1      10.916  12.034  19.845  0.00  0.00    +0.000 A 
ATOM     15  C   UNL     1      10.973  12.430  18.533  0.00  0.00    +0.000 A 
ATOM     16  O   UNL     1      10.128  11.686  17.775  0.00  0.00    +0.000 OA
ENDBRANCH  11  12
ENDBRANCH   6  10
BRANCH   1  17
ATOM     17  C   UNL     1       3.483   3.427  17.365  0.00  0.00    +0.000 C 
BRANCH  17  19
ATOM     18  C   UNL     1       2.545   1.579  18.891  0.00  0.00    +0.000 C 
ATOM     19  C   UNL     1       3.490   1.931  17.749  0.00  0.00    +0.000 C 
ENDBRANCH  17  19
BRANCH  17  20
ATOM     20  C   UNL     1       2.160   4.160  17.668  0.00  0.00    +0.000 C 
ATOM     21  C   UNL     1       2.301   5.632  18.040  0.00  0.00    +0.000 C 
ENDBRANCH  17  20
ENDBRANCH   1  17
TORSDOF 5
ENDMDL
MODEL 4
REMARK VINA RESULT:      -6.6      2.228      3.030
REMARK  Name = 
REMARK  7 active torsions:
REMARK  status: ('A' for Active; 'I' for Inactive)
REMARK    1  A    between atoms: C_1  and  C_2
REMARK    2  A    between atoms: C_2  and  C_3
REMARK    3  A    between atoms: C_3  and  C_4
REMARK    4  A    between atoms: C_3  and  C_6
REMARK    5  A    between atoms: C_4  and  C_5
REMARK    6  A    between atoms: C_11  and  C_13
REMARK    7  A    between atoms: C_14  and  C_15
REMARK                            x       y       z     vdW  Elec       q    Type
REMARK                         _______ _______ _______ _____ _____    ______ ____
ROOT
ATOM      1  C   UNL     1       4.310   4.182  18.085  0.00  0.00    +0.000 A 
ATOM      2  N   UNL     1       3.554   5.030  17.415  0.00  0.00    +0.000 NA
ATOM      3  N   UNL     1       4.225   6.199  17.115  0.00  0.00    +0.000 NA
ATOM      4  C   UNL     1       5.449   6.207  17.592  0.00  0.00    +0.000 A 
ATOM      5  N   UNL     1       6.304   7.269  17.408  0.00  0.00    +0.000 N 
ATOM      6  C   UNL     1       7.533   7.421  17.996  0.00  0.00    +0.000 C 
ATOM      7  O   UNL     1       8.066   6.664  18.800  0.00  0.00    +0.000 OA
ATOM      8  S   UNL     1       5.890   4.773  18.403  0.00  0.00    +0.000 S 
ATOM      9  H   UNL     1       5.915   8.001  16.831  0.00  0.00    +0.000 HD
ENDROOT
BRANCH   6  10
ATOM     10  C   UNL     1       8.217   8.677  17.580  0.00  0.00    +0.000 C 
ATOM     11  C   UNL     1       8.593   9.538  18.536  0.00  0.00    +0.000 C 
BRANCH  11  12
ATOM     12  C   UNL     1       9.260  10.753  18.234  0.00  0.00    +0.000 A 
ATOM     13  C   UNL     1      10.609  11.051  18.395  0.00  0.00    +0.000 A 
ATOM     14  C   UNL     1      10.822  12.378  17.958  0.00  0.00    +0.000 A 
ATOM     15  C   UNL     1       9.595  12.835  17.551  0.00  0.00    +0.000 A 
ATOM     16  O   UNL     1       8.651  11.874  17.711  0.00  0.00    +0.000 OA
ENDBRANCH  11  12
ENDBRANCH   6  10
BRANCH   1  17
ATOM     17  C   UNL     1       3.885   2.806  18.543  0.00  0.00    +0.000 C 
BRANCH  17  19
ATOM     18  C   UNL     1       2.953   4.004  20.622  0.00  0.00    +0.000 C 
ATOM     19  C   UNL     1       3.694   2.790  20.076  0.00  0.00    +0.000 C 
ENDBRANCH  17  19
BRANCH  17  20
ATOM     20  C   UNL     1       2.668   2.303  17.740  0.00  0.00    +0.000 C 
ATOM     21  C   UNL     1       1.358   2.238  18.517  0.00  0.00    +0.000 C 
ENDBRANCH  17  20
ENDBRANCH   1  17
TORSDOF 5
ENDMDL
MODEL 5
REMARK VINA RESULT:      -6.5      1.279      1.911
REMARK  Name = 
REMARK  7 active torsions:
REMARK  status: ('A' for Active; 'I' for Inactive)
REMARK    1  A    between atoms: C_1  and  C_2
REMARK    2  A    between atoms: C_2  and  C_3
REMARK    3  A    between atoms: C_3  and  C_4
REMARK    4  A    between atoms: C_3  and  C_6
REMARK    5  A    between atoms: C_4  and  C_5
REMARK    6  A    between atoms: C_11  and  C_13
REMARK    7  A    between atoms: C_14  and  C_15
REMARK                            x       y       z     vdW  Elec       q    Type
REMARK                         _______ _______ _______ _____ _____    ______ ____
ROOT
ATOM      1  C   UNL     1       5.499   4.855  18.038  0.00  0.00    +0.000 A 
ATOM      2  N   UNL     1       6.404   4.267  18.796  0.00  0.00    +0.000 NA
ATOM      3  N   UNL     1       7.431   5.125  19.139  0.00  0.00    +0.000 NA
ATOM      4  C   UNL     1       7.283   6.317  18.605  0.00  0.00    +0.000 A 
ATOM      5  N   UNL     1       8.185   7.335  18.816  0.00  0.00    +0.000 N 
ATOM      6  C   UNL     1       8.186   8.549  18.182  0.00  0.00    +0.000 C 
ATOM      7  O   UNL     1       7.414   8.926  17.306  0.00  0.00    +0.000 OA
ATOM      8  S   UNL     1       5.859   6.496  17.684  0.00  0.00    +0.000 S 
ATOM      9  H   UNL     1       8.925   7.087  19.457  0.00  0.00    +0.000 HD
ENDROOT
BRANCH   6  10
ATOM     10  C   UNL     1       9.289   9.437  18.644  0.00  0.00    +0.000 C 
ATOM     11  C   UNL     1       9.309  10.703  18.201  0.00  0.00    +0.000 C 
BRANCH  11  12
ATOM     12  C   UNL     1      10.314  11.622  18.598  0.00  0.00    +0.000 A 
ATOM     13  C   UNL     1      11.450  12.004  17.892  0.00  0.00    +0.000 A 
ATOM     14  C   UNL     1      12.159  12.943  18.674  0.00  0.00    +0.000 A 
ATOM     15  C   UNL     1      11.428  13.094  19.825  0.00  0.00    +0.000 A 
ATOM     16  O   UNL     1      10.322  12.309  19.792  0.00  0.00    +0.000 OA
ENDBRANCH  11  12
ENDBRANCH   6  10
BRANCH   1  17
ATOM     17  C   UNL     1       4.241   4.203  17.514  0.00  0.00    +0.000 C 
BRANCH  17  19
ATOM     18  C   UNL     1       2.781   2.093  17.725  0.00  0.00    +0.000 C 
ATOM     19  C   UNL     1       4.050   2.814  18.162  0.00  0.00    +0.000 C 
ENDBRANCH  17  19
BRANCH  17  20
ATOM     20  C   UNL     1       3.027   5.145  17.650  0.00  0.00    +0.000 C 
ATOM     21  C   UNL     1       2.595   5.448  19.080  0.00  0.00    +0.000 C 
ENDBRANCH  17  20
ENDBRANCH   1  17
TORSDOF 5
ENDMDL
MODEL 6
REMARK VINA RESULT:      -6.4      2.100      3.133
REMARK  Name = 
REMARK  7 active torsions:
REMARK  status: ('A' for Active; 'I' for Inactive)
REMARK    1  A    between atoms: C_1  and  C_2
REMARK    2  A    between atoms: C_2  and  C_3
REMARK    3  A    between atoms: C_3  and  C_4
REMARK    4  A    between atoms: C_3  and  C_6
REMARK    5  A    between atoms: C_4  and  C_5
REMARK    6  A    between atoms: C_11  and  C_13
REMARK    7  A    between atoms: C_14  and  C_15
REMARK                            x       y       z     vdW  Elec       q    Type
REMARK                         _______ _______ _______ _____ _____    ______ ____
ROOT
ATOM      1  C   UNL     1       4.168   4.041  18.565  0.00  0.00    +0.000 A 
ATOM      2  N   UNL     1       4.981   3.740  19.558  0.00  0.00    +0.000 NA
ATOM      3  N   UNL     1       6.057   4.605  19.629  0.00  0.00    +0.000 NA
ATOM      4  C   UNL     1       6.034   5.506  18.672  0.00  0.00    +0.000 A 
ATOM      5  N   UNL     1       7.005   6.474  18.551  0.00  0.00    +0.000 N 
ATOM      6  C   UNL     1       7.138   7.348  17.504  0.00  0.00    +0.000 C 
ATOM      7  O   UNL     1       6.446   7.403  16.493  0.00  0.00    +0.000 OA
ATOM      8  S   UNL     1       4.679   5.396  17.643  0.00  0.00    +0.000 S 
ATOM      9  H   UNL     1       7.688   6.451  19.293  0.00  0.00    +0.000 HD
ENDROOT
BRANCH   6  10
ATOM     10  C   UNL     1       8.285   8.283  17.680  0.00  0.00    +0.000 C 
ATOM     11  C   UNL     1       8.038   9.497  18.194  0.00  0.00    +0.000 C 
BRANCH  11  12
ATOM     12  C   UNL     1       9.070  10.447  18.407  0.00  0.00    +0.000 A 
ATOM     13  C   UNL     1       9.288  11.640  17.725  0.00  0.00    +0.000 A 
ATOM     14  C   UNL     1      10.429  12.261  18.281  0.00  0.00    +0.000 A 
ATOM     15  C   UNL     1      10.860  11.422  19.276  0.00  0.00    +0.000 A 
ATOM     16  O   UNL     1      10.057  10.333  19.362  0.00  0.00    +0.000 OA
ENDBRANCH  11  12
ENDBRANCH   6  10
BRANCH   1  17
ATOM     17  C   UNL     1       2.889   3.309  18.230  0.00  0.00    +0.000 C 
BRANCH  17  19
ATOM     18  C   UNL     1       3.975   0.976  18.269  0.00  0.00    +0.000 C 
ATOM     19  C   UNL     1       2.907   1.894  18.849  0.00  0.00    +0.000 C 
ENDBRANCH  17  19
BRANCH  17  20
ATOM     20  C   UNL     1       1.651   4.153  18.599  0.00  0.00    +0.000 C 
ATOM     21  C   UNL     1       1.112   3.937  20.008  0.00  0.00    +0.000 C 
ENDBRANCH  17  20
ENDBRANCH   1  17
TORSDOF 5
ENDMDL
MODEL 7
REMARK VINA RESULT:      -6.4      5.269      7.375
REMARK  Name = 
REMARK  7 active torsions:
REMARK  status: ('A' for Active; 'I' for Inactive)
REMARK    1  A    between atoms: C_1  and  C_2
REMARK    2  A    between atoms: C_2  and  C_3
REMARK    3  A    between atoms: C_3  and  C_4
REMARK    4  A    between atoms: C_3  and  C_6
REMARK    5  A    between atoms: C_4  and  C_5
REMARK    6  A    between atoms: C_11  and  C_13
REMARK    7  A    between atoms: C_14  and  C_15
REMARK                            x       y       z     vdW  Elec       q    Type
REMARK                         _______ _______ _______ _____ _____    ______ ____
ROOT
ATOM      1  C   UNL     1       4.900   4.507  17.853  0.00  0.00    +0.000 A 
ATOM      2  N   UNL     1       4.851   3.893  19.019  0.00  0.00    +0.000 NA
ATOM      3  N   UNL     1       4.011   4.534  19.909  0.00  0.00    +0.000 NA
ATOM      4  C   UNL     1       3.481   5.622  19.397  0.00  0.00    +0.000 A 
ATOM      5  N   UNL     1       2.607   6.418  20.103  0.00  0.00    +0.000 N 
ATOM      6  C   UNL     1       2.132   7.638  19.702  0.00  0.00    +0.000 C 
ATOM      7  O   UNL     1       2.419   8.242  18.673  0.00  0.00    +0.000 OA
ATOM      8  S   UNL     1       3.929   5.921  17.779  0.00  0.00    +0.000 S 
ATOM      9  H   UNL     1       2.380   6.051  21.016  0.00  0.00    +0.000 HD
ENDROOT
BRANCH   6  10
ATOM     10  C   UNL     1       1.191   8.240  20.688  0.00  0.00    +0.000 C 
ATOM     11  C   UNL     1       0.877   9.537  20.552  0.00  0.00    +0.000 C 
BRANCH  11  12
ATOM     12  C   UNL     1      -0.018  10.190  21.437  0.00  0.00    +0.000 A 
ATOM     13  C   UNL     1      -0.371   9.813  22.729  0.00  0.00    +0.000 A 
ATOM     14  C   UNL     1      -1.289  10.763  23.230  0.00  0.00    +0.000 A 
ATOM     15  C   UNL     1      -1.460  11.679  22.223  0.00  0.00    +0.000 A 
ATOM     16  O   UNL     1      -0.707  11.347  21.145  0.00  0.00    +0.000 OA
ENDBRANCH  11  12
ENDBRANCH   6  10
BRANCH   1  17
ATOM     17  C   UNL     1       5.703   4.049  16.658  0.00  0.00    +0.000 C 
BRANCH  17  19
ATOM     18  C   UNL     1       5.824   4.218  14.092  0.00  0.00    +0.000 C 
ATOM     19  C   UNL     1       5.005   4.483  15.350  0.00  0.00    +0.000 C 
ENDBRANCH  17  19
BRANCH  17  20
ATOM     20  C   UNL     1       7.176   4.492  16.775  0.00  0.00    +0.000 C 
ATOM     21  C   UNL     1       7.400   5.834  17.462  0.00  0.00    +0.000 C 
ENDBRANCH  17  20
ENDBRANCH   1  17
TORSDOF 5
ENDMDL
MODEL 8
REMARK VINA RESULT:      -6.4      6.051      8.665
REMARK  Name = 
REMARK  7 active torsions:
REMARK  status: ('A' for Active; 'I' for Inactive)
REMARK    1  A    between atoms: C_1  and  C_2
REMARK    2  A    between atoms: C_2  and  C_3
REMARK    3  A    between atoms: C_3  and  C_4
REMARK    4  A    between atoms: C_3  and  C_6
REMARK    5  A    between atoms: C_4  and  C_5
REMARK    6  A    between atoms: C_11  and  C_13
REMARK    7  A    between atoms: C_14  and  C_15
REMARK                            x       y       z     vdW  Elec       q    Type
REMARK                         _______ _______ _______ _____ _____    ______ ____
ROOT
ATOM      1  C   UNL     1       0.995   9.668  19.689  0.00  0.00    +0.000 A 
ATOM      2  N   UNL     1       1.192  10.228  18.512  0.00  0.00    +0.000 NA
ATOM      3  N   UNL     1       1.990   9.451  17.694  0.00  0.00    +0.000 NA
ATOM      4  C   UNL     1       2.390   8.350  18.290  0.00  0.00    +0.000 A 
ATOM      5  N   UNL     1       3.190   7.423  17.662  0.00  0.00    +0.000 N 
ATOM      6  C   UNL     1       3.772   6.334  18.255  0.00  0.00    +0.000 C 
ATOM      7  O   UNL     1       3.709   6.014  19.437  0.00  0.00    +0.000 OA
ATOM      8  S   UNL     1       1.789   8.157  19.874  0.00  0.00    +0.000 S 
ATOM      9  H   UNL     1       3.384   7.649  16.697  0.00  0.00    +0.000 HD
ENDROOT
BRANCH   6  10
ATOM     10  C   UNL     1       4.569   5.517  17.298  0.00  0.00    +0.000 C 
ATOM     11  C   UNL     1       4.944   6.085  16.142  0.00  0.00    +0.000 C 
BRANCH  11  12
ATOM     12  C   UNL     1       5.713   5.386  15.176  0.00  0.00    +0.000 A 
ATOM     13  C   UNL     1       5.324   4.307  14.389  0.00  0.00    +0.000 A 
ATOM     14  C   UNL     1       6.417   3.942  13.571  0.00  0.00    +0.000 A 
ATOM     15  C   UNL     1       7.427   4.812  13.893  0.00  0.00    +0.000 A 
ATOM     16  O   UNL     1       7.020   5.680  14.852  0.00  0.00    +0.000 OA
ENDBRANCH  11  12
ENDBRANCH   6  10
BRANCH   1  17
ATOM     17  C   UNL     1       0.151  10.245  20.801  0.00  0.00    +0.000 C 
BRANCH  17  19
ATOM     18  C   UNL     1      -1.535  12.157  21.163  0.00  0.00    +0.000 C 
ATOM     19  C   UNL     1      -0.998  11.093  20.213  0.00  0.00    +0.000 C 
ENDBRANCH  17  19
BRANCH  17  20
ATOM     20  C   UNL     1      -0.303   9.146  21.784  0.00  0.00    +0.000 C 
ATOM     21  C   UNL     1      -0.121   9.478  23.261  0.00  0.00    +0.000 C 
ENDBRANCH  17  20
ENDBRANCH   1  17
TORSDOF 5
ENDMDL
MODEL 9
REMARK VINA RESULT:      -6.3      1.909      2.457
REMARK  Name = 
REMARK  7 active torsions:
REMARK  status: ('A' for Active; 'I' for Inactive)
REMARK    1  A    between atoms: C_1  and  C_2
REMARK    2  A    between atoms: C_2  and  C_3
REMARK    3  A    between atoms: C_3  and  C_4
REMARK    4  A    between atoms: C_3  and  C_6
REMARK    5  A    between atoms: C_4  and  C_5
REMARK    6  A    between atoms: C_11  and  C_13
REMARK    7  A    between atoms: C_14  and  C_15
REMARK                            x       y       z     vdW  Elec       q    Type
REMARK                         _______ _______ _______ _____ _____    ______ ____
ROOT
ATOM      1  C   UNL     1       4.747   4.329  18.770  0.00  0.00    +0.000 A 
ATOM      2  N   UNL     1       5.680   3.983  19.634  0.00  0.00    +0.000 NA
ATOM      3  N   UNL     1       6.738   4.872  19.640  0.00  0.00    +0.000 NA
ATOM      4  C   UNL     1       6.581   5.838  18.763  0.00  0.00    +0.000 A 
ATOM      5  N   UNL     1       7.509   6.841  18.598  0.00  0.00    +0.000 N 
ATOM      6  C   UNL     1       7.496   7.790  17.611  0.00  0.00    +0.000 C 
ATOM      7  O   UNL     1       6.686   7.896  16.697  0.00  0.00    +0.000 OA
ATOM      8  S   UNL     1       5.114   5.761  17.896  0.00  0.00    +0.000 S 
ATOM      9  H   UNL     1       8.278   6.786  19.251  0.00  0.00    +0.000 HD
ENDROOT
BRANCH   6  10
ATOM     10  C   UNL     1       8.636   8.744  17.718  0.00  0.00    +0.000 C 
ATOM     11  C   UNL     1       8.557   9.723  18.631  0.00  0.00    +0.000 C 
BRANCH  11  12
ATOM     12  C   UNL     1       9.599  10.669  18.811  0.00  0.00    +0.000 A 
ATOM     13  C   UNL     1      10.263  11.406  17.835  0.00  0.00    +0.000 A 
ATOM     14  C   UNL     1      11.222  12.222  18.476  0.00  0.00    +0.000 A 
ATOM     15  C   UNL     1      11.105  11.949  19.815  0.00  0.00    +0.000 A 
ATOM     16  O   UNL     1      10.139  11.021  20.029  0.00  0.00    +0.000 OA
ENDBRANCH  11  12
ENDBRANCH   6  10
BRANCH   1  17
ATOM     17  C   UNL     1       3.453   3.585  18.536  0.00  0.00    +0.000 C 
BRANCH  17  19
ATOM     18  C   UNL     1       2.478   4.794  20.588  0.00  0.00    +0.000 C 
ATOM     19  C   UNL     1       2.657   3.471  19.855  0.00  0.00    +0.000 C 
ENDBRANCH  17  19
BRANCH  17  20
ATOM     20  C   UNL     1       2.661   4.198  17.362  0.00  0.00    +0.000 C 
ATOM     21  C   UNL     1       1.144   4.128  17.494  0.00  0.00    +0.000 C 
ENDBRANCH  17  20
ENDBRANCH   1  17
TORSDOF 5
ENDMDL
