MODEL 1
REMARK VINA RESULT:      -9.8      0.000      0.000
REMARK  Name = 
REMARK  5 active torsions:
REMARK  status: ('A' for Active; 'I' for Inactive)
REMARK    1  A    between atoms: C_1  and  C_2
REMARK    2  A    between atoms: C_2  and  C_4
REMARK    3  A    between atoms: C_5  and  N_6
REMARK    4  A    between atoms: C_15  and  N_16
REMARK    5  A    between atoms: C_21  and  N_22
REMARK                            x       y       z     vdW  Elec       q    Type
REMARK                         _______ _______ _______ _____ _____    ______ ____
ROOT
ATOM      1  C   UNL     1       3.622   3.360  19.784  0.00  0.00    +0.000 A 
ATOM      2  C   UNL     1       3.972   4.410  18.989  0.00  0.00    +0.000 A 
ATOM      3  C   UNL     1       3.259   5.698  19.195  0.00  0.00    +0.000 A 
ATOM      4  C   UNL     1       3.498   6.875  18.474  0.00  0.00    +0.000 A 
ATOM      5  C   UNL     1       2.783   8.060  18.697  0.00  0.00    +0.000 A 
ATOM      6  C   UNL     1       1.758   8.096  19.633  0.00  0.00    +0.000 A 
ATOM      7  C   UNL     1       1.532   6.932  20.366  0.00  0.00    +0.000 A 
ATOM      8  C   UNL     1       2.258   5.771  20.135  0.00  0.00    +0.000 A 
ATOM      9  O   UNL     1       1.880   4.684  20.911  0.00  0.00    +0.000 OA
ATOM     10  C   UNL     1       2.561   3.496  20.822  0.00  0.00    +0.000 A 
ATOM     11  O   UNL     1       2.260   2.593  21.597  0.00  0.00    +0.000 OA
ENDROOT
BRANCH   6  12
ATOM     12  N   UNL     1       0.984   9.249  19.778  0.00  0.00    +0.000 N 
ATOM     13  C   UNL     1       0.352   9.755  20.912  0.00  0.00    +0.000 A 
ATOM     14  N   UNL     1       0.592   9.216  22.111  0.00  0.00    +0.000 NA
ATOM     15  C   UNL     1      -0.046   9.707  23.178  0.00  0.00    +0.000 A 
ATOM     16  C   UNL     1      -0.926  10.742  23.087  0.00  0.00    +0.000 A 
ATOM     17  C   UNL     1      -1.145  11.243  21.815  0.00  0.00    +0.000 A 
ATOM     18  N   UNL     1      -0.509  10.756  20.727  0.00  0.00    +0.000 NA
ATOM     19  H   UNL     1       0.632   9.697  18.947  0.00  0.00    +0.000 HD
BRANCH  17  20
ATOM     20  N   UNL     1      -2.072  12.323  21.641  0.00  0.00    +0.000 N 
ATOM     21  C   UNL     1      -2.087  13.202  20.573  0.00  0.00    +0.000 A 
ATOM     22  C   UNL     1      -3.128  14.077  20.717  0.00  0.00    +0.000 A 
ATOM     23  C   UNL     1      -3.783  13.767  21.931  0.00  0.00    +0.000 A 
ATOM     24  C   UNL     1      -4.892  14.336  22.585  0.00  0.00    +0.000 A 
ATOM     25  C   UNL     1      -5.304  13.827  23.818  0.00  0.00    +0.000 A 
ATOM     26  C   UNL     1      -4.628  12.760  24.396  0.00  0.00    +0.000 A 
ATOM     27  C   UNL     1      -3.533  12.171  23.757  0.00  0.00    +0.000 A 
ATOM     28  C   UNL     1      -3.116  12.681  22.509  0.00  0.00    +0.000 A 
ENDBRANCH  17  20
ENDBRANCH   6  12
BRANCH   2  29
ATOM     29  N   UNL     1       4.889   4.426  17.928  0.00  0.00    +0.000 N 
ATOM     30  C   UNL     1       6.349   4.632  18.084  0.00  0.00    +0.000 C 
ATOM     31  C   UNL     1       6.881   5.624  17.019  0.00  0.00    +0.000 C 
ATOM     32  O   UNL     1       6.464   5.291  15.686  0.00  0.00    +0.000 OA
ATOM     33  C   UNL     1       5.032   5.161  15.611  0.00  0.00    +0.000 C 
ATOM     34  C   UNL     1       4.537   4.049  16.548  0.00  0.00    +0.000 C 
ENDBRANCH   2  29
BRANCH   1  36
ATOM     35  C   UNL     1       3.869   1.034  18.628  0.00  0.00    +0.000 C 
ATOM     36  C   UNL     1       4.320   2.025  19.683  0.00  0.00    +0.000 C 
ATOM     37  O   UNL     1       5.222   1.697  20.456  0.00  0.00    +0.000 OA
ENDBRANCH   1  36
TORSDOF 4
ENDMDL
MODEL 2
REMARK VINA RESULT:      -9.6      4.243     11.100
REMARK  Name = 
REMARK  5 active torsions:
REMARK  status: ('A' for Active; 'I' for Inactive)
REMARK    1  A    between atoms: C_1  and  C_2
REMARK    2  A    between atoms: C_2  and  C_4
REMARK    3  A    between atoms: C_5  and  N_6
REMARK    4  A    between atoms: C_15  and  N_16
REMARK    5  A    between atoms: C_21  and  N_22
REMARK                            x       y       z     vdW  Elec       q    Type
REMARK                         _______ _______ _______ _____ _____    ______ ____
ROOT
ATOM      1  C   UNL     1      -3.432  13.937  23.484  0.00  0.00    +0.000 A 
ATOM      2  C   UNL     1      -2.341  14.185  22.706  0.00  0.00    +0.000 A 
ATOM      3  C   UNL     1      -1.490  13.027  22.324  0.00  0.00    +0.000 A 
ATOM      4  C   UNL     1      -0.340  13.102  21.527  0.00  0.00    +0.000 A 
ATOM      5  C   UNL     1       0.438  11.979  21.211  0.00  0.00    +0.000 A 
ATOM      6  C   UNL     1       0.113  10.731  21.726  0.00  0.00    +0.000 A 
ATOM      7  C   UNL     1      -1.042  10.651  22.503  0.00  0.00    +0.000 A 
ATOM      8  C   UNL     1      -1.804  11.775  22.798  0.00  0.00    +0.000 A 
ATOM      9  O   UNL     1      -2.894  11.539  23.623  0.00  0.00    +0.000 OA
ATOM     10  C   UNL     1      -3.761  12.555  23.937  0.00  0.00    +0.000 A 
ATOM     11  O   UNL     1      -4.766  12.283  24.587  0.00  0.00    +0.000 OA
ENDROOT
BRANCH   6  12
ATOM     12  N   UNL     1       0.949   9.638  21.490  0.00  0.00    +0.000 N 
ATOM     13  C   UNL     1       1.359   9.083  20.281  0.00  0.00    +0.000 A 
ATOM     14  N   UNL     1       1.094   9.709  19.130  0.00  0.00    +0.000 NA
ATOM     15  C   UNL     1       1.480   9.141  17.983  0.00  0.00    +0.000 A 
ATOM     16  C   UNL     1       2.139   7.950  17.946  0.00  0.00    +0.000 A 
ATOM     17  C   UNL     1       2.365   7.343  19.171  0.00  0.00    +0.000 A 
ATOM     18  N   UNL     1       1.980   7.904  20.338  0.00  0.00    +0.000 NA
ATOM     19  H   UNL     1       1.138   9.008  22.253  0.00  0.00    +0.000 HD
BRANCH  17  20
ATOM     20  N   UNL     1       3.039   6.078  19.207  0.00  0.00    +0.000 N 
ATOM     21  C   UNL     1       4.264   5.806  18.624  0.00  0.00    +0.000 A 
ATOM     22  C   UNL     1       4.618   4.512  18.890  0.00  0.00    +0.000 A 
ATOM     23  C   UNL     1       3.573   3.928  19.642  0.00  0.00    +0.000 A 
ATOM     24  C   UNL     1       3.391   2.637  20.173  0.00  0.00    +0.000 A 
ATOM     25  C   UNL     1       2.215   2.332  20.862  0.00  0.00    +0.000 A 
ATOM     26  C   UNL     1       1.231   3.298  21.029  0.00  0.00    +0.000 A 
ATOM     27  C   UNL     1       1.398   4.591  20.522  0.00  0.00    +0.000 A 
ATOM     28  C   UNL     1       2.587   4.903  19.828  0.00  0.00    +0.000 A 
ENDBRANCH  17  20
ENDBRANCH   6  12
BRANCH   2  29
ATOM     29  N   UNL     1      -1.857  15.423  22.261  0.00  0.00    +0.000 N 
ATOM     30  C   UNL     1      -2.280  16.086  21.004  0.00  0.00    +0.000 C 
ATOM     31  C   UNL     1      -1.055  16.653  20.243  0.00  0.00    +0.000 C 
ATOM     32  O   UNL     1      -0.196  17.447  21.077  0.00  0.00    +0.000 OA
ATOM     33  C   UNL     1       0.209  16.712  22.247  0.00  0.00    +0.000 C 
ATOM     34  C   UNL     1      -1.014  16.307  23.085  0.00  0.00    +0.000 C 
ENDBRANCH   2  29
BRANCH   1  36
ATOM     35  C   UNL     1      -5.558  15.365  22.985  0.00  0.00    +0.000 C 
ATOM     36  C   UNL     1      -4.383  15.039  23.886  0.00  0.00    +0.000 C 
ATOM     37  O   UNL     1      -4.216  15.710  24.905  0.00  0.00    +0.000 OA
ENDBRANCH   1  36
TORSDOF 4
ENDMDL
MODEL 3
REMARK VINA RESULT:      -9.6      0.972      1.092
REMARK  Name = 
REMARK  5 active torsions:
REMARK  status: ('A' for Active; 'I' for Inactive)
REMARK    1  A    between atoms: C_1  and  C_2
REMARK    2  A    between atoms: C_2  and  C_4
REMARK    3  A    between atoms: C_5  and  N_6
REMARK    4  A    between atoms: C_15  and  N_16
REMARK    5  A    between atoms: C_21  and  N_22
REMARK                            x       y       z     vdW  Elec       q    Type
REMARK                         _______ _______ _______ _____ _____    ______ ____
ROOT
ATOM      1  C   UNL     1       3.563   3.516  19.734  0.00  0.00    +0.000 A 
ATOM      2  C   UNL     1       3.933   4.574  18.961  0.00  0.00    +0.000 A 
ATOM      3  C   UNL     1       3.229   5.866  19.178  0.00  0.00    +0.000 A 
ATOM      4  C   UNL     1       3.487   7.051  18.478  0.00  0.00    +0.000 A 
ATOM      5  C   UNL     1       2.780   8.239  18.710  0.00  0.00    +0.000 A 
ATOM      6  C   UNL     1       1.743   8.270  19.633  0.00  0.00    +0.000 A 
ATOM      7  C   UNL     1       1.497   7.097  20.345  0.00  0.00    +0.000 A 
ATOM      8  C   UNL     1       2.216   5.932  20.105  0.00  0.00    +0.000 A 
ATOM      9  O   UNL     1       1.818   4.837  20.859  0.00  0.00    +0.000 OA
ATOM     10  C   UNL     1       2.490   3.645  20.760  0.00  0.00    +0.000 A 
ATOM     11  O   UNL     1       2.171   2.733  21.517  0.00  0.00    +0.000 OA
ENDROOT
BRANCH   6  12
ATOM     12  N   UNL     1       0.978   9.428  19.786  0.00  0.00    +0.000 N 
ATOM     13  C   UNL     1       0.298   9.898  20.907  0.00  0.00    +0.000 A 
ATOM     14  N   UNL     1       0.472   9.309  22.094  0.00  0.00    +0.000 NA
ATOM     15  C   UNL     1      -0.210   9.769  23.148  0.00  0.00    +0.000 A 
ATOM     16  C   UNL     1      -1.072  10.818  23.056  0.00  0.00    +0.000 A 
ATOM     17  C   UNL     1      -1.223  11.371  21.795  0.00  0.00    +0.000 A 
ATOM     18  N   UNL     1      -0.541  10.918  20.720  0.00  0.00    +0.000 NA
ATOM     19  H   UNL     1       0.672   9.912  18.957  0.00  0.00    +0.000 HD
BRANCH  17  20
ATOM     20  N   UNL     1      -2.127  12.470  21.620  0.00  0.00    +0.000 N 
ATOM     21  C   UNL     1      -3.086  12.568  20.627  0.00  0.00    +0.000 A 
ATOM     22  C   UNL     1      -3.790  13.730  20.786  0.00  0.00    +0.000 A 
ATOM     23  C   UNL     1      -3.247  14.411  21.899  0.00  0.00    +0.000 A 
ATOM     24  C   UNL     1      -3.561  15.641  22.506  0.00  0.00    +0.000 A 
ATOM     25  C   UNL     1      -2.814  16.083  23.600  0.00  0.00    +0.000 A 
ATOM     26  C   UNL     1      -1.769  15.311  24.093  0.00  0.00    +0.000 A 
ATOM     27  C   UNL     1      -1.449  14.080  23.512  0.00  0.00    +0.000 A 
ATOM     28  C   UNL     1      -2.205  13.629  22.409  0.00  0.00    +0.000 A 
ENDBRANCH  17  20
ENDBRANCH   6  12
BRANCH   2  29
ATOM     29  N   UNL     1       4.864   4.599  17.912  0.00  0.00    +0.000 N 
ATOM     30  C   UNL     1       6.328   4.740  18.094  0.00  0.00    +0.000 C 
ATOM     31  C   UNL     1       6.913   5.754  17.078  0.00  0.00    +0.000 C 
ATOM     32  O   UNL     1       6.501   5.494  15.727  0.00  0.00    +0.000 OA
ATOM     33  C   UNL     1       5.066   5.423  15.630  0.00  0.00    +0.000 C 
ATOM     34  C   UNL     1       4.516   4.293  16.513  0.00  0.00    +0.000 C 
ENDBRANCH   2  29
BRANCH   1  36
ATOM     35  C   UNL     1       3.805   1.205  18.545  0.00  0.00    +0.000 C 
ATOM     36  C   UNL     1       4.251   2.176  19.621  0.00  0.00    +0.000 C 
ATOM     37  O   UNL     1       5.139   1.827  20.401  0.00  0.00    +0.000 OA
ENDBRANCH   1  36
TORSDOF 4
ENDMDL
MODEL 4
REMARK VINA RESULT:      -9.4      4.245     11.191
REMARK  Name = 
REMARK  5 active torsions:
REMARK  status: ('A' for Active; 'I' for Inactive)
REMARK    1  A    between atoms: C_1  and  C_2
REMARK    2  A    between atoms: C_2  and  C_4
REMARK    3  A    between atoms: C_5  and  N_6
REMARK    4  A    between atoms: C_15  and  N_16
REMARK    5  A    between atoms: C_21  and  N_22
REMARK                            x       y       z     vdW  Elec       q    Type
REMARK                         _______ _______ _______ _____ _____    ______ ____
ROOT
ATOM      1  C   UNL     1      -3.091  13.683  23.396  0.00  0.00    +0.000 A 
ATOM      2  C   UNL     1      -2.018  13.890  22.583  0.00  0.00    +0.000 A 
ATOM      3  C   UNL     1      -1.201  12.706  22.206  0.00  0.00    +0.000 A 
ATOM      4  C   UNL     1      -0.073  12.738  21.376  0.00  0.00    +0.000 A 
ATOM      5  C   UNL     1       0.674  11.593  21.065  0.00  0.00    +0.000 A 
ATOM      6  C   UNL     1       0.338  10.364  21.619  0.00  0.00    +0.000 A 
ATOM      7  C   UNL     1      -0.796  10.326  22.429  0.00  0.00    +0.000 A 
ATOM      8  C   UNL     1      -1.527  11.472  22.718  0.00  0.00    +0.000 A 
ATOM      9  O   UNL     1      -2.598  11.279  23.578  0.00  0.00    +0.000 OA
ATOM     10  C   UNL     1      -3.435  12.320  23.891  0.00  0.00    +0.000 A 
ATOM     11  O   UNL     1      -4.427  12.084  24.574  0.00  0.00    +0.000 OA
ENDROOT
BRANCH   6  12
ATOM     12  N   UNL     1       1.145   9.249  21.386  0.00  0.00    +0.000 N 
ATOM     13  C   UNL     1       1.587   8.713  20.180  0.00  0.00    +0.000 A 
ATOM     14  N   UNL     1       1.395   9.380  19.038  0.00  0.00    +0.000 NA
ATOM     15  C   UNL     1       1.811   8.831  17.892  0.00  0.00    +0.000 A 
ATOM     16  C   UNL     1       2.429   7.619  17.848  0.00  0.00    +0.000 A 
ATOM     17  C   UNL     1       2.579   6.970  19.062  0.00  0.00    +0.000 A 
ATOM     18  N   UNL     1       2.164   7.511  20.228  0.00  0.00    +0.000 NA
ATOM     19  H   UNL     1       1.279   8.591  22.137  0.00  0.00    +0.000 HD
BRANCH  17  20
ATOM     20  N   UNL     1       3.207   5.680  19.090  0.00  0.00    +0.000 N 
ATOM     21  C   UNL     1       4.571   5.454  19.140  0.00  0.00    +0.000 A 
ATOM     22  C   UNL     1       4.808   4.108  19.192  0.00  0.00    +0.000 A 
ATOM     23  C   UNL     1       3.558   3.451  19.144  0.00  0.00    +0.000 A 
ATOM     24  C   UNL     1       3.199   2.090  19.151  0.00  0.00    +0.000 A 
ATOM     25  C   UNL     1       1.853   1.730  19.060  0.00  0.00    +0.000 A 
ATOM     26  C   UNL     1       0.870   2.707  18.969  0.00  0.00    +0.000 A 
ATOM     27  C   UNL     1       1.205   4.065  18.974  0.00  0.00    +0.000 A 
ATOM     28  C   UNL     1       2.564   4.433  19.070  0.00  0.00    +0.000 A 
ENDBRANCH  17  20
ENDBRANCH   6  12
BRANCH   2  29
ATOM     29  N   UNL     1      -1.522  15.107  22.095  0.00  0.00    +0.000 N 
ATOM     30  C   UNL     1      -0.432  15.885  22.733  0.00  0.00    +0.000 C 
ATOM     31  C   UNL     1      -0.788  17.392  22.783  0.00  0.00    +0.000 C 
ATOM     32  O   UNL     1      -1.225  17.906  21.515  0.00  0.00    +0.000 OA
ATOM     33  C   UNL     1      -2.317  17.127  20.992  0.00  0.00    +0.000 C 
ATOM     34  C   UNL     1      -1.892  15.665  20.783  0.00  0.00    +0.000 C 
ENDBRANCH   2  29
BRANCH   1  36
ATOM     35  C   UNL     1      -3.617  15.705  24.959  0.00  0.00    +0.000 C 
ATOM     36  C   UNL     1      -4.008  14.813  23.797  0.00  0.00    +0.000 C 
ATOM     37  O   UNL     1      -5.087  15.013  23.235  0.00  0.00    +0.000 OA
ENDBRANCH   1  36
TORSDOF 4
ENDMDL
MODEL 5
REMARK VINA RESULT:      -9.3      1.026      1.849
REMARK  Name = 
REMARK  5 active torsions:
REMARK  status: ('A' for Active; 'I' for Inactive)
REMARK    1  A    between atoms: C_1  and  C_2
REMARK    2  A    between atoms: C_2  and  C_4
REMARK    3  A    between atoms: C_5  and  N_6
REMARK    4  A    between atoms: C_15  and  N_16
REMARK    5  A    between atoms: C_21  and  N_22
REMARK                            x       y       z     vdW  Elec       q    Type
REMARK                         _______ _______ _______ _____ _____    ______ ____
ROOT
ATOM      1  C   UNL     1       3.551   3.536  19.763  0.00  0.00    +0.000 A 
ATOM      2  C   UNL     1       3.929   4.554  18.940  0.00  0.00    +0.000 A 
ATOM      3  C   UNL     1       3.240   5.862  19.100  0.00  0.00    +0.000 A 
ATOM      4  C   UNL     1       3.509   7.011  18.346  0.00  0.00    +0.000 A 
ATOM      5  C   UNL     1       2.816   8.217  18.527  0.00  0.00    +0.000 A 
ATOM      6  C   UNL     1       1.783   8.301  19.452  0.00  0.00    +0.000 A 
ATOM      7  C   UNL     1       1.528   7.165  20.217  0.00  0.00    +0.000 A 
ATOM      8  C   UNL     1       2.232   5.982  20.028  0.00  0.00    +0.000 A 
ATOM      9  O   UNL     1       1.826   4.927  20.833  0.00  0.00    +0.000 OA
ATOM     10  C   UNL     1       2.484   3.724  20.787  0.00  0.00    +0.000 A 
ATOM     11  O   UNL     1       2.159   2.851  21.585  0.00  0.00    +0.000 OA
ENDROOT
BRANCH   6  12
ATOM     12  N   UNL     1       1.032   9.473  19.555  0.00  0.00    +0.000 N 
ATOM     13  C   UNL     1       0.359  10.000  20.655  0.00  0.00    +0.000 A 
ATOM     14  N   UNL     1       0.528   9.462  21.866  0.00  0.00    +0.000 NA
ATOM     15  C   UNL     1      -0.147   9.974  22.900  0.00  0.00    +0.000 A 
ATOM     16  C   UNL     1      -0.996  11.029  22.763  0.00  0.00    +0.000 A 
ATOM     17  C   UNL     1      -1.143  11.528  21.479  0.00  0.00    +0.000 A 
ATOM     18  N   UNL     1      -0.468  11.020  20.425  0.00  0.00    +0.000 NA
ATOM     19  H   UNL     1       0.731   9.924  18.705  0.00  0.00    +0.000 HD
BRANCH  17  20
ATOM     20  N   UNL     1      -2.035  12.629  21.257  0.00  0.00    +0.000 N 
ATOM     21  C   UNL     1      -3.415  12.544  21.209  0.00  0.00    +0.000 A 
ATOM     22  C   UNL     1      -3.942  13.792  21.018  0.00  0.00    +0.000 A 
ATOM     23  C   UNL     1      -2.865  14.700  20.912  0.00  0.00    +0.000 A 
ATOM     24  C   UNL     1      -2.811  16.090  20.701  0.00  0.00    +0.000 A 
ATOM     25  C   UNL     1      -1.572  16.729  20.608  0.00  0.00    +0.000 A 
ATOM     26  C   UNL     1      -0.397  15.998  20.729  0.00  0.00    +0.000 A 
ATOM     27  C   UNL     1      -0.428  14.618  20.953  0.00  0.00    +0.000 A 
ATOM     28  C   UNL     1      -1.678  13.971  21.051  0.00  0.00    +0.000 A 
ENDBRANCH  17  20
ENDBRANCH   6  12
BRANCH   2  29
ATOM     29  N   UNL     1       4.855   4.520  17.887  0.00  0.00    +0.000 N 
ATOM     30  C   UNL     1       6.321   4.665  18.054  0.00  0.00    +0.000 C 
ATOM     31  C   UNL     1       6.904   5.622  16.985  0.00  0.00    +0.000 C 
ATOM     32  O   UNL     1       6.485   5.292  15.651  0.00  0.00    +0.000 OA
ATOM     33  C   UNL     1       5.050   5.223  15.564  0.00  0.00    +0.000 C 
ATOM     34  C   UNL     1       4.499   4.143  16.508  0.00  0.00    +0.000 C 
ENDBRANCH   2  29
BRANCH   1  36
ATOM     35  C   UNL     1       3.765   1.173  18.677  0.00  0.00    +0.000 C 
ATOM     36  C   UNL     1       4.223   2.185  19.708  0.00  0.00    +0.000 C 
ATOM     37  O   UNL     1       5.109   1.861  20.502  0.00  0.00    +0.000 OA
ENDBRANCH   1  36
TORSDOF 4
ENDMDL
MODEL 6
REMARK VINA RESULT:      -9.3      1.533      2.078
REMARK  Name = 
REMARK  5 active torsions:
REMARK  status: ('A' for Active; 'I' for Inactive)
REMARK    1  A    between atoms: C_1  and  C_2
REMARK    2  A    between atoms: C_2  and  C_4
REMARK    3  A    between atoms: C_5  and  N_6
REMARK    4  A    between atoms: C_15  and  N_16
REMARK    5  A    between atoms: C_21  and  N_22
REMARK                            x       y       z     vdW  Elec       q    Type
REMARK                         _______ _______ _______ _____ _____    ______ ____
ROOT
ATOM      1  C   UNL     1       3.362   3.567  19.954  0.00  0.00    +0.000 A 
ATOM      2  C   UNL     1       3.607   4.715  19.264  0.00  0.00    +0.000 A 
ATOM      3  C   UNL     1       2.840   5.928  19.650  0.00  0.00    +0.000 A 
ATOM      4  C   UNL     1       2.971   7.188  19.052  0.00  0.00    +0.000 A 
ATOM      5  C   UNL     1       2.209   8.298  19.443  0.00  0.00    +0.000 A 
ATOM      6  C   UNL     1       1.241   8.171  20.431  0.00  0.00    +0.000 A 
ATOM      7  C   UNL     1       1.122   6.923  21.041  0.00  0.00    +0.000 A 
ATOM      8  C   UNL     1       1.894   5.839  20.644  0.00  0.00    +0.000 A 
ATOM      9  O   UNL     1       1.622   4.654  21.313  0.00  0.00    +0.000 OA
ATOM     10  C   UNL     1       2.360   3.526  21.057  0.00  0.00    +0.000 A 
ATOM     11  O   UNL     1       2.155   2.528  21.741  0.00  0.00    +0.000 OA
ENDROOT
BRANCH   6  12
ATOM     12  N   UNL     1       0.416   9.253  20.745  0.00  0.00    +0.000 N 
ATOM     13  C   UNL     1      -0.354  10.052  19.903  0.00  0.00    +0.000 A 
ATOM     14  N   UNL     1      -0.515   9.716  18.620  0.00  0.00    +0.000 NA
ATOM     15  C   UNL     1      -1.241  10.514  17.830  0.00  0.00    +0.000 A 
ATOM     16  C   UNL     1      -1.828  11.653  18.289  0.00  0.00    +0.000 A 
ATOM     17  C   UNL     1      -1.607  11.956  19.623  0.00  0.00    +0.000 A 
ATOM     18  N   UNL     1      -0.874  11.160  20.433  0.00  0.00    +0.000 NA
ATOM     19  H   UNL     1       0.518   9.685  21.649  0.00  0.00    +0.000 HD
BRANCH  17  20
ATOM     20  N   UNL     1      -2.180  13.150  20.170  0.00  0.00    +0.000 N 
ATOM     21  C   UNL     1      -1.505  14.339  20.383  0.00  0.00    +0.000 A 
ATOM     22  C   UNL     1      -2.371  15.273  20.880  0.00  0.00    +0.000 A 
ATOM     23  C   UNL     1      -3.634  14.655  21.019  0.00  0.00    +0.000 A 
ATOM     24  C   UNL     1      -4.875  15.124  21.489  0.00  0.00    +0.000 A 
ATOM     25  C   UNL     1      -5.968  14.256  21.541  0.00  0.00    +0.000 A 
ATOM     26  C   UNL     1      -5.835  12.936  21.126  0.00  0.00    +0.000 A 
ATOM     27  C   UNL     1      -4.614  12.454  20.643  0.00  0.00    +0.000 A 
ATOM     28  C   UNL     1      -3.509  13.330  20.586  0.00  0.00    +0.000 A 
ENDBRANCH  17  20
ENDBRANCH   6  12
BRANCH   2  29
ATOM     29  N   UNL     1       4.456   4.900  18.163  0.00  0.00    +0.000 N 
ATOM     30  C   UNL     1       4.062   4.674  16.752  0.00  0.00    +0.000 C 
ATOM     31  C   UNL     1       5.166   3.900  15.990  0.00  0.00    +0.000 C 
ATOM     32  O   UNL     1       6.471   4.475  16.159  0.00  0.00    +0.000 OA
ATOM     33  C   UNL     1       6.796   4.612  17.555  0.00  0.00    +0.000 C 
ATOM     34  C   UNL     1       5.786   5.528  18.262  0.00  0.00    +0.000 C 
ENDBRANCH   2  29
BRANCH   1  36
ATOM     35  C   UNL     1       3.638   1.375  18.565  0.00  0.00    +0.000 C 
ATOM     36  C   UNL     1       4.124   2.294  19.668  0.00  0.00    +0.000 C 
ATOM     37  O   UNL     1       5.108   1.957  20.328  0.00  0.00    +0.000 OA
ENDBRANCH   1  36
TORSDOF 4
ENDMDL
MODEL 7
REMARK VINA RESULT:      -9.2      3.958     11.112
REMARK  Name = 
REMARK  5 active torsions:
REMARK  status: ('A' for Active; 'I' for Inactive)
REMARK    1  A    between atoms: C_1  and  C_2
REMARK    2  A    between atoms: C_2  and  C_4
REMARK    3  A    between atoms: C_5  and  N_6
REMARK    4  A    between atoms: C_15  and  N_16
REMARK    5  A    between atoms: C_21  and  N_22
REMARK                            x       y       z     vdW  Elec       q    Type
REMARK                         _______ _______ _______ _____ _____    ______ ____
ROOT
ATOM      1  C   UNL     1      -3.805  11.894  19.159  0.00  0.00    +0.000 A 
ATOM      2  C   UNL     1      -2.639  12.074  19.838  0.00  0.00    +0.000 A 
ATOM      3  C   UNL     1      -1.442  11.331  19.362  0.00  0.00    +0.000 A 
ATOM      4  C   UNL     1      -0.167  11.405  19.937  0.00  0.00    +0.000 A 
ATOM      5  C   UNL     1       0.926  10.669  19.458  0.00  0.00    +0.000 A 
ATOM      6  C   UNL     1       0.766   9.784  18.399  0.00  0.00    +0.000 A 
ATOM      7  C   UNL     1      -0.497   9.724  17.812  0.00  0.00    +0.000 A 
ATOM      8  C   UNL     1      -1.564  10.470  18.298  0.00  0.00    +0.000 A 
ATOM      9  O   UNL     1      -2.767  10.262  17.638  0.00  0.00    +0.000 OA
ATOM     10  C   UNL     1      -3.882  10.984  17.981  0.00  0.00    +0.000 A 
ATOM     11  O   UNL     1      -4.898  10.842  17.307  0.00  0.00    +0.000 OA
ENDROOT
BRANCH   6  12
ATOM     12  N   UNL     1       1.833   8.980  17.994  0.00  0.00    +0.000 N 
ATOM     13  C   UNL     1       2.337   7.819  18.574  0.00  0.00    +0.000 A 
ATOM     14  N   UNL     1       1.675   7.226  19.573  0.00  0.00    +0.000 NA
ATOM     15  C   UNL     1       2.194   6.125  20.126  0.00  0.00    +0.000 A 
ATOM     16  C   UNL     1       3.369   5.583  19.704  0.00  0.00    +0.000 A 
ATOM     17  C   UNL     1       4.015   6.256  18.679  0.00  0.00    +0.000 A 
ATOM     18  N   UNL     1       3.505   7.370  18.111  0.00  0.00    +0.000 NA
ATOM     19  H   UNL     1       2.487   9.355  17.324  0.00  0.00    +0.000 HD
BRANCH  17  20
ATOM     20  N   UNL     1       5.267   5.751  18.195  0.00  0.00    +0.000 N 
ATOM     21  C   UNL     1       6.419   5.611  18.948  0.00  0.00    +0.000 A 
ATOM     22  C   UNL     1       7.407   5.066  18.175  0.00  0.00    +0.000 A 
ATOM     23  C   UNL     1       6.879   4.878  16.877  0.00  0.00    +0.000 A 
ATOM     24  C   UNL     1       7.437   4.373  15.688  0.00  0.00    +0.000 A 
ATOM     25  C   UNL     1       6.667   4.335  14.524  0.00  0.00    +0.000 A 
ATOM     26  C   UNL     1       5.353   4.787  14.538  0.00  0.00    +0.000 A 
ATOM     27  C   UNL     1       4.775   5.279  15.712  0.00  0.00    +0.000 A 
ATOM     28  C   UNL     1       5.550   5.316  16.891  0.00  0.00    +0.000 A 
ENDBRANCH  17  20
ENDBRANCH   6  12
BRANCH   2  29
ATOM     29  N   UNL     1      -2.419  12.830  20.999  0.00  0.00    +0.000 N 
ATOM     30  C   UNL     1      -2.064  14.270  21.007  0.00  0.00    +0.000 C 
ATOM     31  C   UNL     1      -0.922  14.549  22.017  0.00  0.00    +0.000 C 
ATOM     32  O   UNL     1      -1.174  13.989  23.316  0.00  0.00    +0.000 OA
ATOM     33  C   UNL     1      -1.458  12.580  23.222  0.00  0.00    +0.000 C 
ATOM     34  C   UNL     1      -2.703  12.332  22.356  0.00  0.00    +0.000 C 
ENDBRANCH   2  29
BRANCH   1  36
ATOM     35  C   UNL     1      -6.036  12.001  20.509  0.00  0.00    +0.000 C 
ATOM     36  C   UNL     1      -5.063  12.639  19.537  0.00  0.00    +0.000 C 
ATOM     37  O   UNL     1      -5.347  13.736  19.052  0.00  0.00    +0.000 OA
ENDBRANCH   1  36
TORSDOF 4
ENDMDL
MODEL 8
REMARK VINA RESULT:      -9.2      1.586      1.964
REMARK  Name = 
REMARK  5 active torsions:
REMARK  status: ('A' for Active; 'I' for Inactive)
REMARK    1  A    between atoms: C_1  and  C_2
REMARK    2  A    between atoms: C_2  and  C_4
REMARK    3  A    between atoms: C_5  and  N_6
REMARK    4  A    between atoms: C_15  and  N_16
REMARK    5  A    between atoms: C_21  and  N_22
REMARK                            x       y       z     vdW  Elec       q    Type
REMARK                         _______ _______ _______ _____ _____    ______ ____
ROOT
ATOM      1  C   UNL     1       3.296   3.583  19.870  0.00  0.00    +0.000 A 
ATOM      2  C   UNL     1       3.630   4.776  19.305  0.00  0.00    +0.000 A 
ATOM      3  C   UNL     1       2.836   5.971  19.699  0.00  0.00    +0.000 A 
ATOM      4  C   UNL     1       3.047   7.270  19.222  0.00  0.00    +0.000 A 
ATOM      5  C   UNL     1       2.257   8.361  19.613  0.00  0.00    +0.000 A 
ATOM      6  C   UNL     1       1.182   8.176  20.473  0.00  0.00    +0.000 A 
ATOM      7  C   UNL     1       0.982   6.886  20.965  0.00  0.00    +0.000 A 
ATOM      8  C   UNL     1       1.783   5.822  20.570  0.00  0.00    +0.000 A 
ATOM      9  O   UNL     1       1.425   4.594  21.109  0.00  0.00    +0.000 OA
ATOM     10  C   UNL     1       2.175   3.475  20.847  0.00  0.00    +0.000 A 
ATOM     11  O   UNL     1       1.883   2.431  21.422  0.00  0.00    +0.000 OA
ENDROOT
BRANCH   6  12
ATOM     12  N   UNL     1       0.339   9.246  20.778  0.00  0.00    +0.000 N 
ATOM     13  C   UNL     1      -0.418  10.046  19.927  0.00  0.00    +0.000 A 
ATOM     14  N   UNL     1      -0.544   9.723  18.636  0.00  0.00    +0.000 NA
ATOM     15  C   UNL     1      -1.259  10.522  17.837  0.00  0.00    +0.000 A 
ATOM     16  C   UNL     1      -1.869  11.650  18.294  0.00  0.00    +0.000 A 
ATOM     17  C   UNL     1      -1.684  11.940  19.636  0.00  0.00    +0.000 A 
ATOM     18  N   UNL     1      -0.964  11.143  20.455  0.00  0.00    +0.000 NA
ATOM     19  H   UNL     1       0.413   9.669  21.690  0.00  0.00    +0.000 HD
BRANCH  17  20
ATOM     20  N   UNL     1      -2.284  13.122  20.182  0.00  0.00    +0.000 N 
ATOM     21  C   UNL     1      -1.616  14.299  20.470  0.00  0.00    +0.000 A 
ATOM     22  C   UNL     1      -2.506  15.225  20.942  0.00  0.00    +0.000 A 
ATOM     23  C   UNL     1      -3.778  14.612  20.984  0.00  0.00    +0.000 A 
ATOM     24  C   UNL     1      -5.043  15.077  21.390  0.00  0.00    +0.000 A 
ATOM     25  C   UNL     1      -6.142  14.216  21.349  0.00  0.00    +0.000 A 
ATOM     26  C   UNL     1      -5.991  12.908  20.905  0.00  0.00    +0.000 A 
ATOM     27  C   UNL     1      -4.746  12.431  20.484  0.00  0.00    +0.000 A 
ATOM     28  C   UNL     1      -3.635  13.300  20.520  0.00  0.00    +0.000 A 
ENDBRANCH  17  20
ENDBRANCH   6  12
BRANCH   2  29
ATOM     29  N   UNL     1       4.599   5.031  18.325  0.00  0.00    +0.000 N 
ATOM     30  C   UNL     1       6.043   5.221  18.603  0.00  0.00    +0.000 C 
ATOM     31  C   UNL     1       6.603   6.424  17.804  0.00  0.00    +0.000 C 
ATOM     32  O   UNL     1       6.266   6.375  16.408  0.00  0.00    +0.000 OA
ATOM     33  C   UNL     1       4.844   6.242  16.227  0.00  0.00    +0.000 C 
ATOM     34  C   UNL     1       4.330   4.949  16.879  0.00  0.00    +0.000 C 
ENDBRANCH   2  29
BRANCH   1  36
ATOM     35  C   UNL     1       3.659   1.464  18.390  0.00  0.00    +0.000 C 
ATOM     36  C   UNL     1       4.072   2.322  19.570  0.00  0.00    +0.000 C 
ATOM     37  O   UNL     1       5.008   1.945  20.277  0.00  0.00    +0.000 OA
ENDBRANCH   1  36
TORSDOF 4
ENDMDL
MODEL 9
REMARK VINA RESULT:      -9.1      1.128      1.779
REMARK  Name = 
REMARK  5 active torsions:
REMARK  status: ('A' for Active; 'I' for Inactive)
REMARK    1  A    between atoms: C_1  and  C_2
REMARK    2  A    between atoms: C_2  and  C_4
REMARK    3  A    between atoms: C_5  and  N_6
REMARK    4  A    between atoms: C_15  and  N_16
REMARK    5  A    between atoms: C_21  and  N_22
REMARK                            x       y       z     vdW  Elec       q    Type
REMARK                         _______ _______ _______ _____ _____    ______ ____
ROOT
ATOM      1  C   UNL     1       3.285   3.459  19.865  0.00  0.00    +0.000 A 
ATOM      2  C   UNL     1       3.582   4.649  19.273  0.00  0.00    +0.000 A 
ATOM      3  C   UNL     1       2.843   5.853  19.738  0.00  0.00    +0.000 A 
ATOM      4  C   UNL     1       3.028   7.151  19.245  0.00  0.00    +0.000 A 
ATOM      5  C   UNL     1       2.292   8.251  19.708  0.00  0.00    +0.000 A 
ATOM      6  C   UNL     1       1.297   8.079  20.662  0.00  0.00    +0.000 A 
ATOM      7  C   UNL     1       1.125   6.791  21.169  0.00  0.00    +0.000 A 
ATOM      8  C   UNL     1       1.872   5.717  20.702  0.00  0.00    +0.000 A 
ATOM      9  O   UNL     1       1.548   4.493  21.270  0.00  0.00    +0.000 OA
ATOM     10  C   UNL     1       2.256   3.364  20.940  0.00  0.00    +0.000 A 
ATOM     11  O   UNL     1       2.004   2.323  21.538  0.00  0.00    +0.000 OA
ENDROOT
BRANCH   6  12
ATOM     12  N   UNL     1       0.500   9.160  21.044  0.00  0.00    +0.000 N 
ATOM     13  C   UNL     1      -0.217  10.054  20.252  0.00  0.00    +0.000 A 
ATOM     14  N   UNL     1      -0.349   9.833  18.941  0.00  0.00    +0.000 NA
ATOM     15  C   UNL     1      -1.024  10.720  18.202  0.00  0.00    +0.000 A 
ATOM     16  C   UNL     1      -1.586  11.836  18.739  0.00  0.00    +0.000 A 
ATOM     17  C   UNL     1      -1.397  12.017  20.100  0.00  0.00    +0.000 A 
ATOM     18  N   UNL     1      -0.716  11.131  20.859  0.00  0.00    +0.000 NA
ATOM     19  H   UNL     1       0.588   9.510  21.984  0.00  0.00    +0.000 HD
BRANCH  17  20
ATOM     20  N   UNL     1      -1.947  13.181  20.731  0.00  0.00    +0.000 N 
ATOM     21  C   UNL     1      -1.846  14.476  20.252  0.00  0.00    +0.000 A 
ATOM     22  C   UNL     1      -2.519  15.325  21.087  0.00  0.00    +0.000 A 
ATOM     23  C   UNL     1      -3.043  14.554  22.149  0.00  0.00    +0.000 A 
ATOM     24  C   UNL     1      -3.798  14.894  23.287  0.00  0.00    +0.000 A 
ATOM     25  C   UNL     1      -4.156  13.901  24.201  0.00  0.00    +0.000 A 
ATOM     26  C   UNL     1      -3.775  12.582  23.988  0.00  0.00    +0.000 A 
ATOM     27  C   UNL     1      -3.036  12.221  22.857  0.00  0.00    +0.000 A 
ATOM     28  C   UNL     1      -2.676  13.221  21.929  0.00  0.00    +0.000 A 
ENDBRANCH  17  20
ENDBRANCH   6  12
BRANCH   2  29
ATOM     29  N   UNL     1       4.461   4.893  18.209  0.00  0.00    +0.000 N 
ATOM     30  C   UNL     1       4.108   4.738  16.777  0.00  0.00    +0.000 C 
ATOM     31  C   UNL     1       5.237   4.007  16.008  0.00  0.00    +0.000 C 
ATOM     32  O   UNL     1       6.535   4.576  16.245  0.00  0.00    +0.000 OA
ATOM     33  C   UNL     1       6.819   4.641  17.655  0.00  0.00    +0.000 C 
ATOM     34  C   UNL     1       5.785   5.517  18.378  0.00  0.00    +0.000 C 
ENDBRANCH   2  29
BRANCH   1  36
ATOM     35  C   UNL     1       3.536   1.386  18.300  0.00  0.00    +0.000 C 
ATOM     36  C   UNL     1       4.013   2.189  19.495  0.00  0.00    +0.000 C 
ATOM     37  O   UNL     1       4.961   1.760  20.155  0.00  0.00    +0.000 OA
ENDBRANCH   1  36
TORSDOF 4
ENDMDL
