MODEL 1
REMARK VINA RESULT:      -8.2      0.000      0.000
REMARK  Name = 
REMARK  2 active torsions:
REMARK  status: ('A' for Active; 'I' for Inactive)
REMARK    1  A    between atoms: C_4  and  C_5
REMARK    2  A    between atoms: C_10  and  O_11
REMARK                            x       y       z     vdW  Elec       q    Type
REMARK                         _______ _______ _______ _____ _____    ______ ____
ROOT
ATOM      1  O   UNL     1       7.444   6.248  16.535  0.00  0.00    +0.000 OA
ATOM      2  C   UNL     1       6.729   5.454  15.955  0.00  0.00    +0.000 C 
ATOM      3  C   UNL     1       5.547   4.727  16.509  0.00  0.00    +0.000 C 
ATOM      4  C   UNL     1       5.076   4.948  17.744  0.00  0.00    +0.000 C 
ATOM      5  C   UNL     1       5.010   3.803  15.446  0.00  0.00    +0.000 C 
ATOM      6  C   UNL     1       5.891   4.077  14.267  0.00  0.00    +0.000 A 
ATOM      7  C   UNL     1       5.815   3.516  13.002  0.00  0.00    +0.000 A 
ATOM      8  C   UNL     1       6.750   3.917  12.043  0.00  0.00    +0.000 A 
ATOM      9  C   UNL     1       7.743   4.864  12.352  0.00  0.00    +0.000 A 
ATOM     10  C   UNL     1       7.816   5.425  13.630  0.00  0.00    +0.000 A 
ATOM     11  C   UNL     1       6.880   5.017  14.562  0.00  0.00    +0.000 A 
ENDROOT
BRANCH   4  12
ATOM     12  C   UNL     1       3.896   4.259  18.274  0.00  0.00    +0.000 A 
ATOM     13  C   UNL     1       2.620   4.711  17.917  0.00  0.00    +0.000 A 
ATOM     14  C   UNL     1       1.479   4.053  18.386  0.00  0.00    +0.000 A 
ATOM     15  C   UNL     1       1.605   2.941  19.218  0.00  0.00    +0.000 A 
ATOM     16  C   UNL     1       2.871   2.494  19.599  0.00  0.00    +0.000 A 
ATOM     17  C   UNL     1       4.009   3.157  19.134  0.00  0.00    +0.000 A 
BRANCH  17  18
ATOM     18  O   UNL     1       5.250   2.734  19.524  0.00  0.00    +0.000 OA
ATOM     19  H   UNL     1       5.403   1.840  19.180  0.00  0.00    +0.000 HD
ENDBRANCH  17  18
ENDBRANCH   4  12
TORSDOF 2
ENDMDL
MODEL 2
REMARK VINA RESULT:      -7.6      1.075      1.144
REMARK  Name = 
REMARK  2 active torsions:
REMARK  status: ('A' for Active; 'I' for Inactive)
REMARK    1  A    between atoms: C_4  and  C_5
REMARK    2  A    between atoms: C_10  and  O_11
REMARK                            x       y       z     vdW  Elec       q    Type
REMARK                         _______ _______ _______ _____ _____    ______ ____
ROOT
ATOM      1  O   UNL     1       7.737   5.774  17.319  0.00  0.00    +0.000 OA
ATOM      2  C   UNL     1       6.806   5.185  16.805  0.00  0.00    +0.000 C 
ATOM      3  C   UNL     1       5.568   4.685  17.476  0.00  0.00    +0.000 C 
ATOM      4  C   UNL     1       5.303   4.917  18.769  0.00  0.00    +0.000 C 
ATOM      5  C   UNL     1       4.725   3.964  16.456  0.00  0.00    +0.000 C 
ATOM      6  C   UNL     1       5.501   4.126  15.185  0.00  0.00    +0.000 A 
ATOM      7  C   UNL     1       5.160   3.677  13.919  0.00  0.00    +0.000 A 
ATOM      8  C   UNL     1       6.040   3.936  12.865  0.00  0.00    +0.000 A 
ATOM      9  C   UNL     1       7.242   4.634  13.081  0.00  0.00    +0.000 A 
ATOM     10  C   UNL     1       7.582   5.083  14.360  0.00  0.00    +0.000 A 
ATOM     11  C   UNL     1       6.696   4.818  15.388  0.00  0.00    +0.000 A 
ENDROOT
BRANCH   4  12
ATOM     12  C   UNL     1       4.073   4.455  19.419  0.00  0.00    +0.000 A 
ATOM     13  C   UNL     1       3.008   5.350  19.585  0.00  0.00    +0.000 A 
ATOM     14  C   UNL     1       1.814   4.926  20.176  0.00  0.00    +0.000 A 
ATOM     15  C   UNL     1       1.676   3.607  20.606  0.00  0.00    +0.000 A 
ATOM     16  C   UNL     1       2.738   2.712  20.465  0.00  0.00    +0.000 A 
ATOM     17  C   UNL     1       3.931   3.139  19.881  0.00  0.00    +0.000 A 
BRANCH  17  18
ATOM     18  O   UNL     1       4.981   2.270  19.763  0.00  0.00    +0.000 OA
ATOM     19  H   UNL     1       4.658   1.364  19.895  0.00  0.00    +0.000 HD
ENDBRANCH  17  18
ENDBRANCH   4  12
TORSDOF 2
ENDMDL
MODEL 3
REMARK VINA RESULT:      -7.5      1.214      1.650
REMARK  Name = 
REMARK  2 active torsions:
REMARK  status: ('A' for Active; 'I' for Inactive)
REMARK    1  A    between atoms: C_4  and  C_5
REMARK    2  A    between atoms: C_10  and  O_11
REMARK                            x       y       z     vdW  Elec       q    Type
REMARK                         _______ _______ _______ _____ _____    ______ ____
ROOT
ATOM      1  O   UNL     1       7.638   6.327  16.403  0.00  0.00    +0.000 OA
ATOM      2  C   UNL     1       6.850   5.521  15.948  0.00  0.00    +0.000 C 
ATOM      3  C   UNL     1       5.707   4.869  16.656  0.00  0.00    +0.000 C 
ATOM      4  C   UNL     1       5.362   5.184  17.912  0.00  0.00    +0.000 C 
ATOM      5  C   UNL     1       5.047   3.897  15.713  0.00  0.00    +0.000 C 
ATOM      6  C   UNL     1       5.819   4.066  14.440  0.00  0.00    +0.000 A 
ATOM      7  C   UNL     1       5.609   3.428  13.229  0.00  0.00    +0.000 A 
ATOM      8  C   UNL     1       6.457   3.736  12.162  0.00  0.00    +0.000 A 
ATOM      9  C   UNL     1       7.500   4.668  12.313  0.00  0.00    +0.000 A 
ATOM     10  C   UNL     1       7.709   5.308  13.538  0.00  0.00    +0.000 A 
ATOM     11  C   UNL     1       6.856   4.990  14.579  0.00  0.00    +0.000 A 
ENDROOT
BRANCH   4  12
ATOM     12  C   UNL     1       4.220   4.569  18.596  0.00  0.00    +0.000 A 
ATOM     13  C   UNL     1       4.389   3.337  19.238  0.00  0.00    +0.000 A 
ATOM     14  C   UNL     1       3.323   2.743  19.921  0.00  0.00    +0.000 A 
ATOM     15  C   UNL     1       2.082   3.377  19.965  0.00  0.00    +0.000 A 
ATOM     16  C   UNL     1       1.895   4.595  19.310  0.00  0.00    +0.000 A 
ATOM     17  C   UNL     1       2.960   5.182  18.624  0.00  0.00    +0.000 A 
BRANCH  17  18
ATOM     18  O   UNL     1       2.773   6.365  17.962  0.00  0.00    +0.000 OA
ATOM     19  H   UNL     1       3.602   6.617  17.526  0.00  0.00    +0.000 HD
ENDBRANCH  17  18
ENDBRANCH   4  12
TORSDOF 2
ENDMDL
MODEL 4
REMARK VINA RESULT:      -7.4      1.663      2.131
REMARK  Name = 
REMARK  2 active torsions:
REMARK  status: ('A' for Active; 'I' for Inactive)
REMARK    1  A    between atoms: C_4  and  C_5
REMARK    2  A    between atoms: C_10  and  O_11
REMARK                            x       y       z     vdW  Elec       q    Type
REMARK                         _______ _______ _______ _____ _____    ______ ____
ROOT
ATOM      1  O   UNL     1       7.506   5.383  18.184  0.00  0.00    +0.000 OA
ATOM      2  C   UNL     1       6.590   4.943  17.516  0.00  0.00    +0.000 C 
ATOM      3  C   UNL     1       5.250   4.493  18.000  0.00  0.00    +0.000 C 
ATOM      4  C   UNL     1       4.867   4.610  19.279  0.00  0.00    +0.000 C 
ATOM      5  C   UNL     1       4.466   3.968  16.825  0.00  0.00    +0.000 C 
ATOM      6  C   UNL     1       5.385   4.190  15.664  0.00  0.00    +0.000 A 
ATOM      7  C   UNL     1       5.146   3.913  14.327  0.00  0.00    +0.000 A 
ATOM      8  C   UNL     1       6.154   4.200  13.402  0.00  0.00    +0.000 A 
ATOM      9  C   UNL     1       7.379   4.754  13.815  0.00  0.00    +0.000 A 
ATOM     10  C   UNL     1       7.615   5.030  15.164  0.00  0.00    +0.000 A 
ATOM     11  C   UNL     1       6.604   4.741  16.062  0.00  0.00    +0.000 A 
ENDROOT
BRANCH   4  12
ATOM     12  C   UNL     1       3.540   4.199  19.747  0.00  0.00    +0.000 A 
ATOM     13  C   UNL     1       3.230   2.836  19.820  0.00  0.00    +0.000 A 
ATOM     14  C   UNL     1       1.982   2.418  20.290  0.00  0.00    +0.000 A 
ATOM     15  C   UNL     1       1.034   3.360  20.689  0.00  0.00    +0.000 A 
ATOM     16  C   UNL     1       1.323   4.722  20.601  0.00  0.00    +0.000 A 
ATOM     17  C   UNL     1       2.568   5.137  20.125  0.00  0.00    +0.000 A 
BRANCH  17  18
ATOM     18  O   UNL     1       2.845   6.472  20.016  0.00  0.00    +0.000 OA
ATOM     19  H   UNL     1       3.686   6.658  20.464  0.00  0.00    +0.000 HD
ENDBRANCH  17  18
ENDBRANCH   4  12
TORSDOF 2
ENDMDL
MODEL 5
REMARK VINA RESULT:      -7.2      1.669      6.331
REMARK  Name = 
REMARK  2 active torsions:
REMARK  status: ('A' for Active; 'I' for Inactive)
REMARK    1  A    between atoms: C_4  and  C_5
REMARK    2  A    between atoms: C_10  and  O_11
REMARK                            x       y       z     vdW  Elec       q    Type
REMARK                         _______ _______ _______ _____ _____    ______ ____
ROOT
ATOM      1  O   UNL     1       2.954   7.007  18.779  0.00  0.00    +0.000 OA
ATOM      2  C   UNL     1       3.081   5.822  18.537  0.00  0.00    +0.000 C 
ATOM      3  C   UNL     1       3.881   5.202  17.437  0.00  0.00    +0.000 C 
ATOM      4  C   UNL     1       4.649   5.923  16.609  0.00  0.00    +0.000 C 
ATOM      5  C   UNL     1       3.693   3.708  17.489  0.00  0.00    +0.000 C 
ATOM      6  C   UNL     1       2.812   3.507  18.683  0.00  0.00    +0.000 A 
ATOM      7  C   UNL     1       2.352   2.310  19.207  0.00  0.00    +0.000 A 
ATOM      8  C   UNL     1       1.529   2.354  20.336  0.00  0.00    +0.000 A 
ATOM      9  C   UNL     1       1.175   3.581  20.926  0.00  0.00    +0.000 A 
ATOM     10  C   UNL     1       1.641   4.786  20.392  0.00  0.00    +0.000 A 
ATOM     11  C   UNL     1       2.456   4.719  19.277  0.00  0.00    +0.000 A 
ENDROOT
BRANCH   4  12
ATOM     12  C   UNL     1       5.460   5.312  15.551  0.00  0.00    +0.000 A 
ATOM     13  C   UNL     1       4.838   4.508  14.588  0.00  0.00    +0.000 A 
ATOM     14  C   UNL     1       5.585   3.937  13.554  0.00  0.00    +0.000 A 
ATOM     15  C   UNL     1       6.958   4.164  13.475  0.00  0.00    +0.000 A 
ATOM     16  C   UNL     1       7.593   4.946  14.442  0.00  0.00    +0.000 A 
ATOM     17  C   UNL     1       6.846   5.509  15.477  0.00  0.00    +0.000 A 
BRANCH  17  18
ATOM     18  O   UNL     1       7.470   6.257  16.438  0.00  0.00    +0.000 OA
ATOM     19  H   UNL     1       7.923   7.004  16.014  0.00  0.00    +0.000 HD
ENDBRANCH  17  18
ENDBRANCH   4  12
TORSDOF 2
ENDMDL
MODEL 6
REMARK VINA RESULT:      -7.1      3.293      6.541
REMARK  Name = 
REMARK  2 active torsions:
REMARK  status: ('A' for Active; 'I' for Inactive)
REMARK    1  A    between atoms: C_4  and  C_5
REMARK    2  A    between atoms: C_10  and  O_11
REMARK                            x       y       z     vdW  Elec       q    Type
REMARK                         _______ _______ _______ _____ _____    ______ ____
ROOT
ATOM      1  O   UNL     1       2.133   5.806  20.788  0.00  0.00    +0.000 OA
ATOM      2  C   UNL     1       2.412   6.508  19.836  0.00  0.00    +0.000 C 
ATOM      3  C   UNL     1       3.406   6.220  18.757  0.00  0.00    +0.000 C 
ATOM      4  C   UNL     1       4.070   5.059  18.678  0.00  0.00    +0.000 C 
ATOM      5  C   UNL     1       3.458   7.402  17.824  0.00  0.00    +0.000 C 
ATOM      6  C   UNL     1       2.425   8.333  18.379  0.00  0.00    +0.000 A 
ATOM      7  C   UNL     1       2.038   9.567  17.882  0.00  0.00    +0.000 A 
ATOM      8  C   UNL     1       1.048  10.276  18.567  0.00  0.00    +0.000 A 
ATOM      9  C   UNL     1       0.459   9.753  19.732  0.00  0.00    +0.000 A 
ATOM     10  C   UNL     1       0.854   8.509  20.231  0.00  0.00    +0.000 A 
ATOM     11  C   UNL     1       1.833   7.823  19.536  0.00  0.00    +0.000 A 
ENDROOT
BRANCH   4  12
ATOM     12  C   UNL     1       5.019   4.764  17.601  0.00  0.00    +0.000 A 
ATOM     13  C   UNL     1       4.534   4.473  16.320  0.00  0.00    +0.000 A 
ATOM     14  C   UNL     1       5.420   4.216  15.269  0.00  0.00    +0.000 A 
ATOM     15  C   UNL     1       6.796   4.247  15.492  0.00  0.00    +0.000 A 
ATOM     16  C   UNL     1       7.291   4.513  16.769  0.00  0.00    +0.000 A 
ATOM     17  C   UNL     1       6.405   4.763  17.818  0.00  0.00    +0.000 A 
BRANCH  17  18
ATOM     18  O   UNL     1       6.887   5.002  19.075  0.00  0.00    +0.000 OA
ATOM     19  H   UNL     1       6.283   5.606  19.537  0.00  0.00    +0.000 HD
ENDBRANCH  17  18
ENDBRANCH   4  12
TORSDOF 2
ENDMDL
MODEL 7
REMARK VINA RESULT:      -7.1      2.970      6.463
REMARK  Name = 
REMARK  2 active torsions:
REMARK  status: ('A' for Active; 'I' for Inactive)
REMARK    1  A    between atoms: C_4  and  C_5
REMARK    2  A    between atoms: C_10  and  O_11
REMARK                            x       y       z     vdW  Elec       q    Type
REMARK                         _______ _______ _______ _____ _____    ______ ____
ROOT
ATOM      1  O   UNL     1       4.298   2.479  17.172  0.00  0.00    +0.000 OA
ATOM      2  C   UNL     1       4.050   3.379  17.951  0.00  0.00    +0.000 C 
ATOM      3  C   UNL     1       4.877   4.594  18.225  0.00  0.00    +0.000 C 
ATOM      4  C   UNL     1       5.998   4.873  17.547  0.00  0.00    +0.000 C 
ATOM      5  C   UNL     1       4.205   5.398  19.308  0.00  0.00    +0.000 C 
ATOM      6  C   UNL     1       2.951   4.628  19.589  0.00  0.00    +0.000 A 
ATOM      7  C   UNL     1       1.944   4.943  20.487  0.00  0.00    +0.000 A 
ATOM      8  C   UNL     1       0.855   4.074  20.592  0.00  0.00    +0.000 A 
ATOM      9  C   UNL     1       0.782   2.907  19.810  0.00  0.00    +0.000 A 
ATOM     10  C   UNL     1       1.802   2.592  18.907  0.00  0.00    +0.000 A 
ATOM     11  C   UNL     1       2.868   3.468  18.817  0.00  0.00    +0.000 A 
ENDROOT
BRANCH   4  12
ATOM     12  C   UNL     1       6.790   6.081  17.794  0.00  0.00    +0.000 A 
ATOM     13  C   UNL     1       6.542   7.231  17.034  0.00  0.00    +0.000 A 
ATOM     14  C   UNL     1       7.264   8.405  17.269  0.00  0.00    +0.000 A 
ATOM     15  C   UNL     1       8.240   8.437  18.264  0.00  0.00    +0.000 A 
ATOM     16  C   UNL     1       8.513   7.291  19.013  0.00  0.00    +0.000 A 
ATOM     17  C   UNL     1       7.794   6.119  18.772  0.00  0.00    +0.000 A 
BRANCH  17  18
ATOM     18  O   UNL     1       8.075   4.989  19.489  0.00  0.00    +0.000 OA
ATOM     19  H   UNL     1       9.033   4.837  19.479  0.00  0.00    +0.000 HD
ENDBRANCH  17  18
ENDBRANCH   4  12
TORSDOF 2
ENDMDL
MODEL 8
REMARK VINA RESULT:      -7.1      1.713      6.227
REMARK  Name = 
REMARK  2 active torsions:
REMARK  status: ('A' for Active; 'I' for Inactive)
REMARK    1  A    between atoms: C_4  and  C_5
REMARK    2  A    between atoms: C_10  and  O_11
REMARK                            x       y       z     vdW  Elec       q    Type
REMARK                         _______ _______ _______ _____ _____    ______ ____
ROOT
ATOM      1  O   UNL     1       4.592   3.521  18.884  0.00  0.00    +0.000 OA
ATOM      2  C   UNL     1       4.423   4.507  18.192  0.00  0.00    +0.000 C 
ATOM      3  C   UNL     1       4.982   4.765  16.830  0.00  0.00    +0.000 C 
ATOM      4  C   UNL     1       5.701   3.854  16.160  0.00  0.00    +0.000 C 
ATOM      5  C   UNL     1       4.556   6.141  16.388  0.00  0.00    +0.000 C 
ATOM      6  C   UNL     1       3.696   6.620  17.517  0.00  0.00    +0.000 A 
ATOM      7  C   UNL     1       3.016   7.823  17.615  0.00  0.00    +0.000 A 
ATOM      8  C   UNL     1       2.267   8.069  18.770  0.00  0.00    +0.000 A 
ATOM      9  C   UNL     1       2.207   7.121  19.807  0.00  0.00    +0.000 A 
ATOM     10  C   UNL     1       2.896   5.910  19.704  0.00  0.00    +0.000 A 
ATOM     11  C   UNL     1       3.627   5.686  18.552  0.00  0.00    +0.000 A 
ENDROOT
BRANCH   4  12
ATOM     12  C   UNL     1       6.221   4.095  14.811  0.00  0.00    +0.000 A 
ATOM     13  C   UNL     1       5.708   3.358  13.736  0.00  0.00    +0.000 A 
ATOM     14  C   UNL     1       6.167   3.590  12.436  0.00  0.00    +0.000 A 
ATOM     15  C   UNL     1       7.142   4.558  12.201  0.00  0.00    +0.000 A 
ATOM     16  C   UNL     1       7.678   5.284  13.267  0.00  0.00    +0.000 A 
ATOM     17  C   UNL     1       7.222   5.046  14.564  0.00  0.00    +0.000 A 
BRANCH  17  18
ATOM     18  O   UNL     1       7.761   5.740  15.613  0.00  0.00    +0.000 OA
ATOM     19  H   UNL     1       7.948   6.649  15.328  0.00  0.00    +0.000 HD
ENDBRANCH  17  18
ENDBRANCH   4  12
TORSDOF 2
ENDMDL
MODEL 9
REMARK VINA RESULT:      -7.1      2.870      6.580
REMARK  Name = 
REMARK  2 active torsions:
REMARK  status: ('A' for Active; 'I' for Inactive)
REMARK    1  A    between atoms: C_4  and  C_5
REMARK    2  A    between atoms: C_10  and  O_11
REMARK                            x       y       z     vdW  Elec       q    Type
REMARK                         _______ _______ _______ _____ _____    ______ ____
ROOT
ATOM      1  O   UNL     1       4.318   2.008  17.358  0.00  0.00    +0.000 OA
ATOM      2  C   UNL     1       4.006   2.968  18.036  0.00  0.00    +0.000 C 
ATOM      3  C   UNL     1       4.806   4.208  18.273  0.00  0.00    +0.000 C 
ATOM      4  C   UNL     1       5.978   4.438  17.667  0.00  0.00    +0.000 C 
ATOM      5  C   UNL     1       4.047   5.094  19.227  0.00  0.00    +0.000 C 
ATOM      6  C   UNL     1       2.776   4.340  19.470  0.00  0.00    +0.000 A 
ATOM      7  C   UNL     1       1.699   4.721  20.253  0.00  0.00    +0.000 A 
ATOM      8  C   UNL     1       0.606   3.854  20.343  0.00  0.00    +0.000 A 
ATOM      9  C   UNL     1       0.599   2.626  19.658  0.00  0.00    +0.000 A 
ATOM     10  C   UNL     1       1.689   2.245  18.870  0.00  0.00    +0.000 A 
ATOM     11  C   UNL     1       2.758   3.119  18.793  0.00  0.00    +0.000 A 
ENDROOT
BRANCH   4  12
ATOM     12  C   UNL     1       6.746   5.670  17.874  0.00  0.00    +0.000 A 
ATOM     13  C   UNL     1       7.649   5.743  18.942  0.00  0.00    +0.000 A 
ATOM     14  C   UNL     1       8.414   6.895  19.145  0.00  0.00    +0.000 A 
ATOM     15  C   UNL     1       8.281   7.983  18.282  0.00  0.00    +0.000 A 
ATOM     16  C   UNL     1       7.369   7.930  17.227  0.00  0.00    +0.000 A 
ATOM     17  C   UNL     1       6.602   6.781  17.031  0.00  0.00    +0.000 A 
BRANCH  17  18
ATOM     18  O   UNL     1       5.692   6.736  16.011  0.00  0.00    +0.000 OA
ATOM     19  H   UNL     1       6.165   6.738  15.164  0.00  0.00    +0.000 HD
ENDBRANCH  17  18
ENDBRANCH   4  12
TORSDOF 2
ENDMDL
