MODEL 1
REMARK VINA RESULT:      -6.5      0.000      0.000
REMARK  Name = 
REMARK  10 active torsions:
REMARK  status: ('A' for Active; 'I' for Inactive)
REMARK    1  A    between atoms: C_1  and  C_2
REMARK    2  A    between atoms: C_6  and  C_7
REMARK    3  A    between atoms: C_10  and  N_11
REMARK    4  A    between atoms: C_15  and  N_16
REMARK    5  A    between atoms: N_16  and  C_17
REMARK    6  A    between atoms: C_17  and  C_18
REMARK    7  A    between atoms: C_18  and  C_19
REMARK    8  A    between atoms: C_19  and  N_20
REMARK    9  A    between atoms: N_20  and  C_21
REMARK   10  A    between atoms: N_20  and  C_22
REMARK                            x       y       z     vdW  Elec       q    Type
REMARK                         _______ _______ _______ _____ _____    ______ ____
ROOT
ATOM      1  C   UNL     1       5.235   6.854  16.109  0.00  0.00    +0.000 C 
ATOM      2  C   UNL     1       4.439   6.365  17.283  0.00  0.00    +0.000 A 
ATOM      3  C   UNL     1       3.597   7.304  17.857  0.00  0.00    +0.000 A 
ATOM      4  N   UNL     1       2.774   7.067  18.879  0.00  0.00    +0.000 NA
ATOM      5  C   UNL     1       2.732   5.849  19.419  0.00  0.00    +0.000 A 
ATOM      6  C   UNL     1       1.850   5.711  20.507  0.00  0.00    +0.000 A 
ATOM      7  C   UNL     1       1.013   6.868  20.999  0.00  0.00    +0.000 C 
ATOM      8  C   UNL     1       1.711   4.494  21.179  0.00  0.00    +0.000 A 
ATOM      9  C   UNL     1       2.462   3.412  20.789  0.00  0.00    +0.000 A 
ATOM     10  C   UNL     1       3.345   3.548  19.702  0.00  0.00    +0.000 A 
ATOM     11  C   UNL     1       3.526   4.769  18.956  0.00  0.00    +0.000 A 
ATOM     12  C   UNL     1       4.408   5.051  17.810  0.00  0.00    +0.000 A 
ENDROOT
BRANCH  10  13
ATOM     13  N   UNL     1       4.076   2.336  19.389  0.00  0.00    +0.000 N 
ATOM     14  O   UNL     1       5.125   2.126  20.020  0.00  0.00    +0.000 OA
ATOM     15  O   UNL     1       3.563   1.553  18.575  0.00  0.00    +0.000 OA
ENDBRANCH  10  13
BRANCH  12  16
ATOM     16  N   UNL     1       5.237   4.033  17.345  0.00  0.00    +0.000 N 
ATOM     17  H   UNL     1       5.824   3.571  18.045  0.00  0.00    +0.000 HD
BRANCH  16  18
ATOM     18  C   UNL     1       5.157   3.324  16.082  0.00  0.00    +0.000 C 
BRANCH  18  19
ATOM     19  C   UNL     1       6.329   3.701  15.178  0.00  0.00    +0.000 C 
BRANCH  19  20
ATOM     20  C   UNL     1       5.796   4.250  13.850  0.00  0.00    +0.000 C 
BRANCH  20  21
ATOM     21  N   UNL     1       5.975   3.346  12.703  0.00  0.00    +0.000 NA
ATOM     22  C   UNL     1       4.766   3.242  11.883  0.00  0.00    +0.000 C 
ATOM     23  C   UNL     1       7.090   3.823  11.879  0.00  0.00    +0.000 C 
ENDBRANCH  20  21
ENDBRANCH  19  20
ENDBRANCH  18  19
ENDBRANCH  16  18
ENDBRANCH  12  16
TORSDOF 6
ENDMDL
MODEL 2
REMARK VINA RESULT:      -6.4      0.800      1.096
REMARK  Name = 
REMARK  10 active torsions:
REMARK  status: ('A' for Active; 'I' for Inactive)
REMARK    1  A    between atoms: C_1  and  C_2
REMARK    2  A    between atoms: C_6  and  C_7
REMARK    3  A    between atoms: C_10  and  N_11
REMARK    4  A    between atoms: C_15  and  N_16
REMARK    5  A    between atoms: N_16  and  C_17
REMARK    6  A    between atoms: C_17  and  C_18
REMARK    7  A    between atoms: C_18  and  C_19
REMARK    8  A    between atoms: C_19  and  N_20
REMARK    9  A    between atoms: N_20  and  C_21
REMARK   10  A    between atoms: N_20  and  C_22
REMARK                            x       y       z     vdW  Elec       q    Type
REMARK                         _______ _______ _______ _____ _____    ______ ____
ROOT
ATOM      1  C   UNL     1       5.092   7.028  15.852  0.00  0.00    +0.000 C 
ATOM      2  C   UNL     1       4.249   6.494  16.973  0.00  0.00    +0.000 A 
ATOM      3  C   UNL     1       3.716   7.454  17.818  0.00  0.00    +0.000 A 
ATOM      4  N   UNL     1       2.907   7.200  18.848  0.00  0.00    +0.000 NA
ATOM      5  C   UNL     1       2.567   5.939  19.118  0.00  0.00    +0.000 A 
ATOM      6  C   UNL     1       1.731   5.777  20.239  0.00  0.00    +0.000 A 
ATOM      7  C   UNL     1       1.256   6.959  21.050  0.00  0.00    +0.000 C 
ATOM      8  C   UNL     1       1.304   4.511  20.649  0.00  0.00    +0.000 A 
ATOM      9  C   UNL     1       1.720   3.397  19.962  0.00  0.00    +0.000 A 
ATOM     10  C   UNL     1       2.557   3.558  18.842  0.00  0.00    +0.000 A 
ATOM     11  C   UNL     1       3.022   4.833  18.356  0.00  0.00    +0.000 A 
ATOM     12  C   UNL     1       3.894   5.145  17.210  0.00  0.00    +0.000 A 
ENDROOT
BRANCH  10  13
ATOM     13  N   UNL     1       2.923   2.308  18.204  0.00  0.00    +0.000 N 
ATOM     14  O   UNL     1       2.298   1.988  17.180  0.00  0.00    +0.000 OA
ATOM     15  O   UNL     1       3.888   1.687  18.675  0.00  0.00    +0.000 OA
ENDBRANCH  10  13
BRANCH  12  16
ATOM     16  N   UNL     1       4.399   4.088  16.455  0.00  0.00    +0.000 N 
ATOM     17  H   UNL     1       3.814   3.767  15.679  0.00  0.00    +0.000 HD
BRANCH  16  18
ATOM     18  C   UNL     1       5.761   3.592  16.414  0.00  0.00    +0.000 C 
BRANCH  18  19
ATOM     19  C   UNL     1       6.446   4.006  15.113  0.00  0.00    +0.000 C 
BRANCH  19  20
ATOM     20  C   UNL     1       5.419   4.014  13.975  0.00  0.00    +0.000 C 
BRANCH  20  21
ATOM     21  N   UNL     1       5.863   3.328  12.751  0.00  0.00    +0.000 NA
ATOM     22  C   UNL     1       4.792   3.211  11.759  0.00  0.00    +0.000 C 
ATOM     23  C   UNL     1       6.996   4.056  12.171  0.00  0.00    +0.000 C 
ENDBRANCH  20  21
ENDBRANCH  19  20
ENDBRANCH  18  19
ENDBRANCH  16  18
ENDBRANCH  12  16
TORSDOF 6
ENDMDL
MODEL 3
REMARK VINA RESULT:      -6.4      1.735      2.989
REMARK  Name = 
REMARK  10 active torsions:
REMARK  status: ('A' for Active; 'I' for Inactive)
REMARK    1  A    between atoms: C_1  and  C_2
REMARK    2  A    between atoms: C_6  and  C_7
REMARK    3  A    between atoms: C_10  and  N_11
REMARK    4  A    between atoms: C_15  and  N_16
REMARK    5  A    between atoms: N_16  and  C_17
REMARK    6  A    between atoms: C_17  and  C_18
REMARK    7  A    between atoms: C_18  and  C_19
REMARK    8  A    between atoms: C_19  and  N_20
REMARK    9  A    between atoms: N_20  and  C_21
REMARK   10  A    between atoms: N_20  and  C_22
REMARK                            x       y       z     vdW  Elec       q    Type
REMARK                         _______ _______ _______ _____ _____    ______ ____
ROOT
ATOM      1  C   UNL     1       4.905   6.940  15.754  0.00  0.00    +0.000 C 
ATOM      2  C   UNL     1       4.203   6.515  17.010  0.00  0.00    +0.000 A 
ATOM      3  C   UNL     1       3.391   7.479  17.586  0.00  0.00    +0.000 A 
ATOM      4  N   UNL     1       2.646   7.297  18.678  0.00  0.00    +0.000 NA
ATOM      5  C   UNL     1       2.662   6.113  19.292  0.00  0.00    +0.000 A 
ATOM      6  C   UNL     1       1.863   6.033  20.448  0.00  0.00    +0.000 A 
ATOM      7  C   UNL     1       1.045   7.209  20.928  0.00  0.00    +0.000 C 
ATOM      8  C   UNL     1       1.790   4.858  21.200  0.00  0.00    +0.000 A 
ATOM      9  C   UNL     1       2.528   3.762  20.824  0.00  0.00    +0.000 A 
ATOM     10  C   UNL     1       3.328   3.841  19.669  0.00  0.00    +0.000 A 
ATOM     11  C   UNL     1       3.437   5.015  18.839  0.00  0.00    +0.000 A 
ATOM     12  C   UNL     1       4.230   5.236  17.618  0.00  0.00    +0.000 A 
ENDROOT
BRANCH  10  13
ATOM     13  N   UNL     1       4.053   2.619  19.378  0.00  0.00    +0.000 N 
ATOM     14  O   UNL     1       3.552   1.845  18.546  0.00  0.00    +0.000 OA
ATOM     15  O   UNL     1       5.161   2.470  19.915  0.00  0.00    +0.000 OA
ENDBRANCH  10  13
BRANCH  12  16
ATOM     16  N   UNL     1       5.038   4.200  17.156  0.00  0.00    +0.000 N 
ATOM     17  H   UNL     1       4.906   3.288  17.603  0.00  0.00    +0.000 HD
BRANCH  16  18
ATOM     18  C   UNL     1       5.809   4.149  15.928  0.00  0.00    +0.000 C 
BRANCH  18  19
ATOM     19  C   UNL     1       7.225   4.676  16.159  0.00  0.00    +0.000 C 
BRANCH  19  20
ATOM     20  C   UNL     1       7.603   4.496  17.633  0.00  0.00    +0.000 C 
BRANCH  20  21
ATOM     21  N   UNL     1       7.327   5.668  18.478  0.00  0.00    +0.000 NA
ATOM     22  C   UNL     1       7.989   5.582  19.782  0.00  0.00    +0.000 C 
ATOM     23  C   UNL     1       7.763   6.882  17.782  0.00  0.00    +0.000 C 
ENDBRANCH  20  21
ENDBRANCH  19  20
ENDBRANCH  18  19
ENDBRANCH  16  18
ENDBRANCH  12  16
TORSDOF 6
ENDMDL
MODEL 4
REMARK VINA RESULT:      -6.3      1.952      3.107
REMARK  Name = 
REMARK  10 active torsions:
REMARK  status: ('A' for Active; 'I' for Inactive)
REMARK    1  A    between atoms: C_1  and  C_2
REMARK    2  A    between atoms: C_6  and  C_7
REMARK    3  A    between atoms: C_10  and  N_11
REMARK    4  A    between atoms: C_15  and  N_16
REMARK    5  A    between atoms: N_16  and  C_17
REMARK    6  A    between atoms: C_17  and  C_18
REMARK    7  A    between atoms: C_18  and  C_19
REMARK    8  A    between atoms: C_19  and  N_20
REMARK    9  A    between atoms: N_20  and  C_21
REMARK   10  A    between atoms: N_20  and  C_22
REMARK                            x       y       z     vdW  Elec       q    Type
REMARK                         _______ _______ _______ _____ _____    ______ ____
ROOT
ATOM      1  C   UNL     1       4.939   7.011  15.744  0.00  0.00    +0.000 C 
ATOM      2  C   UNL     1       4.132   6.531  16.914  0.00  0.00    +0.000 A 
ATOM      3  C   UNL     1       3.643   7.529  17.742  0.00  0.00    +0.000 A 
ATOM      4  N   UNL     1       2.869   7.324  18.809  0.00  0.00    +0.000 NA
ATOM      5  C   UNL     1       2.523   6.080  19.139  0.00  0.00    +0.000 A 
ATOM      6  C   UNL     1       1.727   5.971  20.294  0.00  0.00    +0.000 A 
ATOM      7  C   UNL     1       1.298   7.189  21.078  0.00  0.00    +0.000 C 
ATOM      8  C   UNL     1       1.298   4.728  20.766  0.00  0.00    +0.000 A 
ATOM      9  C   UNL     1       1.674   3.583  20.107  0.00  0.00    +0.000 A 
ATOM     10  C   UNL     1       2.471   3.690  18.952  0.00  0.00    +0.000 A 
ATOM     11  C   UNL     1       2.935   4.940  18.402  0.00  0.00    +0.000 A 
ATOM     12  C   UNL     1       3.767   5.196  17.214  0.00  0.00    +0.000 A 
ENDROOT
BRANCH  10  13
ATOM     13  N   UNL     1       2.797   2.412  18.348  0.00  0.00    +0.000 N 
ATOM     14  O   UNL     1       2.128   2.063  17.361  0.00  0.00    +0.000 OA
ATOM     15  O   UNL     1       3.771   1.795  18.805  0.00  0.00    +0.000 OA
ENDBRANCH  10  13
BRANCH  12  16
ATOM     16  N   UNL     1       4.230   4.105  16.481  0.00  0.00    +0.000 N 
ATOM     17  H   UNL     1       3.593   3.735  15.770  0.00  0.00    +0.000 HD
BRANCH  16  18
ATOM     18  C   UNL     1       5.593   3.623  16.364  0.00  0.00    +0.000 C 
BRANCH  18  19
ATOM     19  C   UNL     1       6.375   3.898  17.647  0.00  0.00    +0.000 C 
BRANCH  19  20
ATOM     20  C   UNL     1       7.543   4.842  17.341  0.00  0.00    +0.000 C 
BRANCH  20  21
ATOM     21  N   UNL     1       7.815   5.832  18.394  0.00  0.00    +0.000 NA
ATOM     22  C   UNL     1       7.699   7.208  17.907  0.00  0.00    +0.000 C 
ATOM     23  C   UNL     1       6.885   5.623  19.509  0.00  0.00    +0.000 C 
ENDBRANCH  20  21
ENDBRANCH  19  20
ENDBRANCH  18  19
ENDBRANCH  16  18
ENDBRANCH  12  16
TORSDOF 6
ENDMDL
MODEL 5
REMARK VINA RESULT:      -6.0      1.074      1.532
REMARK  Name = 
REMARK  10 active torsions:
REMARK  status: ('A' for Active; 'I' for Inactive)
REMARK    1  A    between atoms: C_1  and  C_2
REMARK    2  A    between atoms: C_6  and  C_7
REMARK    3  A    between atoms: C_10  and  N_11
REMARK    4  A    between atoms: C_15  and  N_16
REMARK    5  A    between atoms: N_16  and  C_17
REMARK    6  A    between atoms: C_17  and  C_18
REMARK    7  A    between atoms: C_18  and  C_19
REMARK    8  A    between atoms: C_19  and  N_20
REMARK    9  A    between atoms: N_20  and  C_21
REMARK   10  A    between atoms: N_20  and  C_22
REMARK                            x       y       z     vdW  Elec       q    Type
REMARK                         _______ _______ _______ _____ _____    ______ ____
ROOT
ATOM      1  C   UNL     1       4.925   7.086  15.852  0.00  0.00    +0.000 C 
ATOM      2  C   UNL     1       4.118   6.578  17.010  0.00  0.00    +0.000 A 
ATOM      3  C   UNL     1       3.580   7.558  17.829  0.00  0.00    +0.000 A 
ATOM      4  N   UNL     1       2.797   7.326  18.885  0.00  0.00    +0.000 NA
ATOM      5  C   UNL     1       2.492   6.069  19.211  0.00  0.00    +0.000 A 
ATOM      6  C   UNL     1       1.684   5.932  20.354  0.00  0.00    +0.000 A 
ATOM      7  C   UNL     1       1.197   7.135  21.129  0.00  0.00    +0.000 C 
ATOM      8  C   UNL     1       1.294   4.675  20.822  0.00  0.00    +0.000 A 
ATOM      9  C   UNL     1       1.723   3.544  20.170  0.00  0.00    +0.000 A 
ATOM     10  C   UNL     1       2.532   3.679  19.027  0.00  0.00    +0.000 A 
ATOM     11  C   UNL     1       2.958   4.945  18.483  0.00  0.00    +0.000 A 
ATOM     12  C   UNL     1       3.799   5.231  17.308  0.00  0.00    +0.000 A 
ENDROOT
BRANCH  10  13
ATOM     13  N   UNL     1       2.915   2.414  18.431  0.00  0.00    +0.000 N 
ATOM     14  O   UNL     1       2.298   2.055  17.414  0.00  0.00    +0.000 OA
ATOM     15  O   UNL     1       3.884   1.818  18.926  0.00  0.00    +0.000 OA
ENDBRANCH  10  13
BRANCH  12  16
ATOM     16  N   UNL     1       4.313   4.157  16.584  0.00  0.00    +0.000 N 
ATOM     17  H   UNL     1       3.714   3.782  15.843  0.00  0.00    +0.000 HD
BRANCH  16  18
ATOM     18  C   UNL     1       5.689   3.703  16.518  0.00  0.00    +0.000 C 
BRANCH  18  19
ATOM     19  C   UNL     1       6.145   3.575  15.065  0.00  0.00    +0.000 C 
BRANCH  19  20
ATOM     20  C   UNL     1       7.081   4.739  14.720  0.00  0.00    +0.000 C 
BRANCH  20  21
ATOM     21  N   UNL     1       7.081   5.117  13.298  0.00  0.00    +0.000 NA
ATOM     22  C   UNL     1       8.392   5.593  12.849  0.00  0.00    +0.000 C 
ATOM     23  C   UNL     1       6.671   3.964  12.490  0.00  0.00    +0.000 C 
ENDBRANCH  20  21
ENDBRANCH  19  20
ENDBRANCH  18  19
ENDBRANCH  16  18
ENDBRANCH  12  16
TORSDOF 6
ENDMDL
MODEL 6
REMARK VINA RESULT:      -6.0      0.903      1.182
REMARK  Name = 
REMARK  10 active torsions:
REMARK  status: ('A' for Active; 'I' for Inactive)
REMARK    1  A    between atoms: C_1  and  C_2
REMARK    2  A    between atoms: C_6  and  C_7
REMARK    3  A    between atoms: C_10  and  N_11
REMARK    4  A    between atoms: C_15  and  N_16
REMARK    5  A    between atoms: N_16  and  C_17
REMARK    6  A    between atoms: C_17  and  C_18
REMARK    7  A    between atoms: C_18  and  C_19
REMARK    8  A    between atoms: C_19  and  N_20
REMARK    9  A    between atoms: N_20  and  C_21
REMARK   10  A    between atoms: N_20  and  C_22
REMARK                            x       y       z     vdW  Elec       q    Type
REMARK                         _______ _______ _______ _____ _____    ______ ____
ROOT
ATOM      1  C   UNL     1       5.367   7.070  16.162  0.00  0.00    +0.000 C 
ATOM      2  C   UNL     1       4.519   6.599  17.307  0.00  0.00    +0.000 A 
ATOM      3  C   UNL     1       3.626   7.536  17.803  0.00  0.00    +0.000 A 
ATOM      4  N   UNL     1       2.753   7.312  18.788  0.00  0.00    +0.000 NA
ATOM      5  C   UNL     1       2.711   6.111  19.365  0.00  0.00    +0.000 A 
ATOM      6  C   UNL     1       1.774   5.986  20.408  0.00  0.00    +0.000 A 
ATOM      7  C   UNL     1       0.885   7.137  20.815  0.00  0.00    +0.000 C 
ATOM      8  C   UNL     1       1.627   4.788  21.112  0.00  0.00    +0.000 A 
ATOM      9  C   UNL     1       2.423   3.713  20.800  0.00  0.00    +0.000 A 
ATOM     10  C   UNL     1       3.360   3.836  19.758  0.00  0.00    +0.000 A 
ATOM     11  C   UNL     1       3.554   5.036  18.982  0.00  0.00    +0.000 A 
ATOM     12  C   UNL     1       4.490   5.303  17.877  0.00  0.00    +0.000 A 
ENDROOT
BRANCH  10  13
ATOM     13  N   UNL     1       4.135   2.633  19.526  0.00  0.00    +0.000 N 
ATOM     14  O   UNL     1       5.103   2.426  20.276  0.00  0.00    +0.000 OA
ATOM     15  O   UNL     1       3.731   1.852  18.650  0.00  0.00    +0.000 OA
ENDBRANCH  10  13
BRANCH  12  16
ATOM     16  N   UNL     1       5.366   4.291  17.491  0.00  0.00    +0.000 N 
ATOM     17  H   UNL     1       4.970   3.546  16.911  0.00  0.00    +0.000 HD
BRANCH  16  18
ATOM     18  C   UNL     1       6.816   4.304  17.528  0.00  0.00    +0.000 C 
BRANCH  18  19
ATOM     19  C   UNL     1       7.390   4.370  16.113  0.00  0.00    +0.000 C 
BRANCH  19  20
ATOM     20  C   UNL     1       6.398   3.741  15.129  0.00  0.00    +0.000 C 
BRANCH  20  21
ATOM     21  N   UNL     1       6.260   4.468  13.858  0.00  0.00    +0.000 NA
ATOM     22  C   UNL     1       7.471   5.214  13.509  0.00  0.00    +0.000 C 
ATOM     23  C   UNL     1       5.941   3.517  12.787  0.00  0.00    +0.000 C 
ENDBRANCH  20  21
ENDBRANCH  19  20
ENDBRANCH  18  19
ENDBRANCH  16  18
ENDBRANCH  12  16
TORSDOF 6
ENDMDL
MODEL 7
REMARK VINA RESULT:      -6.0      2.746      7.049
REMARK  Name = 
REMARK  10 active torsions:
REMARK  status: ('A' for Active; 'I' for Inactive)
REMARK    1  A    between atoms: C_1  and  C_2
REMARK    2  A    between atoms: C_6  and  C_7
REMARK    3  A    between atoms: C_10  and  N_11
REMARK    4  A    between atoms: C_15  and  N_16
REMARK    5  A    between atoms: N_16  and  C_17
REMARK    6  A    between atoms: C_17  and  C_18
REMARK    7  A    between atoms: C_18  and  C_19
REMARK    8  A    between atoms: C_19  and  N_20
REMARK    9  A    between atoms: N_20  and  C_21
REMARK   10  A    between atoms: N_20  and  C_22
REMARK                            x       y       z     vdW  Elec       q    Type
REMARK                         _______ _______ _______ _____ _____    ______ ____
ROOT
ATOM      1  C   UNL     1       2.278   9.266  18.106  0.00  0.00    +0.000 C 
ATOM      2  C   UNL     1       2.748   7.842  18.061  0.00  0.00    +0.000 A 
ATOM      3  C   UNL     1       3.668   7.556  17.065  0.00  0.00    +0.000 A 
ATOM      4  N   UNL     1       4.244   6.367  16.877  0.00  0.00    +0.000 NA
ATOM      5  C   UNL     1       3.934   5.353  17.684  0.00  0.00    +0.000 A 
ATOM      6  C   UNL     1       4.576   4.137  17.385  0.00  0.00    +0.000 A 
ATOM      7  C   UNL     1       5.553   4.019  16.238  0.00  0.00    +0.000 C 
ATOM      8  C   UNL     1       4.339   2.985  18.138  0.00  0.00    +0.000 A 
ATOM      9  C   UNL     1       3.445   3.027  19.181  0.00  0.00    +0.000 A 
ATOM     10  C   UNL     1       2.801   4.241  19.481  0.00  0.00    +0.000 A 
ATOM     11  C   UNL     1       3.011   5.469  18.755  0.00  0.00    +0.000 A 
ATOM     12  C   UNL     1       2.409   6.798  18.956  0.00  0.00    +0.000 A 
ENDROOT
BRANCH  10  13
ATOM     13  N   UNL     1       1.886   4.154  20.603  0.00  0.00    +0.000 N 
ATOM     14  O   UNL     1       2.363   4.306  21.739  0.00  0.00    +0.000 OA
ATOM     15  O   UNL     1       0.680   4.017  20.347  0.00  0.00    +0.000 OA
ENDBRANCH  10  13
BRANCH  12  16
ATOM     16  N   UNL     1       1.467   6.952  19.970  0.00  0.00    +0.000 N 
ATOM     17  H   UNL     1       0.716   6.256  20.001  0.00  0.00    +0.000 HD
BRANCH  16  18
ATOM     18  C   UNL     1       1.571   7.762  21.170  0.00  0.00    +0.000 C 
BRANCH  18  19
ATOM     19  C   UNL     1       0.375   8.706  21.288  0.00  0.00    +0.000 C 
BRANCH  19  20
ATOM     20  C   UNL     1       0.875  10.143  21.473  0.00  0.00    +0.000 C 
BRANCH  20  21
ATOM     21  N   UNL     1      -0.074  11.032  22.160  0.00  0.00    +0.000 NA
ATOM     22  C   UNL     1      -1.002  11.679  21.229  0.00  0.00    +0.000 C 
ATOM     23  C   UNL     1      -0.828  10.262  23.154  0.00  0.00    +0.000 C 
ENDBRANCH  20  21
ENDBRANCH  19  20
ENDBRANCH  18  19
ENDBRANCH  16  18
ENDBRANCH  12  16
TORSDOF 6
ENDMDL
MODEL 8
REMARK VINA RESULT:      -5.8      4.805      7.061
REMARK  Name = 
REMARK  10 active torsions:
REMARK  status: ('A' for Active; 'I' for Inactive)
REMARK    1  A    between atoms: C_1  and  C_2
REMARK    2  A    between atoms: C_6  and  C_7
REMARK    3  A    between atoms: C_10  and  N_11
REMARK    4  A    between atoms: C_15  and  N_16
REMARK    5  A    between atoms: N_16  and  C_17
REMARK    6  A    between atoms: C_17  and  C_18
REMARK    7  A    between atoms: C_18  and  C_19
REMARK    8  A    between atoms: C_19  and  N_20
REMARK    9  A    between atoms: N_20  and  C_21
REMARK   10  A    between atoms: N_20  and  C_22
REMARK                            x       y       z     vdW  Elec       q    Type
REMARK                         _______ _______ _______ _____ _____    ______ ____
ROOT
ATOM      1  C   UNL     1       2.908   7.413  18.047  0.00  0.00    +0.000 C 
ATOM      2  C   UNL     1       2.112   8.550  18.616  0.00  0.00    +0.000 A 
ATOM      3  C   UNL     1       1.891   9.608  17.748  0.00  0.00    +0.000 A 
ATOM      4  N   UNL     1       1.174  10.695  18.037  0.00  0.00    +0.000 NA
ATOM      5  C   UNL     1       0.616  10.812  19.243  0.00  0.00    +0.000 A 
ATOM      6  C   UNL     1      -0.097  12.006  19.454  0.00  0.00    +0.000 A 
ATOM      7  C   UNL     1      -0.219  13.057  18.376  0.00  0.00    +0.000 C 
ATOM      8  C   UNL     1      -0.725  12.271  20.674  0.00  0.00    +0.000 A 
ATOM      9  C   UNL     1      -0.631  11.361  21.699  0.00  0.00    +0.000 A 
ATOM     10  C   UNL     1       0.083  10.166  21.489  0.00  0.00    +0.000 A 
ATOM     11  C   UNL     1       0.741   9.824  20.253  0.00  0.00    +0.000 A 
ATOM     12  C   UNL     1       1.516   8.623  19.899  0.00  0.00    +0.000 A 
ENDROOT
BRANCH  10  13
ATOM     13  N   UNL     1       0.106   9.291  22.645  0.00  0.00    +0.000 N 
ATOM     14  O   UNL     1      -0.735   8.378  22.683  0.00  0.00    +0.000 OA
ATOM     15  O   UNL     1       1.013   9.461  23.474  0.00  0.00    +0.000 OA
ENDBRANCH  10  13
BRANCH  12  16
ATOM     16  N   UNL     1       1.700   7.642  20.871  0.00  0.00    +0.000 N 
ATOM     17  H   UNL     1       2.049   7.964  21.778  0.00  0.00    +0.000 HD
BRANCH  16  18
ATOM     18  C   UNL     1       1.173   6.290  20.886  0.00  0.00    +0.000 C 
BRANCH  18  19
ATOM     19  C   UNL     1       2.290   5.275  20.651  0.00  0.00    +0.000 C 
BRANCH  19  20
ATOM     20  C   UNL     1       1.884   3.921  21.246  0.00  0.00    +0.000 C 
BRANCH  20  21
ATOM     21  N   UNL     1       2.045   2.782  20.329  0.00  0.00    +0.000 NA
ATOM     22  C   UNL     1       1.007   2.751  19.295  0.00  0.00    +0.000 C 
ATOM     23  C   UNL     1       3.367   2.849  19.699  0.00  0.00    +0.000 C 
ENDBRANCH  20  21
ENDBRANCH  19  20
ENDBRANCH  18  19
ENDBRANCH  16  18
ENDBRANCH  12  16
TORSDOF 6
ENDMDL
MODEL 9
REMARK VINA RESULT:      -5.8      4.932      7.274
REMARK  Name = 
REMARK  10 active torsions:
REMARK  status: ('A' for Active; 'I' for Inactive)
REMARK    1  A    between atoms: C_1  and  C_2
REMARK    2  A    between atoms: C_6  and  C_7
REMARK    3  A    between atoms: C_10  and  N_11
REMARK    4  A    between atoms: C_15  and  N_16
REMARK    5  A    between atoms: N_16  and  C_17
REMARK    6  A    between atoms: C_17  and  C_18
REMARK    7  A    between atoms: C_18  and  C_19
REMARK    8  A    between atoms: C_19  and  N_20
REMARK    9  A    between atoms: N_20  and  C_21
REMARK   10  A    between atoms: N_20  and  C_22
REMARK                            x       y       z     vdW  Elec       q    Type
REMARK                         _______ _______ _______ _____ _____    ______ ____
ROOT
ATOM      1  C   UNL     1       2.792   7.737  18.026  0.00  0.00    +0.000 C 
ATOM      2  C   UNL     1       2.000   8.839  18.667  0.00  0.00    +0.000 A 
ATOM      3  C   UNL     1       1.763   9.940  17.860  0.00  0.00    +0.000 A 
ATOM      4  N   UNL     1       1.046  11.008  18.217  0.00  0.00    +0.000 NA
ATOM      5  C   UNL     1       0.507  11.058  19.435  0.00  0.00    +0.000 A 
ATOM      6  C   UNL     1      -0.207  12.236  19.721  0.00  0.00    +0.000 A 
ATOM      7  C   UNL     1      -0.350  13.342  18.702  0.00  0.00    +0.000 C 
ATOM      8  C   UNL     1      -0.817  12.433  20.963  0.00  0.00    +0.000 A 
ATOM      9  C   UNL     1      -0.703  11.471  21.936  0.00  0.00    +0.000 A 
ATOM     10  C   UNL     1       0.011  10.292  21.653  0.00  0.00    +0.000 A 
ATOM     11  C   UNL     1       0.650  10.018  20.390  0.00  0.00    +0.000 A 
ATOM     12  C   UNL     1       1.424   8.841  19.961  0.00  0.00    +0.000 A 
ENDROOT
BRANCH  10  13
ATOM     13  N   UNL     1       0.055   9.356  22.760  0.00  0.00    +0.000 N 
ATOM     14  O   UNL     1       0.915   9.551  23.634  0.00  0.00    +0.000 OA
ATOM     15  O   UNL     1      -0.820   8.477  22.801  0.00  0.00    +0.000 OA
ENDBRANCH  10  13
BRANCH  12  16
ATOM     16  N   UNL     1       1.627   7.811  20.877  0.00  0.00    +0.000 N 
ATOM     17  H   UNL     1       2.033   8.079  21.778  0.00  0.00    +0.000 HD
BRANCH  16  18
ATOM     18  C   UNL     1       1.058   6.477  20.859  0.00  0.00    +0.000 C 
BRANCH  18  19
ATOM     19  C   UNL     1       2.145   5.430  20.621  0.00  0.00    +0.000 C 
BRANCH  19  20
ATOM     20  C   UNL     1       1.571   4.275  19.793  0.00  0.00    +0.000 C 
BRANCH  20  21
ATOM     21  N   UNL     1       2.021   2.941  20.218  0.00  0.00    +0.000 NA
ATOM     22  C   UNL     1       3.480   2.814  20.199  0.00  0.00    +0.000 C 
ATOM     23  C   UNL     1       1.519   2.667  21.568  0.00  0.00    +0.000 C 
ENDBRANCH  20  21
ENDBRANCH  19  20
ENDBRANCH  18  19
ENDBRANCH  16  18
ENDBRANCH  12  16
TORSDOF 6
ENDMDL
