MODEL 1
REMARK VINA RESULT:      -7.7      0.000      0.000
REMARK  Name = 
REMARK  7 active torsions:
REMARK  status: ('A' for Active; 'I' for Inactive)
REMARK    1  A    between atoms: C_1  and  O_2
REMARK    2  A    between atoms: O_2  and  C_3
REMARK    3  A    between atoms: C_5  and  N_6
REMARK    4  A    between atoms: C_12  and  C_13
REMARK    5  A    between atoms: C_13  and  N_14
REMARK    6  A    between atoms: N_14  and  C_15
REMARK    7  A    between atoms: N_14  and  C_16
REMARK                            x       y       z     vdW  Elec       q    Type
REMARK                         _______ _______ _______ _____ _____    ______ ____
ROOT
ATOM      1  N   UNL     1       4.231   3.512  17.645  0.00  0.00    +0.000 N 
ATOM      2  C   UNL     1       4.280   3.043  19.025  0.00  0.00    +0.000 C 
ATOM      3  C   UNL     1       2.841   2.581  19.281  0.00  0.00    +0.000 C 
ATOM      4  C   UNL     1       2.434   2.452  20.742  0.00  0.00    +0.000 C 
ATOM      5  C   UNL     1       2.059   3.770  21.402  0.00  0.00    +0.000 C 
ATOM      6  C   UNL     1       1.046   4.544  20.563  0.00  0.00    +0.000 C 
ATOM      7  C   UNL     1       1.569   4.870  19.142  0.00  0.00    +0.000 C 
ATOM      8  C   UNL     1       1.997   3.549  18.433  0.00  0.00    +0.000 C 
ATOM      9  C   UNL     1       2.863   3.665  17.166  0.00  0.00    +0.000 C 
ENDROOT
BRANCH   1  12
ATOM     10  C   UNL     1       6.693   4.464  15.138  0.00  0.00    +0.000 A 
ATOM     11  C   UNL     1       5.494   4.007  15.644  0.00  0.00    +0.000 A 
ATOM     12  C   UNL     1       5.377   3.925  17.020  0.00  0.00    +0.000 A 
ATOM     13  N   UNL     1       6.422   4.263  17.803  0.00  0.00    +0.000 NA
ATOM     14  C   UNL     1       7.554   4.654  17.204  0.00  0.00    +0.000 A 
ATOM     15  N   UNL     1       7.753   4.784  15.890  0.00  0.00    +0.000 NA
BRANCH  10  17
ATOM     16  C   UNL     1       6.062   3.591  13.059  0.00  0.00    +0.000 C 
ATOM     17  O   UNL     1       6.758   4.617  13.763  0.00  0.00    +0.000 OA
ENDBRANCH  10  17
ENDBRANCH   1  12
BRANCH   7  18
ATOM     18  C   UNL     1       2.572   6.054  19.246  0.00  0.00    +0.000 C 
BRANCH  18  19
ATOM     19  N   UNL     1       2.524   7.058  18.182  0.00  0.00    +0.000 NA
ATOM     20  C   UNL     1       2.014   8.358  18.605  0.00  0.00    +0.000 C 
ATOM     21  C   UNL     1       3.837   7.209  17.550  0.00  0.00    +0.000 C 
ENDBRANCH  18  19
ENDBRANCH   7  18
TORSDOF 4
ENDMDL
MODEL 2
REMARK VINA RESULT:      -7.5      1.343      1.980
REMARK  Name = 
REMARK  7 active torsions:
REMARK  status: ('A' for Active; 'I' for Inactive)
REMARK    1  A    between atoms: C_1  and  O_2
REMARK    2  A    between atoms: O_2  and  C_3
REMARK    3  A    between atoms: C_5  and  N_6
REMARK    4  A    between atoms: C_12  and  C_13
REMARK    5  A    between atoms: C_13  and  N_14
REMARK    6  A    between atoms: N_14  and  C_15
REMARK    7  A    between atoms: N_14  and  C_16
REMARK                            x       y       z     vdW  Elec       q    Type
REMARK                         _______ _______ _______ _____ _____    ______ ____
ROOT
ATOM      1  N   UNL     1       4.219   3.772  17.441  0.00  0.00    +0.000 N 
ATOM      2  C   UNL     1       4.426   3.213  18.771  0.00  0.00    +0.000 C 
ATOM      3  C   UNL     1       3.049   2.634  19.117  0.00  0.00    +0.000 C 
ATOM      4  C   UNL     1       2.788   2.376  20.595  0.00  0.00    +0.000 C 
ATOM      5  C   UNL     1       2.393   3.615  21.383  0.00  0.00    +0.000 C 
ATOM      6  C   UNL     1       1.260   4.373  20.697  0.00  0.00    +0.000 C 
ATOM      7  C   UNL     1       1.626   4.833  19.265  0.00  0.00    +0.000 C 
ATOM      8  C   UNL     1       2.070   3.597  18.423  0.00  0.00    +0.000 C 
ATOM      9  C   UNL     1       2.805   3.861  17.097  0.00  0.00    +0.000 C 
ENDROOT
BRANCH   1  12
ATOM     10  C   UNL     1       7.004   5.867  16.391  0.00  0.00    +0.000 A 
ATOM     11  C   UNL     1       5.941   5.446  17.162  0.00  0.00    +0.000 A 
ATOM     12  C   UNL     1       5.273   4.307  16.749  0.00  0.00    +0.000 A 
ATOM     13  N   UNL     1       5.657   3.675  15.622  0.00  0.00    +0.000 NA
ATOM     14  C   UNL     1       6.677   4.195  14.927  0.00  0.00    +0.000 A 
ATOM     15  N   UNL     1       7.393   5.273  15.256  0.00  0.00    +0.000 NA
BRANCH  10  17
ATOM     16  C   UNL     1       7.876   6.935  18.284  0.00  0.00    +0.000 C 
ATOM     17  O   UNL     1       7.709   6.960  16.868  0.00  0.00    +0.000 OA
ENDBRANCH  10  17
ENDBRANCH   1  12
BRANCH   7  18
ATOM     18  C   UNL     1       2.557   6.074  19.368  0.00  0.00    +0.000 C 
BRANCH  18  19
ATOM     19  N   UNL     1       2.092   7.306  18.731  0.00  0.00    +0.000 NA
ATOM     20  C   UNL     1       1.731   8.367  19.665  0.00  0.00    +0.000 C 
ATOM     21  C   UNL     1       3.077   7.795  17.763  0.00  0.00    +0.000 C 
ENDBRANCH  18  19
ENDBRANCH   7  18
TORSDOF 4
ENDMDL
MODEL 3
REMARK VINA RESULT:      -7.3      2.017      4.081
REMARK  Name = 
REMARK  7 active torsions:
REMARK  status: ('A' for Active; 'I' for Inactive)
REMARK    1  A    between atoms: C_1  and  O_2
REMARK    2  A    between atoms: O_2  and  C_3
REMARK    3  A    between atoms: C_5  and  N_6
REMARK    4  A    between atoms: C_12  and  C_13
REMARK    5  A    between atoms: C_13  and  N_14
REMARK    6  A    between atoms: N_14  and  C_15
REMARK    7  A    between atoms: N_14  and  C_16
REMARK                            x       y       z     vdW  Elec       q    Type
REMARK                         _______ _______ _______ _____ _____    ______ ____
ROOT
ATOM      1  N   UNL     1       6.027   5.421  15.790  0.00  0.00    +0.000 N 
ATOM      2  C   UNL     1       4.991   6.442  15.889  0.00  0.00    +0.000 C 
ATOM      3  C   UNL     1       4.967   6.761  17.389  0.00  0.00    +0.000 C 
ATOM      4  C   UNL     1       3.710   7.449  17.902  0.00  0.00    +0.000 C 
ATOM      5  C   UNL     1       2.541   6.509  18.149  0.00  0.00    +0.000 C 
ATOM      6  C   UNL     1       2.959   5.313  19.000  0.00  0.00    +0.000 C 
ATOM      7  C   UNL     1       4.093   4.482  18.350  0.00  0.00    +0.000 C 
ATOM      8  C   UNL     1       5.308   5.413  18.048  0.00  0.00    +0.000 C 
ATOM      9  C   UNL     1       6.394   4.884  17.095  0.00  0.00    +0.000 C 
ENDROOT
BRANCH   1  12
ATOM     10  C   UNL     1       6.181   3.580  12.654  0.00  0.00    +0.000 A 
ATOM     11  C   UNL     1       5.711   3.952  13.896  0.00  0.00    +0.000 A 
ATOM     12  C   UNL     1       6.406   4.945  14.563  0.00  0.00    +0.000 A 
ATOM     13  N   UNL     1       7.507   5.486  14.004  0.00  0.00    +0.000 NA
ATOM     14  C   UNL     1       7.899   5.020  12.811  0.00  0.00    +0.000 A 
ATOM     15  N   UNL     1       7.284   4.083  12.084  0.00  0.00    +0.000 NA
BRANCH  10  17
ATOM     16  C   UNL     1       4.242   3.203  11.398  0.00  0.00    +0.000 C 
ATOM     17  O   UNL     1       5.423   2.645  11.969  0.00  0.00    +0.000 OA
ENDBRANCH  10  17
ENDBRANCH   1  12
BRANCH   7  18
ATOM     18  C   UNL     1       3.480   3.615  17.214  0.00  0.00    +0.000 C 
BRANCH  18  19
ATOM     19  N   UNL     1       2.913   2.322  17.600  0.00  0.00    +0.000 NA
ATOM     20  C   UNL     1       3.765   1.531  18.480  0.00  0.00    +0.000 C 
ATOM     21  C   UNL     1       1.586   2.494  18.198  0.00  0.00    +0.000 C 
ENDBRANCH  18  19
ENDBRANCH   7  18
TORSDOF 4
ENDMDL
MODEL 4
REMARK VINA RESULT:      -7.1      2.237      2.754
REMARK  Name = 
REMARK  7 active torsions:
REMARK  status: ('A' for Active; 'I' for Inactive)
REMARK    1  A    between atoms: C_1  and  O_2
REMARK    2  A    between atoms: O_2  and  C_3
REMARK    3  A    between atoms: C_5  and  N_6
REMARK    4  A    between atoms: C_12  and  C_13
REMARK    5  A    between atoms: C_13  and  N_14
REMARK    6  A    between atoms: N_14  and  C_15
REMARK    7  A    between atoms: N_14  and  C_16
REMARK                            x       y       z     vdW  Elec       q    Type
REMARK                         _______ _______ _______ _____ _____    ______ ____
ROOT
ATOM      1  N   UNL     1       4.884   4.470  18.238  0.00  0.00    +0.000 N 
ATOM      2  C   UNL     1       4.622   3.386  19.178  0.00  0.00    +0.000 C 
ATOM      3  C   UNL     1       3.380   2.711  18.584  0.00  0.00    +0.000 C 
ATOM      4  C   UNL     1       2.581   1.833  19.537  0.00  0.00    +0.000 C 
ATOM      5  C   UNL     1       1.644   2.602  20.455  0.00  0.00    +0.000 C 
ATOM      6  C   UNL     1       0.775   3.581  19.670  0.00  0.00    +0.000 C 
ATOM      7  C   UNL     1       1.607   4.621  18.880  0.00  0.00    +0.000 C 
ATOM      8  C   UNL     1       2.609   3.878  17.944  0.00  0.00    +0.000 C 
ATOM      9  C   UNL     1       3.761   4.697  17.336  0.00  0.00    +0.000 C 
ENDROOT
BRANCH   1  12
ATOM     10  C   UNL     1       7.400   7.072  17.853  0.00  0.00    +0.000 A 
ATOM     11  C   UNL     1       6.259   6.346  17.580  0.00  0.00    +0.000 A 
ATOM     12  C   UNL     1       5.995   5.256  18.390  0.00  0.00    +0.000 A 
ATOM     13  N   UNL     1       6.852   4.931  19.379  0.00  0.00    +0.000 NA
ATOM     14  C   UNL     1       7.951   5.682  19.529  0.00  0.00    +0.000 A 
ATOM     15  N   UNL     1       8.279   6.760  18.814  0.00  0.00    +0.000 NA
BRANCH  10  17
ATOM     16  C   UNL     1       8.156   9.288  17.829  0.00  0.00    +0.000 C 
ATOM     17  O   UNL     1       7.600   8.207  17.084  0.00  0.00    +0.000 OA
ENDBRANCH  10  17
ENDBRANCH   1  12
BRANCH   7  18
ATOM     18  C   UNL     1       2.129   5.694  19.877  0.00  0.00    +0.000 C 
BRANCH  18  19
ATOM     19  N   UNL     1       1.675   7.070  19.667  0.00  0.00    +0.000 NA
ATOM     20  C   UNL     1       1.598   7.870  20.884  0.00  0.00    +0.000 C 
ATOM     21  C   UNL     1       2.509   7.745  18.668  0.00  0.00    +0.000 C 
ENDBRANCH  18  19
ENDBRANCH   7  18
TORSDOF 4
ENDMDL
MODEL 5
REMARK VINA RESULT:      -6.5      1.467      2.204
REMARK  Name = 
REMARK  7 active torsions:
REMARK  status: ('A' for Active; 'I' for Inactive)
REMARK    1  A    between atoms: C_1  and  O_2
REMARK    2  A    between atoms: O_2  and  C_3
REMARK    3  A    between atoms: C_5  and  N_6
REMARK    4  A    between atoms: C_12  and  C_13
REMARK    5  A    between atoms: C_13  and  N_14
REMARK    6  A    between atoms: N_14  and  C_15
REMARK    7  A    between atoms: N_14  and  C_16
REMARK                            x       y       z     vdW  Elec       q    Type
REMARK                         _______ _______ _______ _____ _____    ______ ____
ROOT
ATOM      1  N   UNL     1       4.434   3.439  17.515  0.00  0.00    +0.000 N 
ATOM      2  C   UNL     1       4.602   3.385  18.962  0.00  0.00    +0.000 C 
ATOM      3  C   UNL     1       3.423   2.512  19.411  0.00  0.00    +0.000 C 
ATOM      4  C   UNL     1       3.039   2.618  20.880  0.00  0.00    +0.000 C 
ATOM      5  C   UNL     1       2.184   3.830  21.214  0.00  0.00    +0.000 C 
ATOM      6  C   UNL     1       0.989   3.946  20.272  0.00  0.00    +0.000 C 
ATOM      7  C   UNL     1       1.407   4.069  18.786  0.00  0.00    +0.000 C 
ATOM      8  C   UNL     1       2.315   2.860  18.402  0.00  0.00    +0.000 C 
ATOM      9  C   UNL     1       3.123   2.959  17.096  0.00  0.00    +0.000 C 
ENDROOT
BRANCH   1  12
ATOM     10  C   UNL     1       6.982   5.728  16.283  0.00  0.00    +0.000 A 
ATOM     11  C   UNL     1       6.042   5.207  17.147  0.00  0.00    +0.000 A 
ATOM     12  C   UNL     1       5.371   4.068  16.739  0.00  0.00    +0.000 A 
ATOM     13  N   UNL     1       5.633   3.532  15.530  0.00  0.00    +0.000 NA
ATOM     14  C   UNL     1       6.536   4.144  14.754  0.00  0.00    +0.000 A 
ATOM     15  N   UNL     1       7.247   5.230  15.068  0.00  0.00    +0.000 NA
BRANCH  10  17
ATOM     16  C   UNL     1       7.715   6.906  18.169  0.00  0.00    +0.000 C 
ATOM     17  O   UNL     1       7.701   6.818  16.747  0.00  0.00    +0.000 OA
ENDBRANCH  10  17
ENDBRANCH   1  12
BRANCH   7  18
ATOM     18  C   UNL     1       1.903   5.521  18.532  0.00  0.00    +0.000 C 
BRANCH  18  19
ATOM     19  N   UNL     1       2.576   6.195  19.643  0.00  0.00    +0.000 NA
ATOM     20  C   UNL     1       3.976   6.515  19.393  0.00  0.00    +0.000 C 
ATOM     21  C   UNL     1       1.843   7.400  20.040  0.00  0.00    +0.000 C 
ENDBRANCH  18  19
ENDBRANCH   7  18
TORSDOF 4
ENDMDL
MODEL 6
REMARK VINA RESULT:      -6.4      0.931      1.183
REMARK  Name = 
REMARK  7 active torsions:
REMARK  status: ('A' for Active; 'I' for Inactive)
REMARK    1  A    between atoms: C_1  and  O_2
REMARK    2  A    between atoms: O_2  and  C_3
REMARK    3  A    between atoms: C_5  and  N_6
REMARK    4  A    between atoms: C_12  and  C_13
REMARK    5  A    between atoms: C_13  and  N_14
REMARK    6  A    between atoms: N_14  and  C_15
REMARK    7  A    between atoms: N_14  and  C_16
REMARK                            x       y       z     vdW  Elec       q    Type
REMARK                         _______ _______ _______ _____ _____    ______ ____
ROOT
ATOM      1  N   UNL     1       4.490   3.455  17.499  0.00  0.00    +0.000 N 
ATOM      2  C   UNL     1       4.610   3.377  18.949  0.00  0.00    +0.000 C 
ATOM      3  C   UNL     1       3.414   2.503  19.345  0.00  0.00    +0.000 C 
ATOM      4  C   UNL     1       2.982   2.587  20.803  0.00  0.00    +0.000 C 
ATOM      5  C   UNL     1       2.122   3.797  21.128  0.00  0.00    +0.000 C 
ATOM      6  C   UNL     1       0.959   3.933  20.150  0.00  0.00    +0.000 C 
ATOM      7  C   UNL     1       1.425   4.078  18.680  0.00  0.00    +0.000 C 
ATOM      8  C   UNL     1       2.340   2.871  18.307  0.00  0.00    +0.000 C 
ATOM      9  C   UNL     1       3.191   2.987  17.029  0.00  0.00    +0.000 C 
ENDROOT
BRANCH   1  12
ATOM     10  C   UNL     1       6.658   4.555  14.790  0.00  0.00    +0.000 A 
ATOM     11  C   UNL     1       5.674   3.825  15.424  0.00  0.00    +0.000 A 
ATOM     12  C   UNL     1       5.454   4.092  16.763  0.00  0.00    +0.000 A 
ATOM     13  N   UNL     1       6.205   5.015  17.397  0.00  0.00    +0.000 NA
ATOM     14  C   UNL     1       7.162   5.635  16.694  0.00  0.00    +0.000 A 
ATOM     15  N   UNL     1       7.434   5.461  15.399  0.00  0.00    +0.000 NA
BRANCH  10  17
ATOM     16  C   UNL     1       5.758   3.530  12.886  0.00  0.00    +0.000 C 
ATOM     17  O   UNL     1       6.805   4.331  13.430  0.00  0.00    +0.000 OA
ENDBRANCH  10  17
ENDBRANCH   1  12
BRANCH   7  18
ATOM     18  C   UNL     1       1.935   5.532  18.466  0.00  0.00    +0.000 C 
BRANCH  18  19
ATOM     19  N   UNL     1       2.590   6.179  19.603  0.00  0.00    +0.000 NA
ATOM     20  C   UNL     1       4.003   6.474  19.395  0.00  0.00    +0.000 C 
ATOM     21  C   UNL     1       1.870   7.393  19.996  0.00  0.00    +0.000 C 
ENDBRANCH  18  19
ENDBRANCH   7  18
TORSDOF 4
ENDMDL
MODEL 7
REMARK VINA RESULT:      -6.3      2.893      5.819
REMARK  Name = 
REMARK  7 active torsions:
REMARK  status: ('A' for Active; 'I' for Inactive)
REMARK    1  A    between atoms: C_1  and  O_2
REMARK    2  A    between atoms: O_2  and  C_3
REMARK    3  A    between atoms: C_5  and  N_6
REMARK    4  A    between atoms: C_12  and  C_13
REMARK    5  A    between atoms: C_13  and  N_14
REMARK    6  A    between atoms: N_14  and  C_15
REMARK    7  A    between atoms: N_14  and  C_16
REMARK                            x       y       z     vdW  Elec       q    Type
REMARK                         _______ _______ _______ _____ _____    ______ ____
ROOT
ATOM      1  N   UNL     1       2.653   5.890  19.647  0.00  0.00    +0.000 N 
ATOM      2  C   UNL     1       1.692   4.795  19.607  0.00  0.00    +0.000 C 
ATOM      3  C   UNL     1       2.520   3.596  20.086  0.00  0.00    +0.000 C 
ATOM      4  C   UNL     1       1.961   2.222  19.743  0.00  0.00    +0.000 C 
ATOM      5  C   UNL     1       2.250   1.770  18.320  0.00  0.00    +0.000 C 
ATOM      6  C   UNL     1       3.729   1.918  17.978  0.00  0.00    +0.000 C 
ATOM      7  C   UNL     1       4.233   3.376  18.112  0.00  0.00    +0.000 C 
ATOM      8  C   UNL     1       3.931   3.898  19.550  0.00  0.00    +0.000 C 
ATOM      9  C   UNL     1       4.023   5.414  19.795  0.00  0.00    +0.000 C 
ENDROOT
BRANCH   1  12
ATOM     10  C   UNL     1       1.290   9.256  19.903  0.00  0.00    +0.000 A 
ATOM     11  C   UNL     1       1.624   7.978  20.300  0.00  0.00    +0.000 A 
ATOM     12  C   UNL     1       2.248   7.169  19.368  0.00  0.00    +0.000 A 
ATOM     13  N   UNL     1       2.480   7.633  18.124  0.00  0.00    +0.000 NA
ATOM     14  C   UNL     1       2.076   8.877  17.833  0.00  0.00    +0.000 A 
ATOM     15  N   UNL     1       1.488   9.736  18.668  0.00  0.00    +0.000 NA
BRANCH  10  17
ATOM     16  C   UNL     1       0.831   9.515  22.184  0.00  0.00    +0.000 C 
ATOM     17  O   UNL     1       0.743  10.076  20.876  0.00  0.00    +0.000 OA
ENDBRANCH  10  17
ENDBRANCH   1  12
BRANCH   7  18
ATOM     18  C   UNL     1       3.741   4.183  16.876  0.00  0.00    +0.000 C 
BRANCH  18  19
ATOM     19  N   UNL     1       4.770   4.762  16.011  0.00  0.00    +0.000 NA
ATOM     20  C   UNL     1       5.069   6.162  16.287  0.00  0.00    +0.000 C 
ATOM     21  C   UNL     1       5.997   3.962  16.056  0.00  0.00    +0.000 C 
ENDBRANCH  18  19
ENDBRANCH   7  18
TORSDOF 4
ENDMDL
MODEL 8
REMARK VINA RESULT:      -6.3      2.286      3.260
REMARK  Name = 
REMARK  7 active torsions:
REMARK  status: ('A' for Active; 'I' for Inactive)
REMARK    1  A    between atoms: C_1  and  O_2
REMARK    2  A    between atoms: O_2  and  C_3
REMARK    3  A    between atoms: C_5  and  N_6
REMARK    4  A    between atoms: C_12  and  C_13
REMARK    5  A    between atoms: C_13  and  N_14
REMARK    6  A    between atoms: N_14  and  C_15
REMARK    7  A    between atoms: N_14  and  C_16
REMARK                            x       y       z     vdW  Elec       q    Type
REMARK                         _______ _______ _______ _____ _____    ______ ____
ROOT
ATOM      1  N   UNL     1       5.205   4.370  17.764  0.00  0.00    +0.000 N 
ATOM      2  C   UNL     1       4.899   3.221  18.606  0.00  0.00    +0.000 C 
ATOM      3  C   UNL     1       3.790   2.508  17.824  0.00  0.00    +0.000 C 
ATOM      4  C   UNL     1       2.938   1.529  18.621  0.00  0.00    +0.000 C 
ATOM      5  C   UNL     1       1.844   2.187  19.447  0.00  0.00    +0.000 C 
ATOM      6  C   UNL     1       1.017   3.155  18.607  0.00  0.00    +0.000 C 
ATOM      7  C   UNL     1       1.870   4.287  17.984  0.00  0.00    +0.000 C 
ATOM      8  C   UNL     1       3.029   3.662  17.149  0.00  0.00    +0.000 C 
ATOM      9  C   UNL     1       4.192   4.582  16.737  0.00  0.00    +0.000 C 
ENDROOT
BRANCH   1  12
ATOM     10  C   UNL     1       7.572   7.134  17.834  0.00  0.00    +0.000 A 
ATOM     11  C   UNL     1       6.527   6.357  17.380  0.00  0.00    +0.000 A 
ATOM     12  C   UNL     1       6.233   5.211  18.096  0.00  0.00    +0.000 A 
ATOM     13  N   UNL     1       6.975   4.885  19.174  0.00  0.00    +0.000 NA
ATOM     14  C   UNL     1       7.993   5.690  19.502  0.00  0.00    +0.000 A 
ATOM     15  N   UNL     1       8.339   6.823  18.887  0.00  0.00    +0.000 NA
BRANCH  10  17
ATOM     16  C   UNL     1       8.289   9.357  17.993  0.00  0.00    +0.000 C 
ATOM     17  O   UNL     1       7.795   8.319  17.151  0.00  0.00    +0.000 OA
ENDBRANCH  10  17
ENDBRANCH   1  12
BRANCH   7  18
ATOM     18  C   UNL     1       2.190   5.331  19.092  0.00  0.00    +0.000 C 
BRANCH  18  19
ATOM     19  N   UNL     1       1.541   5.138  20.390  0.00  0.00    +0.000 NA
ATOM     20  C   UNL     1       2.355   4.430  21.370  0.00  0.00    +0.000 C 
ATOM     21  C   UNL     1       1.086   6.419  20.938  0.00  0.00    +0.000 C 
ENDBRANCH  18  19
ENDBRANCH   7  18
TORSDOF 4
ENDMDL
MODEL 9
REMARK VINA RESULT:      -6.0      2.476      5.443
REMARK  Name = 
REMARK  7 active torsions:
REMARK  status: ('A' for Active; 'I' for Inactive)
REMARK    1  A    between atoms: C_1  and  O_2
REMARK    2  A    between atoms: O_2  and  C_3
REMARK    3  A    between atoms: C_5  and  N_6
REMARK    4  A    between atoms: C_12  and  C_13
REMARK    5  A    between atoms: C_13  and  N_14
REMARK    6  A    between atoms: N_14  and  C_15
REMARK    7  A    between atoms: N_14  and  C_16
REMARK                            x       y       z     vdW  Elec       q    Type
REMARK                         _______ _______ _______ _____ _____    ______ ____
ROOT
ATOM      1  N   UNL     1       2.493   5.692  19.915  0.00  0.00    +0.000 N 
ATOM      2  C   UNL     1       1.559   4.602  19.662  0.00  0.00    +0.000 C 
ATOM      3  C   UNL     1       2.389   3.356  19.993  0.00  0.00    +0.000 C 
ATOM      4  C   UNL     1       1.876   2.043  19.418  0.00  0.00    +0.000 C 
ATOM      5  C   UNL     1       2.240   1.818  17.959  0.00  0.00    +0.000 C 
ATOM      6  C   UNL     1       3.731   2.036  17.717  0.00  0.00    +0.000 C 
ATOM      7  C   UNL     1       4.197   3.463  18.096  0.00  0.00    +0.000 C 
ATOM      8  C   UNL     1       3.816   3.755  19.580  0.00  0.00    +0.000 C 
ATOM      9  C   UNL     1       3.865   5.218  20.057  0.00  0.00    +0.000 C 
ENDROOT
BRANCH   1  12
ATOM     10  C   UNL     1       1.825   9.062  18.714  0.00  0.00    +0.000 A 
ATOM     11  C   UNL     1       2.324   7.777  18.702  0.00  0.00    +0.000 A 
ATOM     12  C   UNL     1       2.075   6.992  19.814  0.00  0.00    +0.000 A 
ATOM     13  N   UNL     1       1.391   7.504  20.857  0.00  0.00    +0.000 NA
ATOM     14  C   UNL     1       0.988   8.779  20.779  0.00  0.00    +0.000 A 
ATOM     15  N   UNL     1       1.162   9.604  19.744  0.00  0.00    +0.000 NA
BRANCH  10  17
ATOM     16  C   UNL     1       2.277  11.178  17.818  0.00  0.00    +0.000 C 
ATOM     17  O   UNL     1       2.014   9.802  17.557  0.00  0.00    +0.000 OA
ENDBRANCH  10  17
ENDBRANCH   1  12
BRANCH   7  18
ATOM     18  C   UNL     1       3.747   4.443  16.974  0.00  0.00    +0.000 C 
BRANCH  18  19
ATOM     19  N   UNL     1       4.803   5.142  16.242  0.00  0.00    +0.000 NA
ATOM     20  C   UNL     1       5.230   6.395  16.853  0.00  0.00    +0.000 C 
ATOM     21  C   UNL     1       5.956   4.263  16.029  0.00  0.00    +0.000 C 
ENDBRANCH  18  19
ENDBRANCH   7  18
TORSDOF 4
ENDMDL
