MODEL 1
REMARK VINA RESULT:      -7.3      0.000      0.000
REMARK  Name = 
REMARK  10 active torsions:
REMARK  status: ('A' for Active; 'I' for Inactive)
REMARK    1  A    between atoms: C_1  and  C_2
REMARK    2  A    between atoms: C_2  and  C_4
REMARK    3  A    between atoms: C_5  and  O_6
REMARK    4  A    between atoms: C_8  and  O_9
REMARK    5  A    between atoms: C_13  and  C_14
REMARK    6  A    between atoms: C_13  and  C_15
REMARK    7  A    between atoms: C_15  and  C_16
REMARK    8  A    between atoms: C_16  and  C_17
REMARK    9  A    between atoms: C_18  and  C_19
REMARK   10  A    between atoms: C_18  and  C_20
REMARK                            x       y       z     vdW  Elec       q    Type
REMARK                         _______ _______ _______ _____ _____    ______ ____
ROOT
ATOM      1  C   UNL     1       3.165   5.743  18.447  0.00  0.00    +0.000 A 
ATOM      2  C   UNL     1       2.326   4.618  18.607  0.00  0.00    +0.000 A 
ATOM      3  C   UNL     1       2.736   3.343  18.230  0.00  0.00    +0.000 A 
ATOM      4  C   UNL     1       3.986   3.173  17.655  0.00  0.00    +0.000 A 
ATOM      5  C   UNL     1       4.842   4.260  17.452  0.00  0.00    +0.000 A 
ATOM      6  C   UNL     1       4.444   5.544  17.886  0.00  0.00    +0.000 A 
ATOM      7  O   UNL     1       5.278   6.628  17.770  0.00  0.00    +0.000 OA
ATOM      8  C   UNL     1       6.672   6.386  17.506  0.00  0.00    +0.000 C 
ATOM      9  C   UNL     1       7.359   5.952  18.817  0.00  0.00    +0.000 C 
ATOM     10  C   UNL     1       6.817   5.342  16.392  0.00  0.00    +0.000 C 
ATOM     11  C   UNL     1       6.180   4.028  16.802  0.00  0.00    +0.000 C 
ENDROOT
BRANCH   1  13
ATOM     12  C   UNL     1       2.484   8.228  17.935  0.00  0.00    +0.000 C 
ATOM     13  C   UNL     1       2.645   7.080  18.894  0.00  0.00    +0.000 C 
ATOM     14  O   UNL     1       2.349   7.229  20.084  0.00  0.00    +0.000 OA
ENDBRANCH   1  13
BRANCH   2  15
ATOM     15  O   UNL     1       1.063   4.682  19.140  0.00  0.00    +0.000 OA
ATOM     16  H   UNL     1       0.895   5.614  19.411  0.00  0.00    +0.000 HD
ENDBRANCH   2  15
BRANCH   4  17
ATOM     17  O   UNL     1       4.404   1.929  17.272  0.00  0.00    +0.000 OA
ATOM     18  H   UNL     1       4.586   1.937  16.317  0.00  0.00    +0.000 HD
ENDBRANCH   4  17
BRANCH   8  19
ATOM     19  C   UNL     1       7.299   7.741  17.071  0.00  0.00    +0.000 C 
BRANCH  19  20
ATOM     20  C   UNL     1       8.180   8.400  18.141  0.00  0.00    +0.000 C 
BRANCH  20  21
ATOM     21  C   UNL     1       8.573   9.810  17.789  0.00  0.00    +0.000 C 
ATOM     22  C   UNL     1       9.165  10.702  18.609  0.00  0.00    +0.000 C 
ATOM     23  C   UNL     1       9.432  10.474  20.072  0.00  0.00    +0.000 C 
ATOM     24  C   UNL     1       9.624  12.041  18.098  0.00  0.00    +0.000 C 
ENDBRANCH  20  21
ENDBRANCH  19  20
ENDBRANCH   8  19
TORSDOF 6
ENDMDL
MODEL 2
REMARK VINA RESULT:      -7.1      3.148      5.669
REMARK  Name = 
REMARK  10 active torsions:
REMARK  status: ('A' for Active; 'I' for Inactive)
REMARK    1  A    between atoms: C_1  and  C_2
REMARK    2  A    between atoms: C_2  and  C_4
REMARK    3  A    between atoms: C_5  and  O_6
REMARK    4  A    between atoms: C_8  and  O_9
REMARK    5  A    between atoms: C_13  and  C_14
REMARK    6  A    between atoms: C_13  and  C_15
REMARK    7  A    between atoms: C_15  and  C_16
REMARK    8  A    between atoms: C_16  and  C_17
REMARK    9  A    between atoms: C_18  and  C_19
REMARK   10  A    between atoms: C_18  and  C_20
REMARK                            x       y       z     vdW  Elec       q    Type
REMARK                         _______ _______ _______ _____ _____    ______ ____
ROOT
ATOM      1  C   UNL     1       3.749   3.454  19.963  0.00  0.00    +0.000 A 
ATOM      2  C   UNL     1       2.712   3.829  20.845  0.00  0.00    +0.000 A 
ATOM      3  C   UNL     1       2.115   5.084  20.777  0.00  0.00    +0.000 A 
ATOM      4  C   UNL     1       2.568   6.003  19.843  0.00  0.00    +0.000 A 
ATOM      5  C   UNL     1       3.611   5.687  18.966  0.00  0.00    +0.000 A 
ATOM      6  C   UNL     1       4.176   4.393  19.000  0.00  0.00    +0.000 A 
ATOM      7  O   UNL     1       5.153   4.016  18.114  0.00  0.00    +0.000 OA
ATOM      8  C   UNL     1       5.363   4.833  16.949  0.00  0.00    +0.000 C 
ATOM      9  C   UNL     1       4.258   4.524  15.918  0.00  0.00    +0.000 C 
ATOM     10  C   UNL     1       5.397   6.312  17.350  0.00  0.00    +0.000 C 
ATOM     11  C   UNL     1       4.083   6.726  17.985  0.00  0.00    +0.000 C 
ENDROOT
BRANCH   1  13
ATOM     12  C   UNL     1       4.076   1.004  19.072  0.00  0.00    +0.000 C 
ATOM     13  C   UNL     1       4.326   2.073  20.100  0.00  0.00    +0.000 C 
ATOM     14  O   UNL     1       5.019   1.820  21.091  0.00  0.00    +0.000 OA
ENDBRANCH   1  13
BRANCH   2  15
ATOM     15  O   UNL     1       2.209   3.006  21.822  0.00  0.00    +0.000 OA
ATOM     16  H   UNL     1       1.488   3.491  22.286  0.00  0.00    +0.000 HD
ENDBRANCH   2  15
BRANCH   4  17
ATOM     17  O   UNL     1       2.000   7.244  19.766  0.00  0.00    +0.000 OA
ATOM     18  H   UNL     1       1.427   7.281  18.981  0.00  0.00    +0.000 HD
ENDBRANCH   4  17
BRANCH   8  19
ATOM     19  C   UNL     1       6.722   4.403  16.325  0.00  0.00    +0.000 C 
BRANCH  19  20
ATOM     20  C   UNL     1       6.890   4.790  14.850  0.00  0.00    +0.000 C 
BRANCH  20  21
ATOM     21  C   UNL     1       6.211   3.828  13.912  0.00  0.00    +0.000 C 
ATOM     22  C   UNL     1       6.445   3.702  12.590  0.00  0.00    +0.000 C 
ATOM     23  C   UNL     1       7.357   4.596  11.793  0.00  0.00    +0.000 C 
ATOM     24  C   UNL     1       5.789   2.612  11.785  0.00  0.00    +0.000 C 
ENDBRANCH  20  21
ENDBRANCH  19  20
ENDBRANCH   8  19
TORSDOF 6
ENDMDL
MODEL 3
REMARK VINA RESULT:      -6.9      3.151      4.876
REMARK  Name = 
REMARK  10 active torsions:
REMARK  status: ('A' for Active; 'I' for Inactive)
REMARK    1  A    between atoms: C_1  and  C_2
REMARK    2  A    between atoms: C_2  and  C_4
REMARK    3  A    between atoms: C_5  and  O_6
REMARK    4  A    between atoms: C_8  and  O_9
REMARK    5  A    between atoms: C_13  and  C_14
REMARK    6  A    between atoms: C_13  and  C_15
REMARK    7  A    between atoms: C_15  and  C_16
REMARK    8  A    between atoms: C_16  and  C_17
REMARK    9  A    between atoms: C_18  and  C_19
REMARK   10  A    between atoms: C_18  and  C_20
REMARK                            x       y       z     vdW  Elec       q    Type
REMARK                         _______ _______ _______ _____ _____    ______ ____
ROOT
ATOM      1  C   UNL     1       2.458   6.459  19.341  0.00  0.00    +0.000 A 
ATOM      2  C   UNL     1       1.818   6.008  20.517  0.00  0.00    +0.000 A 
ATOM      3  C   UNL     1       2.000   4.714  20.995  0.00  0.00    +0.000 A 
ATOM      4  C   UNL     1       2.803   3.834  20.287  0.00  0.00    +0.000 A 
ATOM      5  C   UNL     1       3.436   4.226  19.103  0.00  0.00    +0.000 A 
ATOM      6  C   UNL     1       3.294   5.557  18.651  0.00  0.00    +0.000 A 
ATOM      7  O   UNL     1       3.951   6.006  17.533  0.00  0.00    +0.000 OA
ATOM      8  C   UNL     1       5.033   5.210  17.018  0.00  0.00    +0.000 C 
ATOM      9  C   UNL     1       6.283   5.445  17.892  0.00  0.00    +0.000 C 
ATOM     10  C   UNL     1       4.619   3.735  16.969  0.00  0.00    +0.000 C 
ATOM     11  C   UNL     1       4.280   3.227  18.357  0.00  0.00    +0.000 C 
ENDROOT
BRANCH   1  13
ATOM     12  C   UNL     1       2.510   8.337  17.505  0.00  0.00    +0.000 C 
ATOM     13  C   UNL     1       2.213   7.876  18.906  0.00  0.00    +0.000 C 
ATOM     14  O   UNL     1       1.762   8.677  19.732  0.00  0.00    +0.000 OA
ENDBRANCH   1  13
BRANCH   2  15
ATOM     15  O   UNL     1       0.983   6.789  21.276  0.00  0.00    +0.000 OA
ATOM     16  H   UNL     1       1.133   7.729  21.022  0.00  0.00    +0.000 HD
ENDBRANCH   2  15
BRANCH   4  17
ATOM     17  O   UNL     1       2.988   2.556  20.737  0.00  0.00    +0.000 OA
ATOM     18  H   UNL     1       3.942   2.378  20.799  0.00  0.00    +0.000 HD
ENDBRANCH   4  17
BRANCH   8  19
ATOM     19  C   UNL     1       5.351   5.738  15.589  0.00  0.00    +0.000 C 
BRANCH  19  20
ATOM     20  C   UNL     1       6.409   4.920  14.836  0.00  0.00    +0.000 C 
BRANCH  20  21
ATOM     21  C   UNL     1       5.808   3.938  13.865  0.00  0.00    +0.000 C 
ATOM     22  C   UNL     1       6.241   3.686  12.613  0.00  0.00    +0.000 C 
ATOM     23  C   UNL     1       7.345   4.439  11.922  0.00  0.00    +0.000 C 
ATOM     24  C   UNL     1       5.630   2.586  11.787  0.00  0.00    +0.000 C 
ENDBRANCH  20  21
ENDBRANCH  19  20
ENDBRANCH   8  19
TORSDOF 6
ENDMDL
MODEL 4
REMARK VINA RESULT:      -6.9      3.663      5.975
REMARK  Name = 
REMARK  10 active torsions:
REMARK  status: ('A' for Active; 'I' for Inactive)
REMARK    1  A    between atoms: C_1  and  C_2
REMARK    2  A    between atoms: C_2  and  C_4
REMARK    3  A    between atoms: C_5  and  O_6
REMARK    4  A    between atoms: C_8  and  O_9
REMARK    5  A    between atoms: C_13  and  C_14
REMARK    6  A    between atoms: C_13  and  C_15
REMARK    7  A    between atoms: C_15  and  C_16
REMARK    8  A    between atoms: C_16  and  C_17
REMARK    9  A    between atoms: C_18  and  C_19
REMARK   10  A    between atoms: C_18  and  C_20
REMARK                            x       y       z     vdW  Elec       q    Type
REMARK                         _______ _______ _______ _____ _____    ______ ____
ROOT
ATOM      1  C   UNL     1       4.489   3.911  19.284  0.00  0.00    +0.000 A 
ATOM      2  C   UNL     1       4.402   2.687  19.984  0.00  0.00    +0.000 A 
ATOM      3  C   UNL     1       3.370   2.433  20.882  0.00  0.00    +0.000 A 
ATOM      4  C   UNL     1       2.420   3.414  21.122  0.00  0.00    +0.000 A 
ATOM      5  C   UNL     1       2.480   4.652  20.473  0.00  0.00    +0.000 A 
ATOM      6  C   UNL     1       3.497   4.885  19.521  0.00  0.00    +0.000 A 
ATOM      7  O   UNL     1       3.554   6.057  18.810  0.00  0.00    +0.000 OA
ATOM      8  C   UNL     1       2.393   6.905  18.806  0.00  0.00    +0.000 C 
ATOM      9  C   UNL     1       1.353   6.320  17.826  0.00  0.00    +0.000 C 
ATOM     10  C   UNL     1       1.845   7.045  20.230  0.00  0.00    +0.000 C 
ATOM     11  C   UNL     1       1.439   5.693  20.785  0.00  0.00    +0.000 C 
ENDROOT
BRANCH   1  13
ATOM     12  C   UNL     1       5.429   4.040  16.835  0.00  0.00    +0.000 C 
ATOM     13  C   UNL     1       5.631   4.093  18.324  0.00  0.00    +0.000 C 
ATOM     14  O   UNL     1       6.762   4.287  18.783  0.00  0.00    +0.000 OA
ENDBRANCH   1  13
BRANCH   2  15
ATOM     15  O   UNL     1       5.304   1.662  19.840  0.00  0.00    +0.000 OA
ATOM     16  H   UNL     1       6.117   1.901  20.343  0.00  0.00    +0.000 HD
ENDBRANCH   2  15
BRANCH   4  17
ATOM     17  O   UNL     1       1.403   3.186  22.006  0.00  0.00    +0.000 OA
ATOM     18  H   UNL     1       0.553   3.286  21.544  0.00  0.00    +0.000 HD
ENDBRANCH   4  17
BRANCH   8  19
ATOM     19  C   UNL     1       2.836   8.289  18.251  0.00  0.00    +0.000 C 
BRANCH  19  20
ATOM     20  C   UNL     1       1.700   9.114  17.632  0.00  0.00    +0.000 C 
BRANCH  20  21
ATOM     21  C   UNL     1       1.019  10.014  18.629  0.00  0.00    +0.000 C 
ATOM     22  C   UNL     1      -0.289  10.340  18.646  0.00  0.00    +0.000 C 
ATOM     23  C   UNL     1      -1.283   9.947  17.587  0.00  0.00    +0.000 C 
ATOM     24  C   UNL     1      -0.873  11.149  19.773  0.00  0.00    +0.000 C 
ENDBRANCH  20  21
ENDBRANCH  19  20
ENDBRANCH   8  19
TORSDOF 6
ENDMDL
MODEL 5
REMARK VINA RESULT:      -6.9      0.966      1.211
REMARK  Name = 
REMARK  10 active torsions:
REMARK  status: ('A' for Active; 'I' for Inactive)
REMARK    1  A    between atoms: C_1  and  C_2
REMARK    2  A    between atoms: C_2  and  C_4
REMARK    3  A    between atoms: C_5  and  O_6
REMARK    4  A    between atoms: C_8  and  O_9
REMARK    5  A    between atoms: C_13  and  C_14
REMARK    6  A    between atoms: C_13  and  C_15
REMARK    7  A    between atoms: C_15  and  C_16
REMARK    8  A    between atoms: C_16  and  C_17
REMARK    9  A    between atoms: C_18  and  C_19
REMARK   10  A    between atoms: C_18  and  C_20
REMARK                            x       y       z     vdW  Elec       q    Type
REMARK                         _______ _______ _______ _____ _____    ______ ____
ROOT
ATOM      1  C   UNL     1       3.622   5.818  17.901  0.00  0.00    +0.000 A 
ATOM      2  C   UNL     1       2.944   4.600  17.671  0.00  0.00    +0.000 A 
ATOM      3  C   UNL     1       3.571   3.524  17.048  0.00  0.00    +0.000 A 
ATOM      4  C   UNL     1       4.881   3.658  16.615  0.00  0.00    +0.000 A 
ATOM      5  C   UNL     1       5.584   4.854  16.797  0.00  0.00    +0.000 A 
ATOM      6  C   UNL     1       4.963   5.924  17.479  0.00  0.00    +0.000 A 
ATOM      7  O   UNL     1       5.637   7.091  17.740  0.00  0.00    +0.000 OA
ATOM      8  C   UNL     1       7.069   7.091  17.606  0.00  0.00    +0.000 C 
ATOM      9  C   UNL     1       7.685   6.414  18.849  0.00  0.00    +0.000 C 
ATOM     10  C   UNL     1       7.470   6.399  16.299  0.00  0.00    +0.000 C 
ATOM     11  C   UNL     1       6.997   4.958  16.288  0.00  0.00    +0.000 C 
ENDROOT
BRANCH   1  13
ATOM     12  C   UNL     1       2.474   8.181  17.872  0.00  0.00    +0.000 C 
ATOM     13  C   UNL     1       2.871   6.922  18.592  0.00  0.00    +0.000 C 
ATOM     14  O   UNL     1       2.581   6.781  19.785  0.00  0.00    +0.000 OA
ENDBRANCH   1  13
BRANCH   2  15
ATOM     15  O   UNL     1       1.641   4.374  18.036  0.00  0.00    +0.000 OA
ATOM     16  H   UNL     1       1.601   4.352  19.020  0.00  0.00    +0.000 HD
ENDBRANCH   2  15
BRANCH   4  17
ATOM     17  O   UNL     1       5.511   2.615  15.995  0.00  0.00    +0.000 OA
ATOM     18  H   UNL     1       6.386   2.489  16.400  0.00  0.00    +0.000 HD
ENDBRANCH   4  17
BRANCH   8  19
ATOM     19  C   UNL     1       7.529   8.577  17.603  0.00  0.00    +0.000 C 
BRANCH  19  20
ATOM     20  C   UNL     1       8.843   8.833  18.353  0.00  0.00    +0.000 C 
BRANCH  20  21
ATOM     21  C   UNL     1       8.831  10.120  19.133  0.00  0.00    +0.000 C 
ATOM     22  C   UNL     1       9.554  11.226  18.860  0.00  0.00    +0.000 C 
ATOM     23  C   UNL     1      10.596  11.321  17.779  0.00  0.00    +0.000 C 
ATOM     24  C   UNL     1       9.357  12.495  19.645  0.00  0.00    +0.000 C 
ENDBRANCH  20  21
ENDBRANCH  19  20
ENDBRANCH   8  19
TORSDOF 6
ENDMDL
MODEL 6
REMARK VINA RESULT:      -6.7      2.929      5.538
REMARK  Name = 
REMARK  10 active torsions:
REMARK  status: ('A' for Active; 'I' for Inactive)
REMARK    1  A    between atoms: C_1  and  C_2
REMARK    2  A    between atoms: C_2  and  C_4
REMARK    3  A    between atoms: C_5  and  O_6
REMARK    4  A    between atoms: C_8  and  O_9
REMARK    5  A    between atoms: C_13  and  C_14
REMARK    6  A    between atoms: C_13  and  C_15
REMARK    7  A    between atoms: C_15  and  C_16
REMARK    8  A    between atoms: C_16  and  C_17
REMARK    9  A    between atoms: C_18  and  C_19
REMARK   10  A    between atoms: C_18  and  C_20
REMARK                            x       y       z     vdW  Elec       q    Type
REMARK                         _______ _______ _______ _____ _____    ______ ____
ROOT
ATOM      1  C   UNL     1       2.723   3.496  18.708  0.00  0.00    +0.000 A 
ATOM      2  C   UNL     1       1.655   3.875  19.551  0.00  0.00    +0.000 A 
ATOM      3  C   UNL     1       1.573   5.155  20.093  0.00  0.00    +0.000 A 
ATOM      4  C   UNL     1       2.578   6.072  19.826  0.00  0.00    +0.000 A 
ATOM      5  C   UNL     1       3.669   5.734  19.019  0.00  0.00    +0.000 A 
ATOM      6  C   UNL     1       3.720   4.453  18.426  0.00  0.00    +0.000 A 
ATOM      7  O   UNL     1       4.735   4.101  17.572  0.00  0.00    +0.000 OA
ATOM      8  C   UNL     1       5.562   5.148  17.034  0.00  0.00    +0.000 C 
ATOM      9  C   UNL     1       4.796   5.849  15.893  0.00  0.00    +0.000 C 
ATOM     10  C   UNL     1       5.969   6.116  18.151  0.00  0.00    +0.000 C 
ATOM     11  C   UNL     1       4.746   6.757  18.778  0.00  0.00    +0.000 C 
ENDROOT
BRANCH   1  13
ATOM     12  C   UNL     1       3.747   1.081  18.579  0.00  0.00    +0.000 C 
ATOM     13  C   UNL     1       2.723   2.098  18.157  0.00  0.00    +0.000 C 
ATOM     14  O   UNL     1       1.856   1.789  17.333  0.00  0.00    +0.000 OA
ENDBRANCH   1  13
BRANCH   2  15
ATOM     15  O   UNL     1       0.625   3.037  19.899  0.00  0.00    +0.000 OA
ATOM     16  H   UNL     1       0.454   3.150  20.862  0.00  0.00    +0.000 HD
ENDBRANCH   2  15
BRANCH   4  17
ATOM     17  O   UNL     1       2.518   7.331  20.356  0.00  0.00    +0.000 OA
ATOM     18  H   UNL     1       2.580   7.270  21.324  0.00  0.00    +0.000 HD
ENDBRANCH   4  17
BRANCH   8  19
ATOM     19  C   UNL     1       6.816   4.469  16.413  0.00  0.00    +0.000 C 
BRANCH  19  20
ATOM     20  C   UNL     1       7.024   4.771  14.923  0.00  0.00    +0.000 C 
BRANCH  20  21
ATOM     21  C   UNL     1       6.213   3.875  14.025  0.00  0.00    +0.000 C 
ATOM     22  C   UNL     1       6.374   3.719  12.696  0.00  0.00    +0.000 C 
ATOM     23  C   UNL     1       7.332   4.515  11.851  0.00  0.00    +0.000 C 
ATOM     24  C   UNL     1       5.579   2.694  11.932  0.00  0.00    +0.000 C 
ENDBRANCH  20  21
ENDBRANCH  19  20
ENDBRANCH   8  19
TORSDOF 6
ENDMDL
MODEL 7
REMARK VINA RESULT:      -6.6      3.155      5.352
REMARK  Name = 
REMARK  10 active torsions:
REMARK  status: ('A' for Active; 'I' for Inactive)
REMARK    1  A    between atoms: C_1  and  C_2
REMARK    2  A    between atoms: C_2  and  C_4
REMARK    3  A    between atoms: C_5  and  O_6
REMARK    4  A    between atoms: C_8  and  O_9
REMARK    5  A    between atoms: C_13  and  C_14
REMARK    6  A    between atoms: C_13  and  C_15
REMARK    7  A    between atoms: C_15  and  C_16
REMARK    8  A    between atoms: C_16  and  C_17
REMARK    9  A    between atoms: C_18  and  C_19
REMARK   10  A    between atoms: C_18  and  C_20
REMARK                            x       y       z     vdW  Elec       q    Type
REMARK                         _______ _______ _______ _____ _____    ______ ____
ROOT
ATOM      1  C   UNL     1       2.800   6.708  18.682  0.00  0.00    +0.000 A 
ATOM      2  C   UNL     1       2.128   6.433  19.894  0.00  0.00    +0.000 A 
ATOM      3  C   UNL     1       2.223   5.191  20.514  0.00  0.00    +0.000 A 
ATOM      4  C   UNL     1       2.969   4.187  19.915  0.00  0.00    +0.000 A 
ATOM      5  C   UNL     1       3.630   4.404  18.702  0.00  0.00    +0.000 A 
ATOM      6  C   UNL     1       3.577   5.683  18.104  0.00  0.00    +0.000 A 
ATOM      7  O   UNL     1       4.266   5.962  16.951  0.00  0.00    +0.000 OA
ATOM      8  C   UNL     1       5.295   5.045  16.537  0.00  0.00    +0.000 C 
ATOM      9  C   UNL     1       6.555   5.294  17.393  0.00  0.00    +0.000 C 
ATOM     10  C   UNL     1       4.784   3.604  16.647  0.00  0.00    +0.000 C 
ATOM     11  C   UNL     1       4.408   3.276  18.079  0.00  0.00    +0.000 C 
ENDROOT
BRANCH   1  13
ATOM     12  C   UNL     1       1.303   8.659  17.757  0.00  0.00    +0.000 C 
ATOM     13  C   UNL     1       2.651   8.082  18.091  0.00  0.00    +0.000 C 
ATOM     14  O   UNL     1       3.672   8.743  17.873  0.00  0.00    +0.000 OA
ENDBRANCH   1  13
BRANCH   2  15
ATOM     15  O   UNL     1       1.344   7.346  20.553  0.00  0.00    +0.000 OA
ATOM     16  H   UNL     1       1.920   8.095  20.833  0.00  0.00    +0.000 HD
ENDBRANCH   2  15
BRANCH   4  17
ATOM     17  O   UNL     1       3.068   2.958  20.505  0.00  0.00    +0.000 OA
ATOM     18  H   UNL     1       2.648   2.994  21.382  0.00  0.00    +0.000 HD
ENDBRANCH   4  17
BRANCH   8  19
ATOM     19  C   UNL     1       5.651   5.389  15.062  0.00  0.00    +0.000 C 
BRANCH  19  20
ATOM     20  C   UNL     1       5.905   4.165  14.173  0.00  0.00    +0.000 C 
BRANCH  20  21
ATOM     21  C   UNL     1       4.942   4.070  13.019  0.00  0.00    +0.000 C 
ATOM     22  C   UNL     1       5.034   3.227  11.971  0.00  0.00    +0.000 C 
ATOM     23  C   UNL     1       6.193   2.302  11.714  0.00  0.00    +0.000 C 
ATOM     24  C   UNL     1       3.936   3.143  10.944  0.00  0.00    +0.000 C 
ENDBRANCH  20  21
ENDBRANCH  19  20
ENDBRANCH   8  19
TORSDOF 6
ENDMDL
MODEL 8
REMARK VINA RESULT:      -6.6      3.455      6.058
REMARK  Name = 
REMARK  10 active torsions:
REMARK  status: ('A' for Active; 'I' for Inactive)
REMARK    1  A    between atoms: C_1  and  C_2
REMARK    2  A    between atoms: C_2  and  C_4
REMARK    3  A    between atoms: C_5  and  O_6
REMARK    4  A    between atoms: C_8  and  O_9
REMARK    5  A    between atoms: C_13  and  C_14
REMARK    6  A    between atoms: C_13  and  C_15
REMARK    7  A    between atoms: C_15  and  C_16
REMARK    8  A    between atoms: C_16  and  C_17
REMARK    9  A    between atoms: C_18  and  C_19
REMARK   10  A    between atoms: C_18  and  C_20
REMARK                            x       y       z     vdW  Elec       q    Type
REMARK                         _______ _______ _______ _____ _____    ______ ____
ROOT
ATOM      1  C   UNL     1       3.682   3.859  18.163  0.00  0.00    +0.000 A 
ATOM      2  C   UNL     1       3.848   3.936  19.564  0.00  0.00    +0.000 A 
ATOM      3  C   UNL     1       5.027   4.406  20.133  0.00  0.00    +0.000 A 
ATOM      4  C   UNL     1       6.078   4.782  19.310  0.00  0.00    +0.000 A 
ATOM      5  C   UNL     1       5.971   4.698  17.918  0.00  0.00    +0.000 A 
ATOM      6  C   UNL     1       4.753   4.272  17.343  0.00  0.00    +0.000 A 
ATOM      7  O   UNL     1       4.579   4.240  15.982  0.00  0.00    +0.000 OA
ATOM      8  C   UNL     1       5.524   4.948  15.160  0.00  0.00    +0.000 C 
ATOM      9  C   UNL     1       5.190   6.454  15.204  0.00  0.00    +0.000 C 
ATOM     10  C   UNL     1       6.951   4.648  15.632  0.00  0.00    +0.000 C 
ATOM     11  C   UNL     1       7.148   5.094  17.068  0.00  0.00    +0.000 C 
ENDROOT
BRANCH   1  13
ATOM     12  C   UNL     1       1.184   4.256  17.456  0.00  0.00    +0.000 C 
ATOM     13  C   UNL     1       2.370   3.350  17.636  0.00  0.00    +0.000 C 
ATOM     14  O   UNL     1       2.275   2.151  17.350  0.00  0.00    +0.000 OA
ENDBRANCH   1  13
BRANCH   2  15
ATOM     15  O   UNL     1       2.882   3.565  20.465  0.00  0.00    +0.000 OA
ATOM     16  H   UNL     1       2.007   3.628  20.015  0.00  0.00    +0.000 HD
ENDBRANCH   2  15
BRANCH   4  17
ATOM     17  O   UNL     1       7.246   5.240  19.852  0.00  0.00    +0.000 OA
ATOM     18  H   UNL     1       7.063   6.047  20.362  0.00  0.00    +0.000 HD
ENDBRANCH   4  17
BRANCH   8  19
ATOM     19  C   UNL     1       5.316   4.462  13.698  0.00  0.00    +0.000 C 
BRANCH  19  20
ATOM     20  C   UNL     1       6.618   4.221  12.922  0.00  0.00    +0.000 C 
BRANCH  20  21
ATOM     21  C   UNL     1       6.698   2.840  12.326  0.00  0.00    +0.000 C 
ATOM     22  C   UNL     1       5.774   2.258  11.535  0.00  0.00    +0.000 C 
ATOM     23  C   UNL     1       4.434   2.854  11.202  0.00  0.00    +0.000 C 
ATOM     24  C   UNL     1       6.032   0.918  10.898  0.00  0.00    +0.000 C 
ENDBRANCH  20  21
ENDBRANCH  19  20
ENDBRANCH   8  19
TORSDOF 6
ENDMDL
MODEL 9
REMARK VINA RESULT:      -6.5      4.972      8.542
REMARK  Name = 
REMARK  10 active torsions:
REMARK  status: ('A' for Active; 'I' for Inactive)
REMARK    1  A    between atoms: C_1  and  C_2
REMARK    2  A    between atoms: C_2  and  C_4
REMARK    3  A    between atoms: C_5  and  O_6
REMARK    4  A    between atoms: C_8  and  O_9
REMARK    5  A    between atoms: C_13  and  C_14
REMARK    6  A    between atoms: C_13  and  C_15
REMARK    7  A    between atoms: C_15  and  C_16
REMARK    8  A    between atoms: C_16  and  C_17
REMARK    9  A    between atoms: C_18  and  C_19
REMARK   10  A    between atoms: C_18  and  C_20
REMARK                            x       y       z     vdW  Elec       q    Type
REMARK                         _______ _______ _______ _____ _____    ______ ____
ROOT
ATOM      1  C   UNL     1      -2.182  11.062  18.056  0.00  0.00    +0.000 A 
ATOM      2  C   UNL     1      -3.059  11.909  18.770  0.00  0.00    +0.000 A 
ATOM      3  C   UNL     1      -2.777  12.321  20.069  0.00  0.00    +0.000 A 
ATOM      4  C   UNL     1      -1.625  11.866  20.692  0.00  0.00    +0.000 A 
ATOM      5  C   UNL     1      -0.741  11.004  20.035  0.00  0.00    +0.000 A 
ATOM      6  C   UNL     1      -1.001  10.634  18.698  0.00  0.00    +0.000 A 
ATOM      7  O   UNL     1      -0.127   9.846  17.991  0.00  0.00    +0.000 OA
ATOM      8  C   UNL     1       1.203   9.674  18.512  0.00  0.00    +0.000 C 
ATOM      9  C   UNL     1       2.028  10.938  18.195  0.00  0.00    +0.000 C 
ATOM     10  C   UNL     1       1.139   9.374  20.014  0.00  0.00    +0.000 C 
ATOM     11  C   UNL     1       0.485  10.519  20.763  0.00  0.00    +0.000 C 
ENDROOT
BRANCH   1  13
ATOM     12  C   UNL     1      -2.911   9.263  16.286  0.00  0.00    +0.000 C 
ATOM     13  C   UNL     1      -2.560  10.679  16.653  0.00  0.00    +0.000 C 
ATOM     14  O   UNL     1      -2.575  11.559  15.785  0.00  0.00    +0.000 OA
ENDBRANCH   1  13
BRANCH   2  15
ATOM     15  O   UNL     1      -4.236  12.393  18.256  0.00  0.00    +0.000 OA
ATOM     16  H   UNL     1      -4.846  11.630  18.125  0.00  0.00    +0.000 HD
ENDBRANCH   2  15
BRANCH   4  17
ATOM     17  O   UNL     1      -1.336  12.253  21.971  0.00  0.00    +0.000 OA
ATOM     18  H   UNL     1      -0.452  11.924  22.208  0.00  0.00    +0.000 HD
ENDBRANCH   4  17
BRANCH   8  19
ATOM     19  C   UNL     1       1.847   8.485  17.742  0.00  0.00    +0.000 C 
BRANCH  19  20
ATOM     20  C   UNL     1       2.571   7.472  18.638  0.00  0.00    +0.000 C 
BRANCH  20  21
ATOM     21  C   UNL     1       2.468   6.059  18.127  0.00  0.00    +0.000 C 
ATOM     22  C   UNL     1       2.025   4.990  18.819  0.00  0.00    +0.000 C 
ATOM     23  C   UNL     1       1.661   5.006  20.279  0.00  0.00    +0.000 C 
ATOM     24  C   UNL     1       1.851   3.652  18.152  0.00  0.00    +0.000 C 
ENDBRANCH  20  21
ENDBRANCH  19  20
ENDBRANCH   8  19
TORSDOF 6
ENDMDL
