MODEL 1
REMARK VINA RESULT:      -7.0      0.000      0.000
REMARK  Name = 
REMARK  1 active torsions:
REMARK  status: ('A' for Active; 'I' for Inactive)
REMARK    1  A    between atoms: C_4  and  C_5
REMARK                            x       y       z     vdW  Elec       q    Type
REMARK                         _______ _______ _______ _____ _____    ______ ____
ROOT
ATOM      1  S   UNL     1       4.105   1.971  20.417  0.00  0.00    +0.000 S 
ATOM      2  C   UNL     1       4.477   2.996  19.121  0.00  0.00    +0.000 C 
ATOM      3  C   UNL     1       3.433   3.164  18.029  0.00  0.00    +0.000 C 
ATOM      4  C   UNL     1       3.354   4.445  17.210  0.00  0.00    +0.000 C 
ATOM      5  S   UNL     1       4.842   4.501  16.161  0.00  0.00    +0.000 S 
ATOM      6  C   UNL     1       5.947   5.244  17.334  0.00  0.00    +0.000 A 
ATOM      7  C   UNL     1       6.506   6.476  16.952  0.00  0.00    +0.000 A 
ATOM      8  C   UNL     1       7.360   7.163  17.809  0.00  0.00    +0.000 A 
ATOM      9 CL   UNL     1       7.929   8.728  17.383  0.00  0.00    +0.000 Cl
ATOM     10  C   UNL     1       7.733   6.596  19.019  0.00  0.00    +0.000 A 
ATOM     11  C   UNL     1       7.216   5.350  19.384  0.00  0.00    +0.000 A 
ATOM     12  C   UNL     1       6.272   4.691  18.579  0.00  0.00    +0.000 A 
ATOM     13  N   UNL     1       5.709   3.550  19.183  0.00  0.00    +0.000 N 
ATOM     14  H   UNL     1       6.191   3.238  20.023  0.00  0.00    +0.000 HD
ENDROOT
BRANCH   4  15
ATOM     15  C   UNL     1       3.011   5.761  17.909  0.00  0.00    +0.000 A 
ATOM     16  C   UNL     1       3.085   7.005  17.267  0.00  0.00    +0.000 A 
ATOM     17  C   UNL     1       2.740   8.185  17.936  0.00  0.00    +0.000 A 
ATOM     18  C   UNL     1       2.319   8.139  19.261  0.00  0.00    +0.000 A 
ATOM     19  C   UNL     1       2.262   6.925  19.924  0.00  0.00    +0.000 A 
ATOM     20  C   UNL     1       2.615   5.745  19.259  0.00  0.00    +0.000 A 
ENDBRANCH   4  15
TORSDOF 1
ENDMDL
MODEL 2
REMARK VINA RESULT:      -6.8      0.099      1.106
REMARK  Name = 
REMARK  1 active torsions:
REMARK  status: ('A' for Active; 'I' for Inactive)
REMARK    1  A    between atoms: C_4  and  C_5
REMARK                            x       y       z     vdW  Elec       q    Type
REMARK                         _______ _______ _______ _____ _____    ______ ____
ROOT
ATOM      1  S   UNL     1       4.035   1.955  20.478  0.00  0.00    +0.000 S 
ATOM      2  C   UNL     1       4.398   2.976  19.176  0.00  0.00    +0.000 C 
ATOM      3  C   UNL     1       3.344   3.146  18.095  0.00  0.00    +0.000 C 
ATOM      4  C   UNL     1       3.261   4.426  17.273  0.00  0.00    +0.000 C 
ATOM      5  S   UNL     1       4.739   4.473  16.209  0.00  0.00    +0.000 S 
ATOM      6  C   UNL     1       5.859   5.213  17.369  0.00  0.00    +0.000 A 
ATOM      7  C   UNL     1       6.419   6.442  16.979  0.00  0.00    +0.000 A 
ATOM      8  C   UNL     1       7.285   7.128  17.826  0.00  0.00    +0.000 A 
ATOM      9 CL   UNL     1       7.856   8.689  17.390  0.00  0.00    +0.000 Cl
ATOM     10  C   UNL     1       7.668   6.563  19.033  0.00  0.00    +0.000 A 
ATOM     11  C   UNL     1       7.150   5.319  19.406  0.00  0.00    +0.000 A 
ATOM     12  C   UNL     1       6.194   4.662  18.612  0.00  0.00    +0.000 A 
ATOM     13  N   UNL     1       5.633   3.525  19.225  0.00  0.00    +0.000 N 
ATOM     14  H   UNL     1       6.122   3.213  20.060  0.00  0.00    +0.000 HD
ENDROOT
BRANCH   4  15
ATOM     15  C   UNL     1       2.931   5.745  17.973  0.00  0.00    +0.000 A 
ATOM     16  C   UNL     1       2.524   5.814  19.312  0.00  0.00    +0.000 A 
ATOM     17  C   UNL     1       2.254   7.045  19.922  0.00  0.00    +0.000 A 
ATOM     18  C   UNL     1       2.382   8.226  19.199  0.00  0.00    +0.000 A 
ATOM     19  C   UNL     1       2.757   8.181  17.867  0.00  0.00    +0.000 A 
ATOM     20  C   UNL     1       3.019   6.951  17.253  0.00  0.00    +0.000 A 
ENDBRANCH   4  15
TORSDOF 1
ENDMDL
MODEL 3
REMARK VINA RESULT:      -6.2      2.774      4.621
REMARK  Name = 
REMARK  1 active torsions:
REMARK  status: ('A' for Active; 'I' for Inactive)
REMARK    1  A    between atoms: C_4  and  C_5
REMARK                            x       y       z     vdW  Elec       q    Type
REMARK                         _______ _______ _______ _____ _____    ______ ____
ROOT
ATOM      1  S   UNL     1       5.598   4.331  14.377  0.00  0.00    +0.000 S 
ATOM      2  C   UNL     1       5.453   4.260  16.063  0.00  0.00    +0.000 C 
ATOM      3  C   UNL     1       6.221   5.283  16.883  0.00  0.00    +0.000 C 
ATOM      4  C   UNL     1       5.720   5.729  18.250  0.00  0.00    +0.000 C 
ATOM      5  S   UNL     1       5.895   4.306  19.374  0.00  0.00    +0.000 S 
ATOM      6  C   UNL     1       4.358   3.502  19.001  0.00  0.00    +0.000 A 
ATOM      7  C   UNL     1       3.477   3.336  20.084  0.00  0.00    +0.000 A 
ATOM      8  C   UNL     1       2.230   2.747  19.899  0.00  0.00    +0.000 A 
ATOM      9 CL   UNL     1       1.114   2.670  21.205  0.00  0.00    +0.000 Cl
ATOM     10  C   UNL     1       1.876   2.245  18.656  0.00  0.00    +0.000 A 
ATOM     11  C   UNL     1       2.766   2.368  17.585  0.00  0.00    +0.000 A 
ATOM     12  C   UNL     1       3.985   3.052  17.729  0.00  0.00    +0.000 A 
ATOM     13  N   UNL     1       4.668   3.255  16.514  0.00  0.00    +0.000 N 
ATOM     14  H   UNL     1       4.302   2.719  15.731  0.00  0.00    +0.000 HD
ENDROOT
BRANCH   4  15
ATOM     15  C   UNL     1       4.386   6.469  18.354  0.00  0.00    +0.000 A 
ATOM     16  C   UNL     1       3.532   6.346  19.458  0.00  0.00    +0.000 A 
ATOM     17  C   UNL     1       2.329   7.060  19.524  0.00  0.00    +0.000 A 
ATOM     18  C   UNL     1       1.959   7.904  18.483  0.00  0.00    +0.000 A 
ATOM     19  C   UNL     1       2.774   8.022  17.369  0.00  0.00    +0.000 A 
ATOM     20  C   UNL     1       3.973   7.303  17.298  0.00  0.00    +0.000 A 
ENDBRANCH   4  15
TORSDOF 1
ENDMDL
MODEL 4
REMARK VINA RESULT:      -6.1      2.773      4.488
REMARK  Name = 
REMARK  1 active torsions:
REMARK  status: ('A' for Active; 'I' for Inactive)
REMARK    1  A    between atoms: C_4  and  C_5
REMARK                            x       y       z     vdW  Elec       q    Type
REMARK                         _______ _______ _______ _____ _____    ______ ____
ROOT
ATOM      1  S   UNL     1       5.609   4.341  14.325  0.00  0.00    +0.000 S 
ATOM      2  C   UNL     1       5.460   4.267  16.011  0.00  0.00    +0.000 C 
ATOM      3  C   UNL     1       6.238   5.280  16.834  0.00  0.00    +0.000 C 
ATOM      4  C   UNL     1       5.740   5.729  18.202  0.00  0.00    +0.000 C 
ATOM      5  S   UNL     1       5.897   4.301  19.322  0.00  0.00    +0.000 S 
ATOM      6  C   UNL     1       4.351   3.516  18.945  0.00  0.00    +0.000 A 
ATOM      7  C   UNL     1       3.468   3.357  20.026  0.00  0.00    +0.000 A 
ATOM      8  C   UNL     1       2.214   2.783  19.838  0.00  0.00    +0.000 A 
ATOM      9 CL   UNL     1       1.095   2.715  21.142  0.00  0.00    +0.000 Cl
ATOM     10  C   UNL     1       1.856   2.288  18.593  0.00  0.00    +0.000 A 
ATOM     11  C   UNL     1       2.749   2.403  17.524  0.00  0.00    +0.000 A 
ATOM     12  C   UNL     1       3.976   3.073  17.671  0.00  0.00    +0.000 A 
ATOM     13  N   UNL     1       4.663   3.270  16.458  0.00  0.00    +0.000 N 
ATOM     14  H   UNL     1       4.292   2.741  15.673  0.00  0.00    +0.000 HD
ENDROOT
BRANCH   4  15
ATOM     15  C   UNL     1       4.414   6.483  18.305  0.00  0.00    +0.000 A 
ATOM     16  C   UNL     1       3.939   7.328  17.292  0.00  0.00    +0.000 A 
ATOM     17  C   UNL     1       2.708   7.982  17.416  0.00  0.00    +0.000 A 
ATOM     18  C   UNL     1       1.934   7.806  18.558  0.00  0.00    +0.000 A 
ATOM     19  C   UNL     1       2.395   6.997  19.584  0.00  0.00    +0.000 A 
ATOM     20  C   UNL     1       3.629   6.349  19.465  0.00  0.00    +0.000 A 
ENDBRANCH   4  15
TORSDOF 1
ENDMDL
MODEL 5
REMARK VINA RESULT:      -6.0      7.616      9.457
REMARK  Name = 
REMARK  1 active torsions:
REMARK  status: ('A' for Active; 'I' for Inactive)
REMARK    1  A    between atoms: C_4  and  C_5
REMARK                            x       y       z     vdW  Elec       q    Type
REMARK                         _______ _______ _______ _____ _____    ______ ____
ROOT
ATOM      1  S   UNL     1       8.528   9.219  18.295  0.00  0.00    +0.000 S 
ATOM      2  C   UNL     1       9.387  10.575  18.840  0.00  0.00    +0.000 C 
ATOM      3  C   UNL     1      10.235  11.328  17.829  0.00  0.00    +0.000 C 
ATOM      4  C   UNL     1      10.516  12.816  17.992  0.00  0.00    +0.000 C 
ATOM      5  S   UNL     1      11.608  12.997  19.440  0.00  0.00    +0.000 S 
ATOM      6  C   UNL     1      10.355  13.029  20.696  0.00  0.00    +0.000 A 
ATOM      7  C   UNL     1      10.309  14.192  21.484  0.00  0.00    +0.000 A 
ATOM      8  C   UNL     1       9.346  14.337  22.477  0.00  0.00    +0.000 A 
ATOM      9 CL   UNL     1       9.220  15.818  23.342  0.00  0.00    +0.000 Cl
ATOM     10  C   UNL     1       8.470  13.298  22.753  0.00  0.00    +0.000 A 
ATOM     11  C   UNL     1       8.540  12.121  22.003  0.00  0.00    +0.000 A 
ATOM     12  C   UNL     1       9.437  11.997  20.928  0.00  0.00    +0.000 A 
ATOM     13  N   UNL     1       9.243  10.833  20.159  0.00  0.00    +0.000 N 
ATOM     14  H   UNL     1       8.627  10.146  20.585  0.00  0.00    +0.000 HD
ENDROOT
BRANCH   4  15
ATOM     15  C   UNL     1       9.353  13.807  17.937  0.00  0.00    +0.000 A 
ATOM     16  C   UNL     1       8.021  13.408  17.767  0.00  0.00    +0.000 A 
ATOM     17  C   UNL     1       6.982  14.347  17.745  0.00  0.00    +0.000 A 
ATOM     18  C   UNL     1       7.262  15.701  17.889  0.00  0.00    +0.000 A 
ATOM     19  C   UNL     1       8.573  16.122  18.033  0.00  0.00    +0.000 A 
ATOM     20  C   UNL     1       9.613  15.186  18.046  0.00  0.00    +0.000 A 
ENDBRANCH   4  15
TORSDOF 1
ENDMDL
MODEL 6
REMARK VINA RESULT:      -5.9      7.601      9.417
REMARK  Name = 
REMARK  1 active torsions:
REMARK  status: ('A' for Active; 'I' for Inactive)
REMARK    1  A    between atoms: C_4  and  C_5
REMARK                            x       y       z     vdW  Elec       q    Type
REMARK                         _______ _______ _______ _____ _____    ______ ____
ROOT
ATOM      1  S   UNL     1       8.542   9.234  18.288  0.00  0.00    +0.000 S 
ATOM      2  C   UNL     1       9.389  10.584  18.861  0.00  0.00    +0.000 C 
ATOM      3  C   UNL     1      10.257  11.347  17.874  0.00  0.00    +0.000 C 
ATOM      4  C   UNL     1      10.533  12.834  18.056  0.00  0.00    +0.000 C 
ATOM      5  S   UNL     1      11.597  13.002  19.526  0.00  0.00    +0.000 S 
ATOM      6  C   UNL     1      10.321  13.021  20.758  0.00  0.00    +0.000 A 
ATOM      7  C   UNL     1      10.259  14.177  21.555  0.00  0.00    +0.000 A 
ATOM      8  C   UNL     1       9.276  14.313  22.532  0.00  0.00    +0.000 A 
ATOM      9 CL   UNL     1       9.133  15.786  23.407  0.00  0.00    +0.000 Cl
ATOM     10  C   UNL     1       8.396  13.271  22.781  0.00  0.00    +0.000 A 
ATOM     11  C   UNL     1       8.481  12.101  22.021  0.00  0.00    +0.000 A 
ATOM     12  C   UNL     1       9.399  11.987  20.963  0.00  0.00    +0.000 A 
ATOM     13  N   UNL     1       9.220  10.830  20.180  0.00  0.00    +0.000 N 
ATOM     14  H   UNL     1       8.596  10.139  20.588  0.00  0.00    +0.000 HD
ENDROOT
BRANCH   4  15
ATOM     15  C   UNL     1       9.371  13.825  17.988  0.00  0.00    +0.000 A 
ATOM     16  C   UNL     1       9.541  15.207  18.147  0.00  0.00    +0.000 A 
ATOM     17  C   UNL     1       8.453  16.084  18.054  0.00  0.00    +0.000 A 
ATOM     18  C   UNL     1       7.177  15.590  17.805  0.00  0.00    +0.000 A 
ATOM     19  C   UNL     1       6.981  14.226  17.670  0.00  0.00    +0.000 A 
ATOM     20  C   UNL     1       8.065  13.348  17.771  0.00  0.00    +0.000 A 
ENDBRANCH   4  15
TORSDOF 1
ENDMDL
MODEL 7
REMARK VINA RESULT:      -5.7      5.889      8.243
REMARK  Name = 
REMARK  1 active torsions:
REMARK  status: ('A' for Active; 'I' for Inactive)
REMARK    1  A    between atoms: C_4  and  C_5
REMARK                            x       y       z     vdW  Elec       q    Type
REMARK                         _______ _______ _______ _____ _____    ______ ____
ROOT
ATOM      1  S   UNL     1       2.203   7.540  18.547  0.00  0.00    +0.000 S 
ATOM      2  C   UNL     1       1.726   9.046  19.159  0.00  0.00    +0.000 C 
ATOM      3  C   UNL     1       1.735  10.231  18.209  0.00  0.00    +0.000 C 
ATOM      4  C   UNL     1       0.789  11.408  18.411  0.00  0.00    +0.000 C 
ATOM      5  S   UNL     1       1.331  12.275  19.919  0.00  0.00    +0.000 S 
ATOM      6  C   UNL     1       0.458  11.285  21.105  0.00  0.00    +0.000 A 
ATOM      7  C   UNL     1      -0.471  11.969  21.907  0.00  0.00    +0.000 A 
ATOM      8  C   UNL     1      -1.236  11.286  22.848  0.00  0.00    +0.000 A 
ATOM      9 CL   UNL     1      -2.459  12.114  23.727  0.00  0.00    +0.000 Cl
ATOM     10  C   UNL     1      -1.029   9.931  23.058  0.00  0.00    +0.000 A 
ATOM     11  C   UNL     1      -0.074   9.253  22.295  0.00  0.00    +0.000 A 
ATOM     12  C   UNL     1       0.632   9.905  21.269  0.00  0.00    +0.000 A 
ATOM     13  N   UNL     1       1.404   9.037  20.473  0.00  0.00    +0.000 N 
ATOM     14  H   UNL     1       1.511   8.100  20.853  0.00  0.00    +0.000 HD
ENDROOT
BRANCH   4  15
ATOM     15  C   UNL     1      -0.719  11.181  18.307  0.00  0.00    +0.000 A 
ATOM     16  C   UNL     1      -1.661  12.132  18.723  0.00  0.00    +0.000 A 
ATOM     17  C   UNL     1      -3.034  11.895  18.589  0.00  0.00    +0.000 A 
ATOM     18  C   UNL     1      -3.487  10.700  18.041  0.00  0.00    +0.000 A 
ATOM     19  C   UNL     1      -2.576   9.734  17.647  0.00  0.00    +0.000 A 
ATOM     20  C   UNL     1      -1.203   9.966  17.788  0.00  0.00    +0.000 A 
ENDBRANCH   4  15
TORSDOF 1
ENDMDL
MODEL 8
REMARK VINA RESULT:      -5.7      5.815      8.163
REMARK  Name = 
REMARK  1 active torsions:
REMARK  status: ('A' for Active; 'I' for Inactive)
REMARK    1  A    between atoms: C_4  and  C_5
REMARK                            x       y       z     vdW  Elec       q    Type
REMARK                         _______ _______ _______ _____ _____    ______ ____
ROOT
ATOM      1  S   UNL     1       2.225   7.368  18.655  0.00  0.00    +0.000 S 
ATOM      2  C   UNL     1       1.772   8.905  19.206  0.00  0.00    +0.000 C 
ATOM      3  C   UNL     1       1.817  10.054  18.213  0.00  0.00    +0.000 C 
ATOM      4  C   UNL     1       0.893  11.256  18.361  0.00  0.00    +0.000 C 
ATOM      5  S   UNL     1       1.436  12.167  19.842  0.00  0.00    +0.000 S 
ATOM      6  C   UNL     1       0.530  11.240  21.053  0.00  0.00    +0.000 A 
ATOM      7  C   UNL     1      -0.393  11.972  21.819  0.00  0.00    +0.000 A 
ATOM      8  C   UNL     1      -1.182  11.340  22.775  0.00  0.00    +0.000 A 
ATOM      9 CL   UNL     1      -2.397  12.224  23.609  0.00  0.00    +0.000 Cl
ATOM     10  C   UNL     1      -1.005   9.989  23.038  0.00  0.00    +0.000 A 
ATOM     11  C   UNL     1      -0.057   9.264  22.311  0.00  0.00    +0.000 A 
ATOM     12  C   UNL     1       0.674   9.864  21.270  0.00  0.00    +0.000 A 
ATOM     13  N   UNL     1       1.436   8.952  20.516  0.00  0.00    +0.000 N 
ATOM     14  H   UNL     1       1.520   8.027  20.931  0.00  0.00    +0.000 HD
ENDROOT
BRANCH   4  15
ATOM     15  C   UNL     1      -0.619  11.057  18.248  0.00  0.00    +0.000 A 
ATOM     16  C   UNL     1      -1.197   9.863  17.797  0.00  0.00    +0.000 A 
ATOM     17  C   UNL     1      -2.587   9.713  17.731  0.00  0.00    +0.000 A 
ATOM     18  C   UNL     1      -3.421  10.759  18.111  0.00  0.00    +0.000 A 
ATOM     19  C   UNL     1      -2.873  11.958  18.535  0.00  0.00    +0.000 A 
ATOM     20  C   UNL     1      -1.484  12.112  18.594  0.00  0.00    +0.000 A 
ENDBRANCH   4  15
TORSDOF 1
ENDMDL
MODEL 9
REMARK VINA RESULT:      -5.6      8.599     10.535
REMARK  Name = 
REMARK  1 active torsions:
REMARK  status: ('A' for Active; 'I' for Inactive)
REMARK    1  A    between atoms: C_4  and  C_5
REMARK                            x       y       z     vdW  Elec       q    Type
REMARK                         _______ _______ _______ _____ _____    ______ ____
ROOT
ATOM      1  S   UNL     1       4.942  15.123  17.850  0.00  0.00    +0.000 S 
ATOM      2  C   UNL     1       6.630  15.213  17.952  0.00  0.00    +0.000 C 
ATOM      3  C   UNL     1       7.240  16.508  18.464  0.00  0.00    +0.000 C 
ATOM      4  C   UNL     1       8.586  16.514  19.177  0.00  0.00    +0.000 C 
ATOM      5  S   UNL     1       9.851  16.102  17.931  0.00  0.00    +0.000 S 
ATOM      6  C   UNL     1       9.733  14.334  18.030  0.00  0.00    +0.000 A 
ATOM      7  C   UNL     1      10.910  13.663  18.404  0.00  0.00    +0.000 A 
ATOM      8  C   UNL     1      10.923  12.279  18.544  0.00  0.00    +0.000 A 
ATOM      9 CL   UNL     1      12.333  11.487  19.128  0.00  0.00    +0.000 Cl
ATOM     10  C   UNL     1       9.791  11.539  18.238  0.00  0.00    +0.000 A 
ATOM     11  C   UNL     1       8.630  12.197  17.822  0.00  0.00    +0.000 A 
ATOM     12  C   UNL     1       8.568  13.600  17.775  0.00  0.00    +0.000 A 
ATOM     13  N   UNL     1       7.275  14.102  17.529  0.00  0.00    +0.000 N 
ATOM     14  H   UNL     1       6.603  13.403  17.224  0.00  0.00    +0.000 HD
ENDROOT
BRANCH   4  15
ATOM     15  C   UNL     1       8.732  15.776  20.508  0.00  0.00    +0.000 A 
ATOM     16  C   UNL     1       7.722  14.964  21.042  0.00  0.00    +0.000 A 
ATOM     17  C   UNL     1       7.905  14.287  22.253  0.00  0.00    +0.000 A 
ATOM     18  C   UNL     1       9.100  14.416  22.953  0.00  0.00    +0.000 A 
ATOM     19  C   UNL     1      10.102  15.234  22.458  0.00  0.00    +0.000 A 
ATOM     20  C   UNL     1       9.918  15.918  21.252  0.00  0.00    +0.000 A 
ENDBRANCH   4  15
TORSDOF 1
ENDMDL
