MODEL 1
REMARK VINA RESULT:      -6.8      0.000      0.000
REMARK  Name = 
REMARK  4 active torsions:
REMARK  status: ('A' for Active; 'I' for Inactive)
REMARK    1  A    between atoms: C_2  and  C_3
REMARK    2  A    between atoms: C_3  and  N_4
REMARK    3  A    between atoms: N_13  and  C_14
REMARK    4  A    between atoms: C_14  and  C_15
REMARK                            x       y       z     vdW  Elec       q    Type
REMARK                         _______ _______ _______ _____ _____    ______ ____
ROOT
ATOM      1  O   UNL     1       2.946   6.555  19.652  0.00  0.00    +0.000 OA
ATOM      2  C   UNL     1       2.886   6.458  18.415  0.00  0.00    +0.000 C 
ATOM      3  N   UNL     1       2.249   5.429  17.763  0.00  0.00    +0.000 N 
ATOM      4  H   UNL     1       2.248   5.450  16.753  0.00  0.00    +0.000 HD
ENDROOT
BRANCH   2   5
ATOM      5  C   UNL     1       3.581   7.486  17.490  0.00  0.00    +0.000 C 
BRANCH   5   6
ATOM      6  N   UNL     1       4.862   6.981  17.021  0.00  0.00    +0.000 NA
ATOM      7  C   UNL     1       4.997   6.608  15.614  0.00  0.00    +0.000 C 
ATOM      8  C   UNL     1       5.857   5.348  15.357  0.00  0.00    +0.000 C 
ATOM      9  C   UNL     1       6.806   5.094  16.464  0.00  0.00    +0.000 A 
ATOM     10  N   UNL     1       7.670   4.077  16.478  0.00  0.00    +0.000 NA
ATOM     11  O   UNL     1       8.313   4.168  17.707  0.00  0.00    +0.000 OA
ATOM     12  C   UNL     1       7.814   5.224  18.401  0.00  0.00    +0.000 A 
ATOM     13  C   UNL     1       6.848   5.845  17.651  0.00  0.00    +0.000 A 
ATOM     14  C   UNL     1       5.983   7.003  17.944  0.00  0.00    +0.000 C 
ENDBRANCH   5   6
ENDBRANCH   2   5
BRANCH   3  15
ATOM     15  C   UNL     1       1.552   4.393  18.494  0.00  0.00    +0.000 C 
BRANCH  15  16
ATOM     16  C   UNL     1       1.982   2.948  18.175  0.00  0.00    +0.000 C 
ATOM     17  C   UNL     1       3.449   2.947  17.702  0.00  0.00    +0.000 C 
ATOM     18  C   UNL     1       4.429   3.290  18.828  0.00  0.00    +0.000 C 
ATOM     19  C   UNL     1       4.241   2.381  20.039  0.00  0.00    +0.000 C 
ATOM     20  C   UNL     1       2.790   2.313  20.509  0.00  0.00    +0.000 C 
ATOM     21  C   UNL     1       1.836   1.986  19.362  0.00  0.00    +0.000 C 
ENDBRANCH  15  16
ENDBRANCH   3  15
TORSDOF 4
ENDMDL
MODEL 2
REMARK VINA RESULT:      -6.7      3.053      6.163
REMARK  Name = 
REMARK  4 active torsions:
REMARK  status: ('A' for Active; 'I' for Inactive)
REMARK    1  A    between atoms: C_2  and  C_3
REMARK    2  A    between atoms: C_3  and  N_4
REMARK    3  A    between atoms: N_13  and  C_14
REMARK    4  A    between atoms: C_14  and  C_15
REMARK                            x       y       z     vdW  Elec       q    Type
REMARK                         _______ _______ _______ _____ _____    ______ ____
ROOT
ATOM      1  O   UNL     1       7.779   4.569  15.988  0.00  0.00    +0.000 OA
ATOM      2  C   UNL     1       6.598   4.952  15.948  0.00  0.00    +0.000 C 
ATOM      3  N   UNL     1       5.698   4.543  14.993  0.00  0.00    +0.000 N 
ATOM      4  H   UNL     1       4.757   4.906  15.058  0.00  0.00    +0.000 HD
ENDROOT
BRANCH   2   5
ATOM      5  C   UNL     1       6.049   5.983  16.965  0.00  0.00    +0.000 C 
BRANCH   5   6
ATOM      6  N   UNL     1       5.041   5.380  17.822  0.00  0.00    +0.000 NA
ATOM      7  C   UNL     1       5.474   4.507  18.910  0.00  0.00    +0.000 C 
ATOM      8  C   UNL     1       4.573   3.272  19.151  0.00  0.00    +0.000 C 
ATOM      9  C   UNL     1       3.199   3.489  18.647  0.00  0.00    +0.000 A 
ATOM     10  N   UNL     1       2.224   2.582  18.746  0.00  0.00    +0.000 NA
ATOM     11  O   UNL     1       1.134   3.153  18.099  0.00  0.00    +0.000 OA
ATOM     12  C   UNL     1       1.482   4.376  17.621  0.00  0.00    +0.000 A 
ATOM     13  C   UNL     1       2.790   4.634  17.943  0.00  0.00    +0.000 A 
ATOM     14  C   UNL     1       3.657   5.788  17.639  0.00  0.00    +0.000 C 
ENDBRANCH   5   6
ENDBRANCH   2   5
BRANCH   3  15
ATOM     15  C   UNL     1       6.065   3.580  13.977  0.00  0.00    +0.000 C 
BRANCH  15  16
ATOM     16  C   UNL     1       5.842   4.033  12.521  0.00  0.00    +0.000 C 
ATOM     17  C   UNL     1       7.196   4.063  11.785  0.00  0.00    +0.000 C 
ATOM     18  C   UNL     1       7.772   2.662  11.560  0.00  0.00    +0.000 C 
ATOM     19  C   UNL     1       6.779   1.749  10.846  0.00  0.00    +0.000 C 
ATOM     20  C   UNL     1       5.406   1.730  11.515  0.00  0.00    +0.000 C 
ATOM     21  C   UNL     1       4.865   3.141  11.742  0.00  0.00    +0.000 C 
ENDBRANCH  15  16
ENDBRANCH   3  15
TORSDOF 4
ENDMDL
MODEL 3
REMARK VINA RESULT:      -6.6      3.589      5.363
REMARK  Name = 
REMARK  4 active torsions:
REMARK  status: ('A' for Active; 'I' for Inactive)
REMARK    1  A    between atoms: C_2  and  C_3
REMARK    2  A    between atoms: C_3  and  N_4
REMARK    3  A    between atoms: N_13  and  C_14
REMARK    4  A    between atoms: C_14  and  C_15
REMARK                            x       y       z     vdW  Elec       q    Type
REMARK                         _______ _______ _______ _____ _____    ______ ____
ROOT
ATOM      1  O   UNL     1       2.817   7.356  18.660  0.00  0.00    +0.000 OA
ATOM      2  C   UNL     1       2.511   6.515  19.521  0.00  0.00    +0.000 C 
ATOM      3  N   UNL     1       1.923   6.835  20.721  0.00  0.00    +0.000 N 
ATOM      4  H   UNL     1       1.703   6.074  21.347  0.00  0.00    +0.000 HD
ENDROOT
BRANCH   2   5
ATOM      5  C   UNL     1       2.820   5.011  19.326  0.00  0.00    +0.000 C 
BRANCH   5   6
ATOM      6  N   UNL     1       4.087   4.825  18.638  0.00  0.00    +0.000 NA
ATOM      7  C   UNL     1       5.327   4.963  19.400  0.00  0.00    +0.000 C 
ATOM      8  C   UNL     1       6.482   5.658  18.641  0.00  0.00    +0.000 C 
ATOM      9  C   UNL     1       6.320   5.548  17.174  0.00  0.00    +0.000 A 
ATOM     10  N   UNL     1       7.190   6.050  16.294  0.00  0.00    +0.000 NA
ATOM     11  O   UNL     1       6.634   5.788  15.048  0.00  0.00    +0.000 OA
ATOM     12  C   UNL     1       5.446   5.148  15.208  0.00  0.00    +0.000 A 
ATOM     13  C   UNL     1       5.201   4.974  16.547  0.00  0.00    +0.000 A 
ATOM     14  C   UNL     1       4.055   4.376  17.256  0.00  0.00    +0.000 C 
ENDBRANCH   5   6
ENDBRANCH   2   5
BRANCH   3  15
ATOM     15  C   UNL     1       1.572   8.201  21.046  0.00  0.00    +0.000 C 
BRANCH  15  16
ATOM     16  C   UNL     1       0.094   8.577  20.830  0.00  0.00    +0.000 C 
ATOM     17  C   UNL     1      -0.636   8.573  22.187  0.00  0.00    +0.000 C 
ATOM     18  C   UNL     1      -0.185   9.717  23.099  0.00  0.00    +0.000 C 
ATOM     19  C   UNL     1      -0.312  11.074  22.411  0.00  0.00    +0.000 C 
ATOM     20  C   UNL     1       0.355  11.105  21.038  0.00  0.00    +0.000 C 
ATOM     21  C   UNL     1      -0.102   9.944  20.158  0.00  0.00    +0.000 C 
ENDBRANCH  15  16
ENDBRANCH   3  15
TORSDOF 4
ENDMDL
MODEL 4
REMARK VINA RESULT:      -6.5      1.266      1.584
REMARK  Name = 
REMARK  4 active torsions:
REMARK  status: ('A' for Active; 'I' for Inactive)
REMARK    1  A    between atoms: C_2  and  C_3
REMARK    2  A    between atoms: C_3  and  N_4
REMARK    3  A    between atoms: N_13  and  C_14
REMARK    4  A    between atoms: C_14  and  C_15
REMARK                            x       y       z     vdW  Elec       q    Type
REMARK                         _______ _______ _______ _____ _____    ______ ____
ROOT
ATOM      1  O   UNL     1       2.674   8.025  17.787  0.00  0.00    +0.000 OA
ATOM      2  C   UNL     1       3.399   7.107  17.371  0.00  0.00    +0.000 C 
ATOM      3  N   UNL     1       3.491   5.877  17.977  0.00  0.00    +0.000 N 
ATOM      4  H   UNL     1       4.103   5.195  17.550  0.00  0.00    +0.000 HD
ENDROOT
BRANCH   2   5
ATOM      5  C   UNL     1       4.314   7.298  16.137  0.00  0.00    +0.000 C 
BRANCH   5   6
ATOM      6  N   UNL     1       5.607   6.667  16.345  0.00  0.00    +0.000 NA
ATOM      7  C   UNL     1       5.988   5.544  15.490  0.00  0.00    +0.000 C 
ATOM      8  C   UNL     1       6.754   4.410  16.210  0.00  0.00    +0.000 C 
ATOM      9  C   UNL     1       7.430   4.894  17.434  0.00  0.00    +0.000 A 
ATOM     10  N   UNL     1       8.170   4.116  18.227  0.00  0.00    +0.000 NA
ATOM     11  O   UNL     1       8.557   4.938  19.280  0.00  0.00    +0.000 OA
ATOM     12  C   UNL     1       8.033   6.178  19.100  0.00  0.00    +0.000 A 
ATOM     13  C   UNL     1       7.304   6.200  17.938  0.00  0.00    +0.000 A 
ATOM     14  C   UNL     1       6.515   7.273  17.304  0.00  0.00    +0.000 C 
ENDBRANCH   5   6
ENDBRANCH   2   5
BRANCH   3  15
ATOM     15  C   UNL     1       2.695   5.550  19.140  0.00  0.00    +0.000 C 
BRANCH  15  16
ATOM     16  C   UNL     1       1.844   4.270  19.025  0.00  0.00    +0.000 C 
ATOM     17  C   UNL     1       2.770   3.065  18.772  0.00  0.00    +0.000 C 
ATOM     18  C   UNL     1       3.632   2.721  19.990  0.00  0.00    +0.000 C 
ATOM     19  C   UNL     1       2.784   2.510  21.242  0.00  0.00    +0.000 C 
ATOM     20  C   UNL     1       1.814   3.661  21.501  0.00  0.00    +0.000 C 
ATOM     21  C   UNL     1       0.981   3.991  20.264  0.00  0.00    +0.000 C 
ENDBRANCH  15  16
ENDBRANCH   3  15
TORSDOF 4
ENDMDL
MODEL 5
REMARK VINA RESULT:      -6.5      4.143      7.606
REMARK  Name = 
REMARK  4 active torsions:
REMARK  status: ('A' for Active; 'I' for Inactive)
REMARK    1  A    between atoms: C_2  and  C_3
REMARK    2  A    between atoms: C_3  and  N_4
REMARK    3  A    between atoms: N_13  and  C_14
REMARK    4  A    between atoms: C_14  and  C_15
REMARK                            x       y       z     vdW  Elec       q    Type
REMARK                         _______ _______ _______ _____ _____    ______ ____
ROOT
ATOM      1  O   UNL     1       8.268   7.054  18.701  0.00  0.00    +0.000 OA
ATOM      2  C   UNL     1       7.803   7.788  17.813  0.00  0.00    +0.000 C 
ATOM      3  N   UNL     1       8.047   9.138  17.738  0.00  0.00    +0.000 N 
ATOM      4  H   UNL     1       7.630   9.643  16.969  0.00  0.00    +0.000 HD
ENDROOT
BRANCH   2   5
ATOM      5  C   UNL     1       6.852   7.235  16.724  0.00  0.00    +0.000 C 
BRANCH   5   6
ATOM      6  N   UNL     1       6.006   6.180  17.260  0.00  0.00    +0.000 NA
ATOM      7  C   UNL     1       6.406   4.789  17.061  0.00  0.00    +0.000 C 
ATOM      8  C   UNL     1       5.240   3.814  16.770  0.00  0.00    +0.000 C 
ATOM      9  C   UNL     1       3.952   4.328  17.285  0.00  0.00    +0.000 A 
ATOM     10  N   UNL     1       2.796   3.669  17.176  0.00  0.00    +0.000 NA
ATOM     11  O   UNL     1       1.843   4.521  17.721  0.00  0.00    +0.000 OA
ATOM     12  C   UNL     1       2.444   5.668  18.131  0.00  0.00    +0.000 A 
ATOM     13  C   UNL     1       3.789   5.594  17.873  0.00  0.00    +0.000 A 
ATOM     14  C   UNL     1       4.876   6.567  18.088  0.00  0.00    +0.000 C 
ENDBRANCH   5   6
ENDBRANCH   2   5
BRANCH   3  15
ATOM     15  C   UNL     1       8.919   9.799  18.686  0.00  0.00    +0.000 C 
BRANCH  15  16
ATOM     16  C   UNL     1       9.154  11.302  18.438  0.00  0.00    +0.000 C 
ATOM     17  C   UNL     1       9.094  12.054  19.781  0.00  0.00    +0.000 C 
ATOM     18  C   UNL     1      10.283  11.730  20.690  0.00  0.00    +0.000 C 
ATOM     19  C   UNL     1      11.616  11.968  19.985  0.00  0.00    +0.000 C 
ATOM     20  C   UNL     1      11.697  11.280  18.624  0.00  0.00    +0.000 C 
ATOM     21  C   UNL     1      10.491  11.610  17.747  0.00  0.00    +0.000 C 
ENDBRANCH  15  16
ENDBRANCH   3  15
TORSDOF 4
ENDMDL
MODEL 6
REMARK VINA RESULT:      -6.5      1.645      2.680
REMARK  Name = 
REMARK  4 active torsions:
REMARK  status: ('A' for Active; 'I' for Inactive)
REMARK    1  A    between atoms: C_2  and  C_3
REMARK    2  A    between atoms: C_3  and  N_4
REMARK    3  A    between atoms: N_13  and  C_14
REMARK    4  A    between atoms: C_14  and  C_15
REMARK                            x       y       z     vdW  Elec       q    Type
REMARK                         _______ _______ _______ _____ _____    ______ ____
ROOT
ATOM      1  O   UNL     1       1.630   6.722  18.283  0.00  0.00    +0.000 OA
ATOM      2  C   UNL     1       2.798   6.668  18.704  0.00  0.00    +0.000 C 
ATOM      3  N   UNL     1       3.163   6.003  19.850  0.00  0.00    +0.000 N 
ATOM      4  H   UNL     1       4.142   6.011  20.098  0.00  0.00    +0.000 HD
ENDROOT
BRANCH   2   5
ATOM      5  C   UNL     1       3.951   7.405  17.981  0.00  0.00    +0.000 C 
BRANCH   5   6
ATOM      6  N   UNL     1       4.940   6.461  17.484  0.00  0.00    +0.000 NA
ATOM      7  C   UNL     1       6.314   6.561  17.972  0.00  0.00    +0.000 C 
ATOM      8  C   UNL     1       7.403   6.294  16.906  0.00  0.00    +0.000 C 
ATOM      9  C   UNL     1       6.888   5.470  15.789  0.00  0.00    +0.000 A 
ATOM     10  N   UNL     1       7.633   5.087  14.749  0.00  0.00    +0.000 NA
ATOM     11  O   UNL     1       6.760   4.398  13.916  0.00  0.00    +0.000 OA
ATOM     12  C   UNL     1       5.518   4.394  14.466  0.00  0.00    +0.000 A 
ATOM     13  C   UNL     1       5.548   5.067  15.661  0.00  0.00    +0.000 A 
ATOM     14  C   UNL     1       4.481   5.378  16.630  0.00  0.00    +0.000 C 
ENDBRANCH   5   6
ENDBRANCH   2   5
BRANCH   3  15
ATOM     15  C   UNL     1       2.194   5.265  20.632  0.00  0.00    +0.000 C 
BRANCH  15  16
ATOM     16  C   UNL     1       2.570   3.805  20.952  0.00  0.00    +0.000 C 
ATOM     17  C   UNL     1       1.285   2.965  21.076  0.00  0.00    +0.000 C 
ATOM     18  C   UNL     1       0.569   2.784  19.734  0.00  0.00    +0.000 C 
ATOM     19  C   UNL     1       1.500   2.210  18.669  0.00  0.00    +0.000 C 
ATOM     20  C   UNL     1       2.810   2.985  18.549  0.00  0.00    +0.000 C 
ATOM     21  C   UNL     1       3.492   3.164  19.904  0.00  0.00    +0.000 C 
ENDBRANCH  15  16
ENDBRANCH   3  15
TORSDOF 4
ENDMDL
MODEL 7
REMARK VINA RESULT:      -6.4      0.983      1.760
REMARK  Name = 
REMARK  4 active torsions:
REMARK  status: ('A' for Active; 'I' for Inactive)
REMARK    1  A    between atoms: C_2  and  C_3
REMARK    2  A    between atoms: C_3  and  N_4
REMARK    3  A    between atoms: N_13  and  C_14
REMARK    4  A    between atoms: C_14  and  C_15
REMARK                            x       y       z     vdW  Elec       q    Type
REMARK                         _______ _______ _______ _____ _____    ______ ____
ROOT
ATOM      1  O   UNL     1       1.878   5.785  17.597  0.00  0.00    +0.000 OA
ATOM      2  C   UNL     1       2.766   6.328  18.275  0.00  0.00    +0.000 C 
ATOM      3  N   UNL     1       3.033   6.001  19.582  0.00  0.00    +0.000 N 
ATOM      4  H   UNL     1       3.785   6.496  20.040  0.00  0.00    +0.000 HD
ENDROOT
BRANCH   2   5
ATOM      5  C   UNL     1       3.629   7.478  17.700  0.00  0.00    +0.000 C 
BRANCH   5   6
ATOM      6  N   UNL     1       4.893   6.974  17.189  0.00  0.00    +0.000 NA
ATOM      7  C   UNL     1       4.988   6.618  15.775  0.00  0.00    +0.000 C 
ATOM      8  C   UNL     1       5.834   5.358  15.477  0.00  0.00    +0.000 C 
ATOM      9  C   UNL     1       6.812   5.086  16.553  0.00  0.00    +0.000 A 
ATOM     10  N   UNL     1       7.673   4.065  16.530  0.00  0.00    +0.000 NA
ATOM     11  O   UNL     1       8.350   4.138  17.741  0.00  0.00    +0.000 OA
ATOM     12  C   UNL     1       7.876   5.187  18.463  0.00  0.00    +0.000 A 
ATOM     13  C   UNL     1       6.892   5.822  17.748  0.00  0.00    +0.000 A 
ATOM     14  C   UNL     1       6.041   6.979  18.081  0.00  0.00    +0.000 C 
ENDBRANCH   5   6
ENDBRANCH   2   5
BRANCH   3  15
ATOM     15  C   UNL     1       2.310   4.943  20.255  0.00  0.00    +0.000 C 
BRANCH  15  16
ATOM     16  C   UNL     1       3.119   3.664  20.546  0.00  0.00    +0.000 C 
ATOM     17  C   UNL     1       2.175   2.447  20.513  0.00  0.00    +0.000 C 
ATOM     18  C   UNL     1       1.662   2.140  19.103  0.00  0.00    +0.000 C 
ATOM     19  C   UNL     1       2.807   1.976  18.107  0.00  0.00    +0.000 C 
ATOM     20  C   UNL     1       3.795   3.139  18.144  0.00  0.00    +0.000 C 
ATOM     21  C   UNL     1       4.276   3.431  19.564  0.00  0.00    +0.000 C 
ENDBRANCH  15  16
ENDBRANCH   3  15
TORSDOF 4
ENDMDL
MODEL 8
REMARK VINA RESULT:      -6.4      2.010      3.218
REMARK  Name = 
REMARK  4 active torsions:
REMARK  status: ('A' for Active; 'I' for Inactive)
REMARK    1  A    between atoms: C_2  and  C_3
REMARK    2  A    between atoms: C_3  and  N_4
REMARK    3  A    between atoms: N_13  and  C_14
REMARK    4  A    between atoms: C_14  and  C_15
REMARK                            x       y       z     vdW  Elec       q    Type
REMARK                         _______ _______ _______ _____ _____    ______ ____
ROOT
ATOM      1  O   UNL     1       4.614   5.492  20.013  0.00  0.00    +0.000 OA
ATOM      2  C   UNL     1       5.467   4.748  19.500  0.00  0.00    +0.000 C 
ATOM      3  N   UNL     1       5.342   3.382  19.431  0.00  0.00    +0.000 N 
ATOM      4  H   UNL     1       6.088   2.870  18.983  0.00  0.00    +0.000 HD
ENDROOT
BRANCH   2   5
ATOM      5  C   UNL     1       6.791   5.313  18.930  0.00  0.00    +0.000 C 
BRANCH   5   6
ATOM      6  N   UNL     1       6.681   5.550  17.499  0.00  0.00    +0.000 NA
ATOM      7  C   UNL     1       6.020   6.768  17.037  0.00  0.00    +0.000 C 
ATOM      8  C   UNL     1       5.140   6.592  15.776  0.00  0.00    +0.000 C 
ATOM      9  C   UNL     1       5.558   5.420  14.975  0.00  0.00    +0.000 A 
ATOM     10  N   UNL     1       4.970   5.059  13.832  0.00  0.00    +0.000 NA
ATOM     11  O   UNL     1       5.616   3.889  13.449  0.00  0.00    +0.000 OA
ATOM     12  C   UNL     1       6.562   3.572  14.371  0.00  0.00    +0.000 A 
ATOM     13  C   UNL     1       6.562   4.517  15.365  0.00  0.00    +0.000 A 
ATOM     14  C   UNL     1       7.358   4.629  16.601  0.00  0.00    +0.000 C 
ENDBRANCH   5   6
ENDBRANCH   2   5
BRANCH   3  15
ATOM     15  C   UNL     1       4.158   2.710  19.922  0.00  0.00    +0.000 C 
BRANCH  15  16
ATOM     16  C   UNL     1       3.304   2.001  18.853  0.00  0.00    +0.000 C 
ATOM     17  C   UNL     1       1.819   2.074  19.257  0.00  0.00    +0.000 C 
ATOM     18  C   UNL     1       1.256   3.495  19.169  0.00  0.00    +0.000 C 
ATOM     19  C   UNL     1       1.481   4.109  17.790  0.00  0.00    +0.000 C 
ATOM     20  C   UNL     1       2.933   4.012  17.329  0.00  0.00    +0.000 C 
ATOM     21  C   UNL     1       3.471   2.587  17.443  0.00  0.00    +0.000 C 
ENDBRANCH  15  16
ENDBRANCH   3  15
TORSDOF 4
ENDMDL
MODEL 9
REMARK VINA RESULT:      -6.4      2.059      5.223
REMARK  Name = 
REMARK  4 active torsions:
REMARK  status: ('A' for Active; 'I' for Inactive)
REMARK    1  A    between atoms: C_2  and  C_3
REMARK    2  A    between atoms: C_3  and  N_4
REMARK    3  A    between atoms: N_13  and  C_14
REMARK    4  A    between atoms: C_14  and  C_15
REMARK                            x       y       z     vdW  Elec       q    Type
REMARK                         _______ _______ _______ _____ _____    ______ ____
ROOT
ATOM      1  O   UNL     1       2.793   7.018  18.956  0.00  0.00    +0.000 OA
ATOM      2  C   UNL     1       2.871   6.166  18.055  0.00  0.00    +0.000 C 
ATOM      3  N   UNL     1       3.925   6.082  17.178  0.00  0.00    +0.000 N 
ATOM      4  H   UNL     1       3.897   5.344  16.489  0.00  0.00    +0.000 HD
ENDROOT
BRANCH   2   5
ATOM      5  C   UNL     1       1.737   5.140  17.815  0.00  0.00    +0.000 C 
BRANCH   5   6
ATOM      6  N   UNL     1       1.885   3.988  18.690  0.00  0.00    +0.000 NA
ATOM      7  C   UNL     1       0.815   3.683  19.638  0.00  0.00    +0.000 C 
ATOM      8  C   UNL     1       1.295   3.182  21.020  0.00  0.00    +0.000 C 
ATOM      9  C   UNL     1       2.648   2.586  20.949  0.00  0.00    +0.000 A 
ATOM     10  N   UNL     1       3.283   2.066  22.002  0.00  0.00    +0.000 NA
ATOM     11  O   UNL     1       4.530   1.685  21.519  0.00  0.00    +0.000 OA
ATOM     12  C   UNL     1       4.616   1.994  20.198  0.00  0.00    +0.000 A 
ATOM     13  C   UNL     1       3.442   2.573  19.789  0.00  0.00    +0.000 A 
ATOM     14  C   UNL     1       3.028   3.115  18.482  0.00  0.00    +0.000 C 
ENDBRANCH   5   6
ENDBRANCH   2   5
BRANCH   3  15
ATOM     15  C   UNL     1       5.061   6.973  17.279  0.00  0.00    +0.000 C 
BRANCH  15  16
ATOM     16  C   UNL     1       6.354   6.482  16.599  0.00  0.00    +0.000 C 
ATOM     17  C   UNL     1       7.558   7.239  17.190  0.00  0.00    +0.000 C 
ATOM     18  C   UNL     1       7.840   6.850  18.645  0.00  0.00    +0.000 C 
ATOM     19  C   UNL     1       8.007   5.341  18.805  0.00  0.00    +0.000 C 
ATOM     20  C   UNL     1       6.857   4.550  18.186  0.00  0.00    +0.000 C 
ATOM     21  C   UNL     1       6.589   4.971  16.742  0.00  0.00    +0.000 C 
ENDBRANCH  15  16
ENDBRANCH   3  15
TORSDOF 4
ENDMDL
