MODEL 1
REMARK VINA RESULT:      -7.3      0.000      0.000
REMARK  Name = 
REMARK  8 active torsions:
REMARK  status: ('A' for Active; 'I' for Inactive)
REMARK    1  A    between atoms: C_1  and  C_2
REMARK    2  A    between atoms: N_5  and  C_6
REMARK    3  A    between atoms: C_6  and  C_7
REMARK    4  A    between atoms: C_7  and  C_8
REMARK    5  A    between atoms: N_10  and  C_11
REMARK    6  A    between atoms: C_11  and  C_12
REMARK    7  A    between atoms: C_11  and  C_13
REMARK    8  A    between atoms: C_13  and  C_14
REMARK                            x       y       z     vdW  Elec       q    Type
REMARK                         _______ _______ _______ _____ _____    ______ ____
ROOT
ATOM      1  C   UNL     1       4.653   4.506  16.586  0.00  0.00    +0.000 C 
ATOM      2  O   UNL     1       4.394   3.491  17.228  0.00  0.00    +0.000 OA
ATOM      3  N   UNL     1       4.175   5.751  16.927  0.00  0.00    +0.000 N 
ATOM      4  H   UNL     1       4.452   6.561  16.384  0.00  0.00    +0.000 HD
ENDROOT
BRANCH   3   5
ATOM      5  C   UNL     1       3.271   5.940  18.060  0.00  0.00    +0.000 C 
ATOM      6  C   UNL     1       2.855   7.409  18.139  0.00  0.00    +0.000 C 
BRANCH   5   7
ATOM      7  C   UNL     1       2.026   5.040  17.977  0.00  0.00    +0.000 C 
BRANCH   7   8
ATOM      8  C   UNL     1       1.796   4.257  19.220  0.00  0.00    +0.000 A 
ATOM      9  C   UNL     1       1.696   4.595  20.555  0.00  0.00    +0.000 A 
ATOM     10  C   UNL     1       1.435   3.390  21.251  0.00  0.00    +0.000 A 
ATOM     11  C   UNL     1       1.403   2.398  20.300  0.00  0.00    +0.000 A 
ATOM     12  O   UNL     1       1.618   2.914  19.064  0.00  0.00    +0.000 OA
ENDBRANCH   7   8
ENDBRANCH   5   7
ENDBRANCH   3   5
BRANCH   1  13
ATOM     13  C   UNL     1       5.562   4.491  15.381  0.00  0.00    +0.000 C 
BRANCH  13  14
ATOM     14  C   UNL     1       7.007   4.444  15.858  0.00  0.00    +0.000 C 
BRANCH  14  19
ATOM     15  C   UNL     1       7.989   8.749  17.836  0.00  0.00    +0.000 C 
ATOM     16  C   UNL     1       7.761   7.287  17.758  0.00  0.00    +0.000 A 
ATOM     17  C   UNL     1       7.897   6.331  18.791  0.00  0.00    +0.000 A 
ATOM     18  C   UNL     1       7.590   5.128  18.204  0.00  0.00    +0.000 A 
ATOM     19  N   UNL     1       7.301   5.408  16.900  0.00  0.00    +0.000 N 
ATOM     20  N   UNL     1       7.390   6.719  16.603  0.00  0.00    +0.000 NA
ENDBRANCH  14  19
ENDBRANCH  13  14
ENDBRANCH   1  13
TORSDOF 6
ENDMDL
MODEL 2
REMARK VINA RESULT:      -7.3      1.814      3.000
REMARK  Name = 
REMARK  8 active torsions:
REMARK  status: ('A' for Active; 'I' for Inactive)
REMARK    1  A    between atoms: C_1  and  C_2
REMARK    2  A    between atoms: N_5  and  C_6
REMARK    3  A    between atoms: C_6  and  C_7
REMARK    4  A    between atoms: C_7  and  C_8
REMARK    5  A    between atoms: N_10  and  C_11
REMARK    6  A    between atoms: C_11  and  C_12
REMARK    7  A    between atoms: C_11  and  C_13
REMARK    8  A    between atoms: C_13  and  C_14
REMARK                            x       y       z     vdW  Elec       q    Type
REMARK                         _______ _______ _______ _____ _____    ______ ____
ROOT
ATOM      1  C   UNL     1       5.044   6.211  17.520  0.00  0.00    +0.000 C 
ATOM      2  O   UNL     1       4.536   7.181  16.965  0.00  0.00    +0.000 OA
ATOM      3  N   UNL     1       4.316   5.120  17.939  0.00  0.00    +0.000 N 
ATOM      4  H   UNL     1       4.793   4.329  18.356  0.00  0.00    +0.000 HD
ENDROOT
BRANCH   3   5
ATOM      5  C   UNL     1       2.862   5.070  17.799  0.00  0.00    +0.000 C 
ATOM      6  C   UNL     1       2.439   3.665  17.371  0.00  0.00    +0.000 C 
BRANCH   5   7
ATOM      7  C   UNL     1       2.131   5.473  19.091  0.00  0.00    +0.000 C 
BRANCH   7   8
ATOM      8  C   UNL     1       1.979   4.342  20.044  0.00  0.00    +0.000 A 
ATOM      9  C   UNL     1       0.891   3.656  20.544  0.00  0.00    +0.000 A 
ATOM     10  C   UNL     1       1.412   2.650  21.395  0.00  0.00    +0.000 A 
ATOM     11  C   UNL     1       2.778   2.794  21.365  0.00  0.00    +0.000 A 
ATOM     12  O   UNL     1       3.134   3.816  20.546  0.00  0.00    +0.000 OA
ENDBRANCH   7   8
ENDBRANCH   5   7
ENDBRANCH   3   5
BRANCH   1  13
ATOM     13  C   UNL     1       6.532   6.100  17.755  0.00  0.00    +0.000 C 
BRANCH  13  14
ATOM     14  C   UNL     1       6.996   4.720  17.313  0.00  0.00    +0.000 C 
BRANCH  14  19
ATOM     15  C   UNL     1       7.853   5.492  12.614  0.00  0.00    +0.000 C 
ATOM     16  C   UNL     1       7.264   4.874  13.825  0.00  0.00    +0.000 A 
ATOM     17  C   UNL     1       6.265   3.876  13.891  0.00  0.00    +0.000 A 
ATOM     18  C   UNL     1       6.062   3.664  15.233  0.00  0.00    +0.000 A 
ATOM     19  N   UNL     1       6.911   4.514  15.880  0.00  0.00    +0.000 N 
ATOM     20  N   UNL     1       7.661   5.258  15.045  0.00  0.00    +0.000 NA
ENDBRANCH  14  19
ENDBRANCH  13  14
ENDBRANCH   1  13
TORSDOF 6
ENDMDL
MODEL 3
REMARK VINA RESULT:      -7.1      1.828      3.063
REMARK  Name = 
REMARK  8 active torsions:
REMARK  status: ('A' for Active; 'I' for Inactive)
REMARK    1  A    between atoms: C_1  and  C_2
REMARK    2  A    between atoms: N_5  and  C_6
REMARK    3  A    between atoms: C_6  and  C_7
REMARK    4  A    between atoms: C_7  and  C_8
REMARK    5  A    between atoms: N_10  and  C_11
REMARK    6  A    between atoms: C_11  and  C_12
REMARK    7  A    between atoms: C_11  and  C_13
REMARK    8  A    between atoms: C_13  and  C_14
REMARK                            x       y       z     vdW  Elec       q    Type
REMARK                         _______ _______ _______ _____ _____    ______ ____
ROOT
ATOM      1  C   UNL     1       5.752   4.845  18.505  0.00  0.00    +0.000 C 
ATOM      2  O   UNL     1       5.562   4.338  19.607  0.00  0.00    +0.000 OA
ATOM      3  N   UNL     1       4.845   5.685  17.899  0.00  0.00    +0.000 N 
ATOM      4  H   UNL     1       5.071   6.107  17.006  0.00  0.00    +0.000 HD
ENDROOT
BRANCH   3   5
ATOM      5  C   UNL     1       3.554   5.989  18.514  0.00  0.00    +0.000 C 
ATOM      6  C   UNL     1       3.083   7.369  18.054  0.00  0.00    +0.000 C 
BRANCH   5   7
ATOM      7  C   UNL     1       2.485   4.930  18.193  0.00  0.00    +0.000 C 
BRANCH   7   8
ATOM      8  C   UNL     1       2.042   4.175  19.395  0.00  0.00    +0.000 A 
ATOM      9  C   UNL     1       1.175   3.119  19.592  0.00  0.00    +0.000 A 
ATOM     10  C   UNL     1       1.209   2.831  20.978  0.00  0.00    +0.000 A 
ATOM     11  C   UNL     1       2.084   3.732  21.535  0.00  0.00    +0.000 A 
ATOM     12  O   UNL     1       2.598   4.550  20.583  0.00  0.00    +0.000 OA
ENDBRANCH   7   8
ENDBRANCH   5   7
ENDBRANCH   3   5
BRANCH   1  13
ATOM     13  C   UNL     1       7.027   4.630  17.725  0.00  0.00    +0.000 C 
BRANCH  13  14
ATOM     14  C   UNL     1       7.060   5.611  16.562  0.00  0.00    +0.000 C 
BRANCH  14  19
ATOM     15  C   UNL     1       7.546   4.953  11.793  0.00  0.00    +0.000 C 
ATOM     16  C   UNL     1       7.080   4.710  13.178  0.00  0.00    +0.000 A 
ATOM     17  C   UNL     1       6.151   3.742  13.623  0.00  0.00    +0.000 A 
ATOM     18  C   UNL     1       6.053   3.939  14.979  0.00  0.00    +0.000 A 
ATOM     19  N   UNL     1       6.891   4.977  15.269  0.00  0.00    +0.000 N 
ATOM     20  N   UNL     1       7.535   5.461  14.189  0.00  0.00    +0.000 NA
ENDBRANCH  14  19
ENDBRANCH  13  14
ENDBRANCH   1  13
TORSDOF 6
ENDMDL
MODEL 4
REMARK VINA RESULT:      -6.9      2.240      6.198
REMARK  Name = 
REMARK  8 active torsions:
REMARK  status: ('A' for Active; 'I' for Inactive)
REMARK    1  A    between atoms: C_1  and  C_2
REMARK    2  A    between atoms: N_5  and  C_6
REMARK    3  A    between atoms: C_6  and  C_7
REMARK    4  A    between atoms: C_7  and  C_8
REMARK    5  A    between atoms: N_10  and  C_11
REMARK    6  A    between atoms: C_11  and  C_12
REMARK    7  A    between atoms: C_11  and  C_13
REMARK    8  A    between atoms: C_13  and  C_14
REMARK                            x       y       z     vdW  Elec       q    Type
REMARK                         _______ _______ _______ _____ _____    ______ ____
ROOT
ATOM      1  C   UNL     1       4.575   6.733  17.294  0.00  0.00    +0.000 C 
ATOM      2  O   UNL     1       4.686   6.960  16.093  0.00  0.00    +0.000 OA
ATOM      3  N   UNL     1       5.644   6.407  18.098  0.00  0.00    +0.000 N 
ATOM      4  H   UNL     1       5.501   6.268  19.091  0.00  0.00    +0.000 HD
ENDROOT
BRANCH   3   5
ATOM      5  C   UNL     1       6.991   6.254  17.553  0.00  0.00    +0.000 C 
ATOM      6  C   UNL     1       8.015   6.727  18.585  0.00  0.00    +0.000 C 
BRANCH   5   7
ATOM      7  C   UNL     1       7.296   4.806  17.132  0.00  0.00    +0.000 C 
BRANCH   7   8
ATOM      8  C   UNL     1       6.962   4.537  15.707  0.00  0.00    +0.000 A 
ATOM      9  C   UNL     1       6.021   3.744  15.081  0.00  0.00    +0.000 A 
ATOM     10  C   UNL     1       6.190   3.951  13.691  0.00  0.00    +0.000 A 
ATOM     11  C   UNL     1       7.224   4.847  13.559  0.00  0.00    +0.000 A 
ATOM     12  O   UNL     1       7.698   5.211  14.777  0.00  0.00    +0.000 OA
ENDBRANCH   7   8
ENDBRANCH   5   7
ENDBRANCH   3   5
BRANCH   1  13
ATOM     13  C   UNL     1       3.254   6.836  18.019  0.00  0.00    +0.000 C 
BRANCH  13  14
ATOM     14  C   UNL     1       3.366   6.101  19.347  0.00  0.00    +0.000 C 
BRANCH  14  19
ATOM     15  C   UNL     1       0.615   2.159  18.795  0.00  0.00    +0.000 C 
ATOM     16  C   UNL     1       1.831   2.968  19.044  0.00  0.00    +0.000 A 
ATOM     17  C   UNL     1       3.118   2.511  19.407  0.00  0.00    +0.000 A 
ATOM     18  C   UNL     1       3.878   3.649  19.533  0.00  0.00    +0.000 A 
ATOM     19  N   UNL     1       3.042   4.691  19.255  0.00  0.00    +0.000 N 
ATOM     20  N   UNL     1       1.789   4.304  18.947  0.00  0.00    +0.000 NA
ENDBRANCH  14  19
ENDBRANCH  13  14
ENDBRANCH   1  13
TORSDOF 6
ENDMDL
MODEL 5
REMARK VINA RESULT:      -6.9      2.109      3.578
REMARK  Name = 
REMARK  8 active torsions:
REMARK  status: ('A' for Active; 'I' for Inactive)
REMARK    1  A    between atoms: C_1  and  C_2
REMARK    2  A    between atoms: N_5  and  C_6
REMARK    3  A    between atoms: C_6  and  C_7
REMARK    4  A    between atoms: C_7  and  C_8
REMARK    5  A    between atoms: N_10  and  C_11
REMARK    6  A    between atoms: C_11  and  C_12
REMARK    7  A    between atoms: C_11  and  C_13
REMARK    8  A    between atoms: C_13  and  C_14
REMARK                            x       y       z     vdW  Elec       q    Type
REMARK                         _______ _______ _______ _____ _____    ______ ____
ROOT
ATOM      1  C   UNL     1       5.436   4.718  17.608  0.00  0.00    +0.000 C 
ATOM      2  O   UNL     1       5.781   4.726  18.787  0.00  0.00    +0.000 OA
ATOM      3  N   UNL     1       4.293   5.339  17.157  0.00  0.00    +0.000 N 
ATOM      4  H   UNL     1       4.077   5.335  16.167  0.00  0.00    +0.000 HD
ENDROOT
BRANCH   3   5
ATOM      5  C   UNL     1       3.374   6.010  18.075  0.00  0.00    +0.000 C 
ATOM      6  C   UNL     1       3.289   7.493  17.715  0.00  0.00    +0.000 C 
BRANCH   5   7
ATOM      7  C   UNL     1       1.970   5.382  18.067  0.00  0.00    +0.000 C 
BRANCH   7   8
ATOM      8  C   UNL     1       1.804   4.328  19.103  0.00  0.00    +0.000 A 
ATOM      9  C   UNL     1       1.121   4.267  20.301  0.00  0.00    +0.000 A 
ATOM     10  C   UNL     1       1.328   2.962  20.811  0.00  0.00    +0.000 A 
ATOM     11  C   UNL     1       2.128   2.317  19.898  0.00  0.00    +0.000 A 
ATOM     12  O   UNL     1       2.421   3.136  18.857  0.00  0.00    +0.000 OA
ENDBRANCH   7   8
ENDBRANCH   5   7
ENDBRANCH   3   5
BRANCH   1  13
ATOM     13  C   UNL     1       6.262   4.062  16.527  0.00  0.00    +0.000 C 
BRANCH  13  14
ATOM     14  C   UNL     1       6.722   5.131  15.546  0.00  0.00    +0.000 C 
BRANCH  14  19
ATOM     15  C   UNL     1       5.435   2.522  11.681  0.00  0.00    +0.000 C 
ATOM     16  C   UNL     1       6.172   3.524  12.484  0.00  0.00    +0.000 A 
ATOM     17  C   UNL     1       7.265   4.325  12.081  0.00  0.00    +0.000 A 
ATOM     18  C   UNL     1       7.591   5.067  13.190  0.00  0.00    +0.000 A 
ATOM     19  N   UNL     1       6.715   4.688  14.166  0.00  0.00    +0.000 N 
ATOM     20  N   UNL     1       5.835   3.754  13.760  0.00  0.00    +0.000 NA
ENDBRANCH  14  19
ENDBRANCH  13  14
ENDBRANCH   1  13
TORSDOF 6
ENDMDL
MODEL 6
REMARK VINA RESULT:      -6.9      1.918      3.304
REMARK  Name = 
REMARK  8 active torsions:
REMARK  status: ('A' for Active; 'I' for Inactive)
REMARK    1  A    between atoms: C_1  and  C_2
REMARK    2  A    between atoms: N_5  and  C_6
REMARK    3  A    between atoms: C_6  and  C_7
REMARK    4  A    between atoms: C_7  and  C_8
REMARK    5  A    between atoms: N_10  and  C_11
REMARK    6  A    between atoms: C_11  and  C_12
REMARK    7  A    between atoms: C_11  and  C_13
REMARK    8  A    between atoms: C_13  and  C_14
REMARK                            x       y       z     vdW  Elec       q    Type
REMARK                         _______ _______ _______ _____ _____    ______ ____
ROOT
ATOM      1  C   UNL     1       5.716   5.769  18.194  0.00  0.00    +0.000 C 
ATOM      2  O   UNL     1       5.862   5.399  19.355  0.00  0.00    +0.000 OA
ATOM      3  N   UNL     1       4.508   6.191  17.687  0.00  0.00    +0.000 N 
ATOM      4  H   UNL     1       4.453   6.523  16.731  0.00  0.00    +0.000 HD
ENDROOT
BRANCH   3   5
ATOM      5  C   UNL     1       3.291   6.172  18.496  0.00  0.00    +0.000 C 
ATOM      6  C   UNL     1       2.503   7.461  18.260  0.00  0.00    +0.000 C 
BRANCH   5   7
ATOM      7  C   UNL     1       2.406   4.949  18.201  0.00  0.00    +0.000 C 
BRANCH   7   8
ATOM      8  C   UNL     1       2.120   4.138  19.415  0.00  0.00    +0.000 A 
ATOM      9  C   UNL     1       0.973   3.876  20.138  0.00  0.00    +0.000 A 
ATOM     10  C   UNL     1       1.354   2.994  21.179  0.00  0.00    +0.000 A 
ATOM     11  C   UNL     1       2.703   2.784  21.028  0.00  0.00    +0.000 A 
ATOM     12  O   UNL     1       3.178   3.472  19.959  0.00  0.00    +0.000 OA
ENDBRANCH   7   8
ENDBRANCH   5   7
ENDBRANCH   3   5
BRANCH   1  13
ATOM     13  C   UNL     1       6.866   5.841  17.217  0.00  0.00    +0.000 C 
BRANCH  13  14
ATOM     14  C   UNL     1       7.044   4.476  16.569  0.00  0.00    +0.000 C 
BRANCH  14  19
ATOM     15  C   UNL     1       5.595   3.102  12.161  0.00  0.00    +0.000 C 
ATOM     16  C   UNL     1       6.314   3.882  13.196  0.00  0.00    +0.000 A 
ATOM     17  C   UNL     1       7.267   4.908  13.003  0.00  0.00    +0.000 A 
ATOM     18  C   UNL     1       7.640   5.290  14.268  0.00  0.00    +0.000 A 
ATOM     19  N   UNL     1       6.925   4.504  15.124  0.00  0.00    +0.000 N 
ATOM     20  N   UNL     1       6.103   3.642  14.496  0.00  0.00    +0.000 NA
ENDBRANCH  14  19
ENDBRANCH  13  14
ENDBRANCH   1  13
TORSDOF 6
ENDMDL
MODEL 7
REMARK VINA RESULT:      -6.9      2.477      6.288
REMARK  Name = 
REMARK  8 active torsions:
REMARK  status: ('A' for Active; 'I' for Inactive)
REMARK    1  A    between atoms: C_1  and  C_2
REMARK    2  A    between atoms: N_5  and  C_6
REMARK    3  A    between atoms: C_6  and  C_7
REMARK    4  A    between atoms: C_7  and  C_8
REMARK    5  A    between atoms: N_10  and  C_11
REMARK    6  A    between atoms: C_11  and  C_12
REMARK    7  A    between atoms: C_11  and  C_13
REMARK    8  A    between atoms: C_13  and  C_14
REMARK                            x       y       z     vdW  Elec       q    Type
REMARK                         _______ _______ _______ _____ _____    ______ ____
ROOT
ATOM      1  C   UNL     1       3.983   3.129  17.451  0.00  0.00    +0.000 C 
ATOM      2  O   UNL     1       3.047   3.431  16.716  0.00  0.00    +0.000 OA
ATOM      3  N   UNL     1       5.129   3.885  17.556  0.00  0.00    +0.000 N 
ATOM      4  H   UNL     1       5.854   3.611  18.208  0.00  0.00    +0.000 HD
ENDROOT
BRANCH   3   5
ATOM      5  C   UNL     1       5.330   5.085  16.745  0.00  0.00    +0.000 C 
ATOM      6  C   UNL     1       4.989   6.323  17.574  0.00  0.00    +0.000 C 
BRANCH   5   7
ATOM      7  C   UNL     1       6.764   5.193  16.198  0.00  0.00    +0.000 C 
BRANCH   7   8
ATOM      8  C   UNL     1       6.867   4.798  14.768  0.00  0.00    +0.000 A 
ATOM      9  C   UNL     1       6.201   3.879  13.982  0.00  0.00    +0.000 A 
ATOM     10  C   UNL     1       6.741   4.005  12.679  0.00  0.00    +0.000 A 
ATOM     11  C   UNL     1       7.703   4.983  12.757  0.00  0.00    +0.000 A 
ATOM     12  O   UNL     1       7.786   5.473  14.019  0.00  0.00    +0.000 OA
ENDBRANCH   7   8
ENDBRANCH   5   7
ENDBRANCH   3   5
BRANCH   1  13
ATOM     13  C   UNL     1       3.948   1.917  18.350  0.00  0.00    +0.000 C 
BRANCH  13  14
ATOM     14  C   UNL     1       3.870   2.382  19.797  0.00  0.00    +0.000 C 
BRANCH  14  19
ATOM     15  C   UNL     1       1.759   6.656  20.625  0.00  0.00    +0.000 C 
ATOM     16  C   UNL     1       1.880   5.192  20.435  0.00  0.00    +0.000 A 
ATOM     17  C   UNL     1       0.869   4.214  20.567  0.00  0.00    +0.000 A 
ATOM     18  C   UNL     1       1.493   3.019  20.305  0.00  0.00    +0.000 A 
ATOM     19  N   UNL     1       2.797   3.325  20.042  0.00  0.00    +0.000 N 
ATOM     20  N   UNL     1       3.058   4.645  20.107  0.00  0.00    +0.000 NA
ENDBRANCH  14  19
ENDBRANCH  13  14
ENDBRANCH   1  13
TORSDOF 6
ENDMDL
MODEL 8
REMARK VINA RESULT:      -6.8      1.911      6.371
REMARK  Name = 
REMARK  8 active torsions:
REMARK  status: ('A' for Active; 'I' for Inactive)
REMARK    1  A    between atoms: C_1  and  C_2
REMARK    2  A    between atoms: N_5  and  C_6
REMARK    3  A    between atoms: C_6  and  C_7
REMARK    4  A    between atoms: C_7  and  C_8
REMARK    5  A    between atoms: N_10  and  C_11
REMARK    6  A    between atoms: C_11  and  C_12
REMARK    7  A    between atoms: C_11  and  C_13
REMARK    8  A    between atoms: C_13  and  C_14
REMARK                            x       y       z     vdW  Elec       q    Type
REMARK                         _______ _______ _______ _____ _____    ______ ____
ROOT
ATOM      1  C   UNL     1       4.591   5.007  18.276  0.00  0.00    +0.000 C 
ATOM      2  O   UNL     1       4.939   4.055  18.969  0.00  0.00    +0.000 OA
ATOM      3  N   UNL     1       4.963   5.152  16.959  0.00  0.00    +0.000 N 
ATOM      4  H   UNL     1       4.615   5.938  16.422  0.00  0.00    +0.000 HD
ENDROOT
BRANCH   3   5
ATOM      5  C   UNL     1       5.856   4.196  16.307  0.00  0.00    +0.000 C 
ATOM      6  C   UNL     1       5.687   4.295  14.790  0.00  0.00    +0.000 C 
BRANCH   5   7
ATOM      7  C   UNL     1       7.330   4.410  16.690  0.00  0.00    +0.000 C 
BRANCH   7   8
ATOM      8  C   UNL     1       7.570   5.721  17.350  0.00  0.00    +0.000 A 
ATOM      9  C   UNL     1       7.953   6.092  18.623  0.00  0.00    +0.000 A 
ATOM     10  C   UNL     1       8.042   7.505  18.614  0.00  0.00    +0.000 A 
ATOM     11  C   UNL     1       7.700   7.903  17.344  0.00  0.00    +0.000 A 
ATOM     12  O   UNL     1       7.415   6.828  16.568  0.00  0.00    +0.000 OA
ENDBRANCH   7   8
ENDBRANCH   5   7
ENDBRANCH   3   5
BRANCH   1  13
ATOM     13  C   UNL     1       3.677   6.093  18.793  0.00  0.00    +0.000 C 
BRANCH  13  14
ATOM     14  C   UNL     1       2.249   5.770  18.378  0.00  0.00    +0.000 C 
BRANCH  14  19
ATOM     15  C   UNL     1       1.335   2.518  21.841  0.00  0.00    +0.000 C 
ATOM     16  C   UNL     1       1.364   3.119  20.488  0.00  0.00    +0.000 A 
ATOM     17  C   UNL     1       0.940   2.539  19.271  0.00  0.00    +0.000 A 
ATOM     18  C   UNL     1       1.191   3.492  18.315  0.00  0.00    +0.000 A 
ATOM     19  N   UNL     1       1.735   4.555  18.977  0.00  0.00    +0.000 N 
ATOM     20  N   UNL     1       1.845   4.356  20.305  0.00  0.00    +0.000 NA
ENDBRANCH  14  19
ENDBRANCH  13  14
ENDBRANCH   1  13
TORSDOF 6
ENDMDL
MODEL 9
REMARK VINA RESULT:      -6.8      2.386      4.179
REMARK  Name = 
REMARK  8 active torsions:
REMARK  status: ('A' for Active; 'I' for Inactive)
REMARK    1  A    between atoms: C_1  and  C_2
REMARK    2  A    between atoms: N_5  and  C_6
REMARK    3  A    between atoms: C_6  and  C_7
REMARK    4  A    between atoms: C_7  and  C_8
REMARK    5  A    between atoms: N_10  and  C_11
REMARK    6  A    between atoms: C_11  and  C_12
REMARK    7  A    between atoms: C_11  and  C_13
REMARK    8  A    between atoms: C_13  and  C_14
REMARK                            x       y       z     vdW  Elec       q    Type
REMARK                         _______ _______ _______ _____ _____    ______ ____
ROOT
ATOM      1  C   UNL     1       5.511   6.380  17.645  0.00  0.00    +0.000 C 
ATOM      2  O   UNL     1       5.091   7.273  16.914  0.00  0.00    +0.000 OA
ATOM      3  N   UNL     1       4.683   5.537  18.351  0.00  0.00    +0.000 N 
ATOM      4  H   UNL     1       5.082   4.792  18.909  0.00  0.00    +0.000 HD
ENDROOT
BRANCH   3   5
ATOM      5  C   UNL     1       3.229   5.688  18.317  0.00  0.00    +0.000 C 
ATOM      6  C   UNL     1       2.574   4.307  18.285  0.00  0.00    +0.000 C 
BRANCH   5   7
ATOM      7  C   UNL     1       2.693   6.501  19.508  0.00  0.00    +0.000 C 
BRANCH   7   8
ATOM      8  C   UNL     1       2.105   7.804  19.099  0.00  0.00    +0.000 A 
ATOM      9  C   UNL     1       2.044   8.489  17.902  0.00  0.00    +0.000 A 
ATOM     10  C   UNL     1       1.309   9.672  18.159  0.00  0.00    +0.000 A 
ATOM     11  C   UNL     1       0.979   9.636  19.492  0.00  0.00    +0.000 A 
ATOM     12  O   UNL     1       1.454   8.505  20.071  0.00  0.00    +0.000 OA
ENDBRANCH   7   8
ENDBRANCH   5   7
ENDBRANCH   3   5
BRANCH   1  13
ATOM     13  C   UNL     1       6.984   6.091  17.805  0.00  0.00    +0.000 C 
BRANCH  13  14
ATOM     14  C   UNL     1       7.258   4.669  17.338  0.00  0.00    +0.000 C 
BRANCH  14  19
ATOM     15  C   UNL     1       7.694   5.406  12.577  0.00  0.00    +0.000 C 
ATOM     16  C   UNL     1       7.193   4.818  13.840  0.00  0.00    +0.000 A 
ATOM     17  C   UNL     1       6.153   3.875  14.006  0.00  0.00    +0.000 A 
ATOM     18  C   UNL     1       6.070   3.671  15.362  0.00  0.00    +0.000 A 
ATOM     19  N   UNL     1       7.023   4.472  15.922  0.00  0.00    +0.000 N 
ATOM     20  N   UNL     1       7.728   5.176  15.015  0.00  0.00    +0.000 NA
ENDBRANCH  14  19
ENDBRANCH  13  14
ENDBRANCH   1  13
TORSDOF 6
ENDMDL
