MODEL 1
REMARK VINA RESULT:      -8.1      0.000      0.000
REMARK  Name = 
REMARK  1 active torsions:
REMARK  status: ('A' for Active; 'I' for Inactive)
REMARK    1  A    between atoms: N_11  and  C_12
REMARK                            x       y       z     vdW  Elec       q    Type
REMARK                         _______ _______ _______ _____ _____    ______ ____
ROOT
ATOM      1  O   UNL     1       5.842   6.995  16.150  0.00  0.00    +0.000 OA
ATOM      2  C   UNL     1       5.458   6.178  16.965  0.00  0.00    +0.000 C 
ATOM      3  N   UNL     1       6.093   5.045  17.352  0.00  0.00    +0.000 N 
ATOM      4  C   UNL     1       5.316   4.301  18.184  0.00  0.00    +0.000 C 
ATOM      5  O   UNL     1       5.540   3.181  18.591  0.00  0.00    +0.000 OA
ATOM      6  C   UNL     1       4.146   5.134  18.487  0.00  0.00    +0.000 A 
ATOM      7  C   UNL     1       4.215   6.246  17.743  0.00  0.00    +0.000 A 
ATOM      8  C   UNL     1       3.327   7.322  17.938  0.00  0.00    +0.000 A 
ATOM      9  C   UNL     1       3.069   8.538  17.310  0.00  0.00    +0.000 A 
ATOM     10  N   UNL     1       2.075   9.199  17.916  0.00  0.00    +0.000 NA
ATOM     11  N   UNL     1       1.791   8.470  19.036  0.00  0.00    +0.000 N 
ATOM     12  C   UNL     1       2.435   7.256  18.988  0.00  0.00    +0.000 A 
ATOM     13  N   UNL     1       2.322   6.081  19.739  0.00  0.00    +0.000 N 
ATOM     14  C   UNL     1       1.448   5.715  20.732  0.00  0.00    +0.000 A 
ATOM     15  C   UNL     1       1.823   4.483  21.230  0.00  0.00    +0.000 A 
ATOM     16  C   UNL     1       2.897   4.015  20.443  0.00  0.00    +0.000 A 
ATOM     17  C   UNL     1       3.177   4.992  19.510  0.00  0.00    +0.000 A 
ATOM     18  H   UNL     1       6.992   4.748  17.014  0.00  0.00    +0.000 HD
ENDROOT
BRANCH  11  19
ATOM     19  C   UNL     1       1.033   9.069  20.079  0.00  0.00    +0.000 A 
ATOM     20  C   UNL     1       0.043  10.001  19.746  0.00  0.00    +0.000 A 
ATOM     21  C   UNL     1      -0.737  10.583  20.754  0.00  0.00    +0.000 A 
ATOM     22  C   UNL     1      -0.499  10.254  22.085  0.00  0.00    +0.000 A 
ATOM     23 CL   UNL     1      -1.461  10.961  23.323  0.00  0.00    +0.000 Cl
ATOM     24  C   UNL     1       0.519   9.367  22.429  0.00  0.00    +0.000 A 
ATOM     25  C   UNL     1       1.298   8.782  21.425  0.00  0.00    +0.000 A 
ENDBRANCH  11  19
TORSDOF 1
ENDMDL
MODEL 2
REMARK VINA RESULT:      -7.9      1.215      1.237
REMARK  Name = 
REMARK  1 active torsions:
REMARK  status: ('A' for Active; 'I' for Inactive)
REMARK    1  A    between atoms: N_11  and  C_12
REMARK                            x       y       z     vdW  Elec       q    Type
REMARK                         _______ _______ _______ _____ _____    ______ ____
ROOT
ATOM      1  O   UNL     1       5.883   5.455  16.130  0.00  0.00    +0.000 OA
ATOM      2  C   UNL     1       5.184   4.713  16.792  0.00  0.00    +0.000 C 
ATOM      3  N   UNL     1       5.406   3.405  17.068  0.00  0.00    +0.000 N 
ATOM      4  C   UNL     1       4.354   2.852  17.727  0.00  0.00    +0.000 C 
ATOM      5  O   UNL     1       4.189   1.681  17.993  0.00  0.00    +0.000 OA
ATOM      6  C   UNL     1       3.455   3.967  18.050  0.00  0.00    +0.000 A 
ATOM      7  C   UNL     1       3.936   5.077  17.474  0.00  0.00    +0.000 A 
ATOM      8  C   UNL     1       3.389   6.346  17.746  0.00  0.00    +0.000 A 
ATOM      9  C   UNL     1       3.576   7.643  17.273  0.00  0.00    +0.000 A 
ATOM     10  N   UNL     1       2.759   8.508  17.885  0.00  0.00    +0.000 NA
ATOM     11  N   UNL     1       2.144   7.787  18.869  0.00  0.00    +0.000 N 
ATOM     12  C   UNL     1       2.402   6.445  18.704  0.00  0.00    +0.000 A 
ATOM     13  N   UNL     1       1.861   5.289  19.276  0.00  0.00    +0.000 N 
ATOM     14  C   UNL     1       0.809   5.105  20.138  0.00  0.00    +0.000 A 
ATOM     15  C   UNL     1       0.743   3.772  20.489  0.00  0.00    +0.000 A 
ATOM     16  C   UNL     1       1.714   3.083  19.731  0.00  0.00    +0.000 A 
ATOM     17  C   UNL     1       2.376   4.021  18.966  0.00  0.00    +0.000 A 
ATOM     18  H   UNL     1       6.210   2.884  16.764  0.00  0.00    +0.000 HD
ENDROOT
BRANCH  11  19
ATOM     19  C   UNL     1       1.482   8.474  19.922  0.00  0.00    +0.000 A 
ATOM     20  C   UNL     1       0.634   9.541  19.604  0.00  0.00    +0.000 A 
ATOM     21  C   UNL     1      -0.053  10.215  20.623  0.00  0.00    +0.000 A 
ATOM     22  C   UNL     1       0.139   9.839  21.950  0.00  0.00    +0.000 A 
ATOM     23 CL   UNL     1      -0.710  10.660  23.200  0.00  0.00    +0.000 Cl
ATOM     24  C   UNL     1       1.022   8.813  22.278  0.00  0.00    +0.000 A 
ATOM     25  C   UNL     1       1.708   8.136  21.263  0.00  0.00    +0.000 A 
ENDBRANCH  11  19
TORSDOF 1
ENDMDL
MODEL 3
REMARK VINA RESULT:      -7.7      0.767      1.260
REMARK  Name = 
REMARK  1 active torsions:
REMARK  status: ('A' for Active; 'I' for Inactive)
REMARK    1  A    between atoms: N_11  and  C_12
REMARK                            x       y       z     vdW  Elec       q    Type
REMARK                         _______ _______ _______ _____ _____    ______ ____
ROOT
ATOM      1  O   UNL     1       6.305   5.942  16.800  0.00  0.00    +0.000 OA
ATOM      2  C   UNL     1       5.698   5.201  17.549  0.00  0.00    +0.000 C 
ATOM      3  N   UNL     1       6.111   4.004  18.031  0.00  0.00    +0.000 N 
ATOM      4  C   UNL     1       5.127   3.388  18.738  0.00  0.00    +0.000 C 
ATOM      5  O   UNL     1       5.137   2.258  19.178  0.00  0.00    +0.000 OA
ATOM      6  C   UNL     1       4.045   4.374  18.856  0.00  0.00    +0.000 A 
ATOM      7  C   UNL     1       4.373   5.449  18.129  0.00  0.00    +0.000 A 
ATOM      8  C   UNL     1       3.616   6.636  18.184  0.00  0.00    +0.000 A 
ATOM      9  C   UNL     1       3.618   7.861  17.520  0.00  0.00    +0.000 A 
ATOM     10  N   UNL     1       2.641   8.659  17.965  0.00  0.00    +0.000 NA
ATOM     11  N   UNL     1       2.098   8.000  19.032  0.00  0.00    +0.000 N 
ATOM     12  C   UNL     1       2.575   6.711  19.086  0.00  0.00    +0.000 A 
ATOM     13  N   UNL     1       2.196   5.579  19.814  0.00  0.00    +0.000 N 
ATOM     14  C   UNL     1       1.141   5.353  20.663  0.00  0.00    +0.000 A 
ATOM     15  C   UNL     1       1.271   4.095  21.216  0.00  0.00    +0.000 A 
ATOM     16  C   UNL     1       2.380   3.472  20.604  0.00  0.00    +0.000 A 
ATOM     17  C   UNL     1       2.924   4.382  19.721  0.00  0.00    +0.000 A 
ATOM     18  H   UNL     1       7.004   3.585  17.835  0.00  0.00    +0.000 HD
ENDROOT
BRANCH  11  19
ATOM     19  C   UNL     1       1.278   8.717  19.945  0.00  0.00    +0.000 A 
ATOM     20  C   UNL     1       1.412   8.463  21.315  0.00  0.00    +0.000 A 
ATOM     21  C   UNL     1       0.635   9.178  22.238  0.00  0.00    +0.000 A 
ATOM     22  C   UNL     1      -0.288  10.114  21.782  0.00  0.00    +0.000 A 
ATOM     23 CL   UNL     1      -1.235  10.998  22.914  0.00  0.00    +0.000 Cl
ATOM     24  C   UNL     1      -0.464  10.335  20.418  0.00  0.00    +0.000 A 
ATOM     25  C   UNL     1       0.311   9.624  19.494  0.00  0.00    +0.000 A 
ENDBRANCH  11  19
TORSDOF 1
ENDMDL
MODEL 4
REMARK VINA RESULT:      -7.4      4.430      7.215
REMARK  Name = 
REMARK  1 active torsions:
REMARK  status: ('A' for Active; 'I' for Inactive)
REMARK    1  A    between atoms: N_11  and  C_12
REMARK                            x       y       z     vdW  Elec       q    Type
REMARK                         _______ _______ _______ _____ _____    ______ ____
ROOT
ATOM      1  O   UNL     1       2.110   7.886  20.063  0.00  0.00    +0.000 OA
ATOM      2  C   UNL     1       2.072   6.671  20.078  0.00  0.00    +0.000 C 
ATOM      3  N   UNL     1       1.179   5.885  20.727  0.00  0.00    +0.000 N 
ATOM      4  C   UNL     1       1.513   4.571  20.632  0.00  0.00    +0.000 C 
ATOM      5  O   UNL     1       0.997   3.639  21.211  0.00  0.00    +0.000 OA
ATOM      6  C   UNL     1       2.631   4.513  19.682  0.00  0.00    +0.000 A 
ATOM      7  C   UNL     1       2.983   5.766  19.367  0.00  0.00    +0.000 A 
ATOM      8  C   UNL     1       3.911   6.036  18.342  0.00  0.00    +0.000 A 
ATOM      9  C   UNL     1       4.546   7.168  17.835  0.00  0.00    +0.000 A 
ATOM     10  N   UNL     1       5.374   6.854  16.831  0.00  0.00    +0.000 NA
ATOM     11  N   UNL     1       5.156   5.528  16.588  0.00  0.00    +0.000 N 
ATOM     12  C   UNL     1       4.386   4.983  17.589  0.00  0.00    +0.000 A 
ATOM     13  N   UNL     1       4.062   3.668  17.941  0.00  0.00    +0.000 N 
ATOM     14  C   UNL     1       4.492   2.461  17.449  0.00  0.00    +0.000 A 
ATOM     15  C   UNL     1       3.788   1.447  18.067  0.00  0.00    +0.000 A 
ATOM     16  C   UNL     1       2.975   2.036  19.060  0.00  0.00    +0.000 A 
ATOM     17  C   UNL     1       3.173   3.400  18.994  0.00  0.00    +0.000 A 
ATOM     18  H   UNL     1       0.407   6.226  21.274  0.00  0.00    +0.000 HD
ENDROOT
BRANCH  11  19
ATOM     19  C   UNL     1       5.610   4.963  15.365  0.00  0.00    +0.000 A 
ATOM     20  C   UNL     1       6.955   5.112  15.010  0.00  0.00    +0.000 A 
ATOM     21  C   UNL     1       7.433   4.540  13.823  0.00  0.00    +0.000 A 
ATOM     22  C   UNL     1       6.556   3.852  12.989  0.00  0.00    +0.000 A 
ATOM     23 CL   UNL     1       7.143   3.141  11.537  0.00  0.00    +0.000 Cl
ATOM     24  C   UNL     1       5.205   3.743  13.310  0.00  0.00    +0.000 A 
ATOM     25  C   UNL     1       4.725   4.312  14.495  0.00  0.00    +0.000 A 
ENDBRANCH  11  19
TORSDOF 1
ENDMDL
MODEL 5
REMARK VINA RESULT:      -7.3      2.292      3.953
REMARK  Name = 
REMARK  1 active torsions:
REMARK  status: ('A' for Active; 'I' for Inactive)
REMARK    1  A    between atoms: N_11  and  C_12
REMARK                            x       y       z     vdW  Elec       q    Type
REMARK                         _______ _______ _______ _____ _____    ______ ____
ROOT
ATOM      1  O   UNL     1       1.412   2.077  20.438  0.00  0.00    +0.000 OA
ATOM      2  C   UNL     1       2.161   2.429  19.548  0.00  0.00    +0.000 C 
ATOM      3  N   UNL     1       2.678   1.660  18.558  0.00  0.00    +0.000 N 
ATOM      4  C   UNL     1       3.580   2.352  17.813  0.00  0.00    +0.000 C 
ATOM      5  O   UNL     1       4.309   1.912  16.949  0.00  0.00    +0.000 OA
ATOM      6  C   UNL     1       3.493   3.744  18.273  0.00  0.00    +0.000 A 
ATOM      7  C   UNL     1       2.664   3.790  19.324  0.00  0.00    +0.000 A 
ATOM      8  C   UNL     1       2.240   5.014  19.876  0.00  0.00    +0.000 A 
ATOM      9  C   UNL     1       1.487   5.411  20.979  0.00  0.00    +0.000 A 
ATOM     10  N   UNL     1       1.395   6.745  21.052  0.00  0.00    +0.000 NA
ATOM     11  N   UNL     1       1.968   7.207  19.901  0.00  0.00    +0.000 N 
ATOM     12  C   UNL     1       2.616   6.184  19.250  0.00  0.00    +0.000 A 
ATOM     13  N   UNL     1       3.519   6.148  18.183  0.00  0.00    +0.000 N 
ATOM     14  C   UNL     1       4.141   7.151  17.481  0.00  0.00    +0.000 A 
ATOM     15  C   UNL     1       4.863   6.594  16.445  0.00  0.00    +0.000 A 
ATOM     16  C   UNL     1       4.782   5.191  16.575  0.00  0.00    +0.000 A 
ATOM     17  C   UNL     1       3.978   4.927  17.665  0.00  0.00    +0.000 A 
ATOM     18  H   UNL     1       2.480   0.683  18.430  0.00  0.00    +0.000 HD
ENDROOT
BRANCH  11  19
ATOM     19  C   UNL     1       1.726   8.548  19.497  0.00  0.00    +0.000 A 
ATOM     20  C   UNL     1       1.101   9.422  20.394  0.00  0.00    +0.000 A 
ATOM     21  C   UNL     1       0.878  10.757  20.029  0.00  0.00    +0.000 A 
ATOM     22  C   UNL     1       1.253  11.197  18.763  0.00  0.00    +0.000 A 
ATOM     23 CL   UNL     1       0.988  12.837  18.317  0.00  0.00    +0.000 Cl
ATOM     24  C   UNL     1       1.828  10.320  17.846  0.00  0.00    +0.000 A 
ATOM     25  C   UNL     1       2.054   8.987  18.207  0.00  0.00    +0.000 A 
ENDBRANCH  11  19
TORSDOF 1
ENDMDL
MODEL 6
REMARK VINA RESULT:      -7.2      3.968      6.927
REMARK  Name = 
REMARK  1 active torsions:
REMARK  status: ('A' for Active; 'I' for Inactive)
REMARK    1  A    between atoms: N_11  and  C_12
REMARK                            x       y       z     vdW  Elec       q    Type
REMARK                         _______ _______ _______ _____ _____    ______ ____
ROOT
ATOM      1  O   UNL     1      -1.122  12.507  17.454  0.00  0.00    +0.000 OA
ATOM      2  C   UNL     1      -1.204  12.291  18.648  0.00  0.00    +0.000 C 
ATOM      3  N   UNL     1      -2.106  12.810  19.516  0.00  0.00    +0.000 N 
ATOM      4  C   UNL     1      -1.824  12.452  20.797  0.00  0.00    +0.000 C 
ATOM      5  O   UNL     1      -2.356  12.860  21.806  0.00  0.00    +0.000 OA
ATOM      6  C   UNL     1      -0.737  11.469  20.705  0.00  0.00    +0.000 A 
ATOM      7  C   UNL     1      -0.349  11.387  19.426  0.00  0.00    +0.000 A 
ATOM      8  C   UNL     1       0.558  10.400  18.992  0.00  0.00    +0.000 A 
ATOM      9  C   UNL     1       1.219  10.096  17.804  0.00  0.00    +0.000 A 
ATOM     10  N   UNL     1       2.004   9.021  17.943  0.00  0.00    +0.000 NA
ATOM     11  N   UNL     1       1.730   8.537  19.191  0.00  0.00    +0.000 N 
ATOM     12  C   UNL     1       0.970   9.442  19.895  0.00  0.00    +0.000 A 
ATOM     13  N   UNL     1       0.609   9.547  21.242  0.00  0.00    +0.000 N 
ATOM     14  C   UNL     1       0.979   8.818  22.344  0.00  0.00    +0.000 A 
ATOM     15  C   UNL     1       0.257   9.256  23.436  0.00  0.00    +0.000 A 
ATOM     16  C   UNL     1      -0.504  10.372  23.025  0.00  0.00    +0.000 A 
ATOM     17  C   UNL     1      -0.258  10.561  21.681  0.00  0.00    +0.000 A 
ATOM     18  H   UNL     1      -2.848  13.439  19.263  0.00  0.00    +0.000 HD
ENDROOT
BRANCH  11  19
ATOM     19  C   UNL     1       2.126   7.213  19.523  0.00  0.00    +0.000 A 
ATOM     20  C   UNL     1       3.201   6.636  18.836  0.00  0.00    +0.000 A 
ATOM     21  C   UNL     1       3.628   5.343  19.166  0.00  0.00    +0.000 A 
ATOM     22  C   UNL     1       2.958   4.627  20.155  0.00  0.00    +0.000 A 
ATOM     23 CL   UNL     1       3.488   3.043  20.566  0.00  0.00    +0.000 Cl
ATOM     24  C   UNL     1       1.856   5.174  20.807  0.00  0.00    +0.000 A 
ATOM     25  C   UNL     1       1.428   6.466  20.482  0.00  0.00    +0.000 A 
ENDBRANCH  11  19
TORSDOF 1
ENDMDL
MODEL 7
REMARK VINA RESULT:      -7.1      8.741      9.870
REMARK  Name = 
REMARK  1 active torsions:
REMARK  status: ('A' for Active; 'I' for Inactive)
REMARK    1  A    between atoms: N_11  and  C_12
REMARK                            x       y       z     vdW  Elec       q    Type
REMARK                         _______ _______ _______ _____ _____    ______ ____
ROOT
ATOM      1  O   UNL     1       9.828  17.198  17.394  0.00  0.00    +0.000 OA
ATOM      2  C   UNL     1      10.143  16.024  17.394  0.00  0.00    +0.000 C 
ATOM      3  N   UNL     1      11.109  15.434  16.649  0.00  0.00    +0.000 N 
ATOM      4  C   UNL     1      11.101  14.084  16.807  0.00  0.00    +0.000 C 
ATOM      5  O   UNL     1      11.746  13.269  16.182  0.00  0.00    +0.000 OA
ATOM      6  C   UNL     1      10.148  13.815  17.891  0.00  0.00    +0.000 A 
ATOM      7  C   UNL     1       9.557  14.968  18.228  0.00  0.00    +0.000 A 
ATOM      8  C   UNL     1       8.720  15.066  19.358  0.00  0.00    +0.000 A 
ATOM      9  C   UNL     1       7.906  16.045  19.922  0.00  0.00    +0.000 A 
ATOM     10  N   UNL     1       7.299  15.596  21.028  0.00  0.00    +0.000 NA
ATOM     11  N   UNL     1       7.845  14.366  21.262  0.00  0.00    +0.000 N 
ATOM     12  C   UNL     1       8.595  13.966  20.181  0.00  0.00    +0.000 A 
ATOM     13  N   UNL     1       9.170  12.746  19.812  0.00  0.00    +0.000 N 
ATOM     14  C   UNL     1       9.092  11.495  20.373  0.00  0.00    +0.000 A 
ATOM     15  C   UNL     1       9.932  10.642  19.687  0.00  0.00    +0.000 A 
ATOM     16  C   UNL     1      10.462  11.355  18.591  0.00  0.00    +0.000 A 
ATOM     17  C   UNL     1       9.964  12.640  18.659  0.00  0.00    +0.000 A 
ATOM     18  H   UNL     1      11.710  15.917  16.004  0.00  0.00    +0.000 HD
ENDROOT
BRANCH  11  19
ATOM     19  C   UNL     1       7.683  13.768  22.541  0.00  0.00    +0.000 A 
ATOM     20  C   UNL     1       8.612  14.061  23.547  0.00  0.00    +0.000 A 
ATOM     21  C   UNL     1       8.458  13.507  24.825  0.00  0.00    +0.000 A 
ATOM     22  C   UNL     1       7.397  12.641  25.076  0.00  0.00    +0.000 A 
ATOM     23 CL   UNL     1       7.202  11.967  26.646  0.00  0.00    +0.000 Cl
ATOM     24  C   UNL     1       6.498  12.303  24.067  0.00  0.00    +0.000 A 
ATOM     25  C   UNL     1       6.648  12.856  22.790  0.00  0.00    +0.000 A 
ENDBRANCH  11  19
TORSDOF 1
ENDMDL
MODEL 8
REMARK VINA RESULT:      -7.0      2.254      3.853
REMARK  Name = 
REMARK  1 active torsions:
REMARK  status: ('A' for Active; 'I' for Inactive)
REMARK    1  A    between atoms: N_11  and  C_12
REMARK                            x       y       z     vdW  Elec       q    Type
REMARK                         _______ _______ _______ _____ _____    ______ ____
ROOT
ATOM      1  O   UNL     1       1.529   1.990  20.217  0.00  0.00    +0.000 OA
ATOM      2  C   UNL     1       2.278   2.406  19.355  0.00  0.00    +0.000 C 
ATOM      3  N   UNL     1       2.834   1.701  18.340  0.00  0.00    +0.000 N 
ATOM      4  C   UNL     1       3.723   2.455  17.641  0.00  0.00    +0.000 C 
ATOM      5  O   UNL     1       4.477   2.080  16.769  0.00  0.00    +0.000 OA
ATOM      6  C   UNL     1       3.583   3.821  18.162  0.00  0.00    +0.000 A 
ATOM      7  C   UNL     1       2.738   3.791  19.201  0.00  0.00    +0.000 A 
ATOM      8  C   UNL     1       2.266   4.975  19.802  0.00  0.00    +0.000 A 
ATOM      9  C   UNL     1       1.485   5.296  20.910  0.00  0.00    +0.000 A 
ATOM     10  N   UNL     1       1.348   6.621  21.042  0.00  0.00    +0.000 NA
ATOM     11  N   UNL     1       1.920   7.154  19.922  0.00  0.00    +0.000 N 
ATOM     12  C   UNL     1       2.612   6.184  19.235  0.00  0.00    +0.000 A 
ATOM     13  N   UNL     1       3.530   6.227  18.181  0.00  0.00    +0.000 N 
ATOM     14  C   UNL     1       4.127   7.281  17.535  0.00  0.00    +0.000 A 
ATOM     15  C   UNL     1       4.882   6.795  16.486  0.00  0.00    +0.000 A 
ATOM     16  C   UNL     1       4.846   5.386  16.551  0.00  0.00    +0.000 A 
ATOM     17  C   UNL     1       4.037   5.046  17.615  0.00  0.00    +0.000 A 
ATOM     18  H   UNL     1       2.671   0.725  18.164  0.00  0.00    +0.000 HD
ENDROOT
BRANCH  11  19
ATOM     19  C   UNL     1       1.640   8.504  19.576  0.00  0.00    +0.000 A 
ATOM     20  C   UNL     1       1.876   8.927  18.262  0.00  0.00    +0.000 A 
ATOM     21  C   UNL     1       1.580  10.246  17.889  0.00  0.00    +0.000 A 
ATOM     22  C   UNL     1       1.082  11.134  18.837  0.00  0.00    +0.000 A 
ATOM     23 CL   UNL     1       0.710  12.750  18.377  0.00  0.00    +0.000 Cl
ATOM     24  C   UNL     1       0.893  10.736  20.158  0.00  0.00    +0.000 A 
ATOM     25  C   UNL     1       1.186   9.420  20.534  0.00  0.00    +0.000 A 
ENDBRANCH  11  19
TORSDOF 1
ENDMDL
MODEL 9
REMARK VINA RESULT:      -7.0      3.757      6.453
REMARK  Name = 
REMARK  1 active torsions:
REMARK  status: ('A' for Active; 'I' for Inactive)
REMARK    1  A    between atoms: N_11  and  C_12
REMARK                            x       y       z     vdW  Elec       q    Type
REMARK                         _______ _______ _______ _____ _____    ______ ____
ROOT
ATOM      1  O   UNL     1       1.398   7.249  20.916  0.00  0.00    +0.000 OA
ATOM      2  C   UNL     1       1.423   8.206  20.166  0.00  0.00    +0.000 C 
ATOM      3  N   UNL     1       1.758   8.210  18.853  0.00  0.00    +0.000 N 
ATOM      4  C   UNL     1       1.803   9.475  18.357  0.00  0.00    +0.000 C 
ATOM      5  O   UNL     1       2.198   9.821  17.265  0.00  0.00    +0.000 OA
ATOM      6  C   UNL     1       1.274  10.339  19.421  0.00  0.00    +0.000 A 
ATOM      7  C   UNL     1       1.068   9.588  20.510  0.00  0.00    +0.000 A 
ATOM      8  C   UNL     1       0.400  10.096  21.642  0.00  0.00    +0.000 A 
ATOM      9  C   UNL     1       0.109   9.640  22.925  0.00  0.00    +0.000 A 
ATOM     10  N   UNL     1      -0.562  10.560  23.630  0.00  0.00    +0.000 NA
ATOM     11  N   UNL     1      -0.837  11.561  22.741  0.00  0.00    +0.000 N 
ATOM     12  C   UNL     1      -0.135  11.366  21.575  0.00  0.00    +0.000 A 
ATOM     13  N   UNL     1       0.116  12.174  20.461  0.00  0.00    +0.000 N 
ATOM     14  C   UNL     1      -0.184  13.488  20.203  0.00  0.00    +0.000 A 
ATOM     15  C   UNL     1       0.188  13.788  18.908  0.00  0.00    +0.000 A 
ATOM     16  C   UNL     1       0.847  12.657  18.381  0.00  0.00    +0.000 A 
ATOM     17  C   UNL     1       0.824  11.680  19.354  0.00  0.00    +0.000 A 
ATOM     18  H   UNL     1       2.014   7.395  18.324  0.00  0.00    +0.000 HD
ENDROOT
BRANCH  11  19
ATOM     19  C   UNL     1      -1.832  12.522  23.067  0.00  0.00    +0.000 A 
ATOM     20  C   UNL     1      -1.433  13.755  23.595  0.00  0.00    +0.000 A 
ATOM     21  C   UNL     1      -2.393  14.731  23.897  0.00  0.00    +0.000 A 
ATOM     22  C   UNL     1      -3.743  14.453  23.697  0.00  0.00    +0.000 A 
ATOM     23 CL   UNL     1      -4.921  15.653  24.058  0.00  0.00    +0.000 Cl
ATOM     24  C   UNL     1      -4.151  13.210  23.220  0.00  0.00    +0.000 A 
ATOM     25  C   UNL     1      -3.195  12.234  22.916  0.00  0.00    +0.000 A 
ENDBRANCH  11  19
TORSDOF 1
ENDMDL
