MODEL 1
REMARK VINA RESULT:      -8.4      0.000      0.000
REMARK  Name = 
REMARK  14 active torsions:
REMARK  status: ('A' for Active; 'I' for Inactive)
REMARK    1  A    between atoms: C_1  and  C_2
REMARK    2  A    between atoms: C_5  and  N_6
REMARK    3  A    between atoms: N_6  and  S_7
REMARK    4  A    between atoms: S_7  and  C_10
REMARK    5  A    between atoms: C_15  and  C_16
REMARK    6  A    between atoms: C_19  and  C_20
REMARK    7  A    between atoms: C_20  and  C_21
REMARK    8  A    between atoms: C_21  and  C_22
REMARK    9  A    between atoms: C_21  and  C_23
REMARK   10  A    between atoms: C_25  and  N_26
REMARK   11  A    between atoms: N_26  and  C_27
REMARK   12  A    between atoms: C_27  and  C_28
REMARK   13  A    between atoms: C_28  and  O_30
REMARK   14  A    between atoms: C_31  and  C_32
REMARK                            x       y       z     vdW  Elec       q    Type
REMARK                         _______ _______ _______ _____ _____    ______ ____
ROOT
ATOM      1  C   UNL     1       4.765   5.538  18.633  0.00  0.00    +0.000 A 
ATOM      2  C   UNL     1       3.908   6.054  19.626  0.00  0.00    +0.000 A 
ATOM      3  C   UNL     1       2.926   6.985  19.318  0.00  0.00    +0.000 A 
ATOM      4  C   UNL     1       2.837   7.472  18.027  0.00  0.00    +0.000 A 
ATOM      5  C   UNL     1       3.703   6.992  17.039  0.00  0.00    +0.000 A 
ATOM      6  C   UNL     1       4.615   5.937  17.269  0.00  0.00    +0.000 A 
ENDROOT
BRANCH   6   7
ATOM      7  C   UNL     1       5.284   5.301  16.078  0.00  0.00    +0.000 A 
ATOM      8  C   UNL     1       4.537   4.458  15.234  0.00  0.00    +0.000 A 
ATOM      9  C   UNL     1       5.023   3.977  14.015  0.00  0.00    +0.000 A 
ATOM     10  C   UNL     1       6.325   4.250  13.622  0.00  0.00    +0.000 A 
ATOM     11  C   UNL     1       7.135   4.990  14.486  0.00  0.00    +0.000 A 
ATOM     12  C   UNL     1       6.665   5.483  15.729  0.00  0.00    +0.000 A 
BRANCH  12  13
ATOM     13  N   UNL     1       7.609   6.187  16.549  0.00  0.00    +0.000 N 
ATOM     14  H   UNL     1       8.527   6.140  16.124  0.00  0.00    +0.000 HD
BRANCH  13  15
ATOM     15  C   UNL     1       7.197   7.595  16.843  0.00  0.00    +0.000 C 
BRANCH  15  16
ATOM     16  C   UNL     1       8.006   8.196  17.982  0.00  0.00    +0.000 C 
ATOM     17  O   UNL     1       8.258   9.384  18.121  0.00  0.00    +0.000 OA
BRANCH  16  18
ATOM     18  O   UNL     1       8.424   7.261  18.884  0.00  0.00    +0.000 OA
ATOM     19  H   UNL     1       8.087   6.375  18.628  0.00  0.00    +0.000 HD
ENDBRANCH  16  18
ENDBRANCH  15  16
ENDBRANCH  13  15
ENDBRANCH  12  13
BRANCH  10  20
ATOM     20  C   UNL     1       6.850   3.725  12.308  0.00  0.00    +0.000 C 
BRANCH  20  21
ATOM     21  C   UNL     1       6.168   2.427  11.835  0.00  0.00    +0.000 C 
ATOM     22  C   UNL     1       4.831   2.690  11.135  0.00  0.00    +0.000 C 
ATOM     23  C   UNL     1       7.103   1.671  10.889  0.00  0.00    +0.000 C 
ENDBRANCH  20  21
ENDBRANCH  10  20
ENDBRANCH   6   7
BRANCH   1  24
ATOM     24  S   UNL     1       6.053   4.433  19.203  0.00  0.00    +0.000 S 
ATOM     25  O   UNL     1       6.815   5.084  20.255  0.00  0.00    +0.000 OA
ATOM     26  O   UNL     1       6.711   3.883  18.031  0.00  0.00    +0.000 OA
BRANCH  24  27
ATOM     27  N   UNL     1       5.277   3.082  19.910  0.00  0.00    +0.000 N 
ATOM     28  H   UNL     1       5.248   3.276  20.911  0.00  0.00    +0.000 HD
BRANCH  27  33
ATOM     29  C   UNL     1       0.435   2.254  18.800  0.00  0.00    +0.000 C 
ATOM     30  C   UNL     1       1.914   2.377  18.805  0.00  0.00    +0.000 A 
ATOM     31  N   UNL     1       2.601   2.151  17.681  0.00  0.00    +0.000 NA
ATOM     32  O   UNL     1       3.915   2.426  17.988  0.00  0.00    +0.000 OA
ATOM     33  C   UNL     1       4.026   2.778  19.298  0.00  0.00    +0.000 A 
ATOM     34  C   UNL     1       2.773   2.754  19.879  0.00  0.00    +0.000 A 
ATOM     35  C   UNL     1       2.362   3.123  21.253  0.00  0.00    +0.000 C 
ENDBRANCH  27  33
ENDBRANCH  24  27
ENDBRANCH   1  24
TORSDOF 10
ENDMDL
MODEL 2
REMARK VINA RESULT:      -8.1      2.469      7.382
REMARK  Name = 
REMARK  14 active torsions:
REMARK  status: ('A' for Active; 'I' for Inactive)
REMARK    1  A    between atoms: C_1  and  C_2
REMARK    2  A    between atoms: C_5  and  N_6
REMARK    3  A    between atoms: N_6  and  S_7
REMARK    4  A    between atoms: S_7  and  C_10
REMARK    5  A    between atoms: C_15  and  C_16
REMARK    6  A    between atoms: C_19  and  C_20
REMARK    7  A    between atoms: C_20  and  C_21
REMARK    8  A    between atoms: C_21  and  C_22
REMARK    9  A    between atoms: C_21  and  C_23
REMARK   10  A    between atoms: C_25  and  N_26
REMARK   11  A    between atoms: N_26  and  C_27
REMARK   12  A    between atoms: C_27  and  C_28
REMARK   13  A    between atoms: C_28  and  O_30
REMARK   14  A    between atoms: C_31  and  C_32
REMARK                            x       y       z     vdW  Elec       q    Type
REMARK                         _______ _______ _______ _____ _____    ______ ____
ROOT
ATOM      1  C   UNL     1       4.390   3.954  18.098  0.00  0.00    +0.000 A 
ATOM      2  C   UNL     1       4.580   2.644  17.613  0.00  0.00    +0.000 A 
ATOM      3  C   UNL     1       3.508   1.785  17.418  0.00  0.00    +0.000 A 
ATOM      4  C   UNL     1       2.238   2.196  17.780  0.00  0.00    +0.000 A 
ATOM      5  C   UNL     1       2.040   3.482  18.292  0.00  0.00    +0.000 A 
ATOM      6  C   UNL     1       3.074   4.443  18.366  0.00  0.00    +0.000 A 
ENDROOT
BRANCH   6   7
ATOM      7  C   UNL     1       2.698   5.874  18.651  0.00  0.00    +0.000 A 
ATOM      8  C   UNL     1       2.726   6.817  17.607  0.00  0.00    +0.000 A 
ATOM      9  C   UNL     1       2.221   8.113  17.739  0.00  0.00    +0.000 A 
ATOM     10  C   UNL     1       1.738   8.558  18.961  0.00  0.00    +0.000 A 
ATOM     11  C   UNL     1       1.798   7.686  20.051  0.00  0.00    +0.000 A 
ATOM     12  C   UNL     1       2.311   6.370  19.942  0.00  0.00    +0.000 A 
BRANCH  12  13
ATOM     13  N   UNL     1       2.364   5.589  21.145  0.00  0.00    +0.000 N 
ATOM     14  H   UNL     1       2.276   6.200  21.948  0.00  0.00    +0.000 HD
BRANCH  13  15
ATOM     15  C   UNL     1       1.363   4.479  21.171  0.00  0.00    +0.000 C 
BRANCH  15  16
ATOM     16  C   UNL     1       1.948   3.202  21.753  0.00  0.00    +0.000 C 
ATOM     17  O   UNL     1       1.324   2.365  22.391  0.00  0.00    +0.000 OA
BRANCH  16  18
ATOM     18  O   UNL     1       3.274   3.051  21.471  0.00  0.00    +0.000 OA
ATOM     19  H   UNL     1       3.588   2.180  21.794  0.00  0.00    +0.000 HD
ENDBRANCH  16  18
ENDBRANCH  15  16
ENDBRANCH  13  15
ENDBRANCH  12  13
BRANCH  10  20
ATOM     20  C   UNL     1       1.198   9.959  19.103  0.00  0.00    +0.000 C 
BRANCH  20  21
ATOM     21  C   UNL     1      -0.094  10.052  19.937  0.00  0.00    +0.000 C 
ATOM     22  C   UNL     1       0.079  10.911  21.192  0.00  0.00    +0.000 C 
ATOM     23  C   UNL     1      -1.222  10.623  19.074  0.00  0.00    +0.000 C 
ENDBRANCH  20  21
ENDBRANCH  10  20
ENDBRANCH   6   7
BRANCH   1  24
ATOM     24  S   UNL     1       5.876   4.903  18.403  0.00  0.00    +0.000 S 
ATOM     25  O   UNL     1       7.039   4.065  18.167  0.00  0.00    +0.000 OA
ATOM     26  O   UNL     1       5.701   5.603  19.663  0.00  0.00    +0.000 OA
BRANCH  24  27
ATOM     27  N   UNL     1       5.919   6.157  17.240  0.00  0.00    +0.000 N 
ATOM     28  H   UNL     1       6.383   6.941  17.699  0.00  0.00    +0.000 HD
BRANCH  27  33
ATOM     29  C   UNL     1       6.858   4.221  12.687  0.00  0.00    +0.000 C 
ATOM     30  C   UNL     1       6.920   4.869  14.020  0.00  0.00    +0.000 A 
ATOM     31  N   UNL     1       8.042   5.487  14.404  0.00  0.00    +0.000 NA
ATOM     32  O   UNL     1       7.754   6.050  15.628  0.00  0.00    +0.000 OA
ATOM     33  C   UNL     1       6.482   5.741  15.998  0.00  0.00    +0.000 A 
ATOM     34  C   UNL     1       5.898   4.974  15.008  0.00  0.00    +0.000 A 
ATOM     35  C   UNL     1       4.515   4.454  14.909  0.00  0.00    +0.000 C 
ENDBRANCH  27  33
ENDBRANCH  24  27
ENDBRANCH   1  24
TORSDOF 10
ENDMDL
MODEL 3
REMARK VINA RESULT:      -8.1      7.476      9.534
REMARK  Name = 
REMARK  14 active torsions:
REMARK  status: ('A' for Active; 'I' for Inactive)
REMARK    1  A    between atoms: C_1  and  C_2
REMARK    2  A    between atoms: C_5  and  N_6
REMARK    3  A    between atoms: N_6  and  S_7
REMARK    4  A    between atoms: S_7  and  C_10
REMARK    5  A    between atoms: C_15  and  C_16
REMARK    6  A    between atoms: C_19  and  C_20
REMARK    7  A    between atoms: C_20  and  C_21
REMARK    8  A    between atoms: C_21  and  C_22
REMARK    9  A    between atoms: C_21  and  C_23
REMARK   10  A    between atoms: C_25  and  N_26
REMARK   11  A    between atoms: N_26  and  C_27
REMARK   12  A    between atoms: C_27  and  C_28
REMARK   13  A    between atoms: C_28  and  O_30
REMARK   14  A    between atoms: C_31  and  C_32
REMARK                            x       y       z     vdW  Elec       q    Type
REMARK                         _______ _______ _______ _____ _____    ______ ____
ROOT
ATOM      1  C   UNL     1      -0.376  11.929  18.476  0.00  0.00    +0.000 A 
ATOM      2  C   UNL     1      -0.563  13.316  18.302  0.00  0.00    +0.000 A 
ATOM      3  C   UNL     1       0.440  14.223  18.611  0.00  0.00    +0.000 A 
ATOM      4  C   UNL     1       1.617  13.764  19.174  0.00  0.00    +0.000 A 
ATOM      5  C   UNL     1       1.803  12.394  19.382  0.00  0.00    +0.000 A 
ATOM      6  C   UNL     1       0.875  11.421  18.944  0.00  0.00    +0.000 A 
ENDROOT
BRANCH   6   7
ATOM      7  C   UNL     1       1.301   9.976  18.951  0.00  0.00    +0.000 A 
ATOM      8  C   UNL     1       2.106   9.488  17.904  0.00  0.00    +0.000 A 
ATOM      9  C   UNL     1       2.695   8.221  17.924  0.00  0.00    +0.000 A 
ATOM     10  C   UNL     1       2.432   7.341  18.965  0.00  0.00    +0.000 A 
ATOM     11  C   UNL     1       1.548   7.748  19.966  0.00  0.00    +0.000 A 
ATOM     12  C   UNL     1       0.935   9.025  19.963  0.00  0.00    +0.000 A 
BRANCH  12  13
ATOM     13  N   UNL     1       0.007   9.306  21.022  0.00  0.00    +0.000 N 
ATOM     14  H   UNL     1      -0.314   8.436  21.429  0.00  0.00    +0.000 HD
BRANCH  13  15
ATOM     15  C   UNL     1       0.557  10.239  22.054  0.00  0.00    +0.000 C 
BRANCH  15  16
ATOM     16  C   UNL     1      -0.499  11.210  22.559  0.00  0.00    +0.000 C 
ATOM     17  O   UNL     1      -1.496  10.902  23.196  0.00  0.00    +0.000 OA
BRANCH  16  18
ATOM     18  O   UNL     1      -0.215  12.508  22.249  0.00  0.00    +0.000 OA
ATOM     19  H   UNL     1      -1.038  12.980  21.999  0.00  0.00    +0.000 HD
ENDBRANCH  16  18
ENDBRANCH  15  16
ENDBRANCH  13  15
ENDBRANCH  12  13
BRANCH  10  20
ATOM     20  C   UNL     1       3.064   5.971  18.982  0.00  0.00    +0.000 C 
BRANCH  20  21
ATOM     21  C   UNL     1       2.777   5.133  17.722  0.00  0.00    +0.000 C 
ATOM     22  C   UNL     1       3.974   4.274  17.305  0.00  0.00    +0.000 C 
ATOM     23  C   UNL     1       1.562   4.236  17.968  0.00  0.00    +0.000 C 
ENDBRANCH  20  21
ENDBRANCH  10  20
ENDBRANCH   6   7
BRANCH   1  24
ATOM     24  S   UNL     1      -1.798  10.895  18.141  0.00  0.00    +0.000 S 
ATOM     25  O   UNL     1      -2.278  10.320  19.386  0.00  0.00    +0.000 OA
ATOM     26  O   UNL     1      -1.472  10.054  17.003  0.00  0.00    +0.000 OA
BRANCH  24  27
ATOM     27  N   UNL     1      -3.035  11.920  17.553  0.00  0.00    +0.000 N 
ATOM     28  H   UNL     1      -2.994  11.843  16.536  0.00  0.00    +0.000 HD
BRANCH  27  33
ATOM     29  C   UNL     1      -7.154  11.741  20.446  0.00  0.00    +0.000 C 
ATOM     30  C   UNL     1      -6.100  11.537  19.422  0.00  0.00    +0.000 A 
ATOM     31  N   UNL     1      -6.323  10.705  18.399  0.00  0.00    +0.000 NA
ATOM     32  O   UNL     1      -5.209  10.801  17.595  0.00  0.00    +0.000 OA
ATOM     33  C   UNL     1      -4.304  11.653  18.147  0.00  0.00    +0.000 A 
ATOM     34  C   UNL     1      -4.816  12.150  19.330  0.00  0.00    +0.000 A 
ATOM     35  C   UNL     1      -4.248  13.157  20.255  0.00  0.00    +0.000 C 
ENDBRANCH  27  33
ENDBRANCH  24  27
ENDBRANCH   1  24
TORSDOF 10
ENDMDL
MODEL 4
REMARK VINA RESULT:      -7.9      7.388      9.617
REMARK  Name = 
REMARK  14 active torsions:
REMARK  status: ('A' for Active; 'I' for Inactive)
REMARK    1  A    between atoms: C_1  and  C_2
REMARK    2  A    between atoms: C_5  and  N_6
REMARK    3  A    between atoms: N_6  and  S_7
REMARK    4  A    between atoms: S_7  and  C_10
REMARK    5  A    between atoms: C_15  and  C_16
REMARK    6  A    between atoms: C_19  and  C_20
REMARK    7  A    between atoms: C_20  and  C_21
REMARK    8  A    between atoms: C_21  and  C_22
REMARK    9  A    between atoms: C_21  and  C_23
REMARK   10  A    between atoms: C_25  and  N_26
REMARK   11  A    between atoms: N_26  and  C_27
REMARK   12  A    between atoms: C_27  and  C_28
REMARK   13  A    between atoms: C_28  and  O_30
REMARK   14  A    between atoms: C_31  and  C_32
REMARK                            x       y       z     vdW  Elec       q    Type
REMARK                         _______ _______ _______ _____ _____    ______ ____
ROOT
ATOM      1  C   UNL     1      -0.001  12.172  18.590  0.00  0.00    +0.000 A 
ATOM      2  C   UNL     1      -0.097  13.537  18.248  0.00  0.00    +0.000 A 
ATOM      3  C   UNL     1       1.037  14.302  18.014  0.00  0.00    +0.000 A 
ATOM      4  C   UNL     1       2.285  13.735  18.195  0.00  0.00    +0.000 A 
ATOM      5  C   UNL     1       2.394  12.391  18.566  0.00  0.00    +0.000 A 
ATOM      6  C   UNL     1       1.275  11.533  18.667  0.00  0.00    +0.000 A 
ENDROOT
BRANCH   6   7
ATOM      7  C   UNL     1       1.522  10.051  18.782  0.00  0.00    +0.000 A 
ATOM      8  C   UNL     1       1.824   9.310  17.624  0.00  0.00    +0.000 A 
ATOM      9  C   UNL     1       2.244   7.978  17.661  0.00  0.00    +0.000 A 
ATOM     10  C   UNL     1       2.299   7.293  18.867  0.00  0.00    +0.000 A 
ATOM     11  C   UNL     1       1.897   7.962  20.025  0.00  0.00    +0.000 A 
ATOM     12  C   UNL     1       1.463   9.310  20.010  0.00  0.00    +0.000 A 
BRANCH  12  13
ATOM     13  N   UNL     1       1.030   9.870  21.259  0.00  0.00    +0.000 N 
ATOM     14  H   UNL     1       0.558  10.750  21.088  0.00  0.00    +0.000 HD
BRANCH  13  15
ATOM     15  C   UNL     1       0.192   8.930  22.066  0.00  0.00    +0.000 C 
BRANCH  15  16
ATOM     16  C   UNL     1      -0.200   9.531  23.407  0.00  0.00    +0.000 C 
ATOM     17  O   UNL     1       0.457   9.452  24.435  0.00  0.00    +0.000 OA
BRANCH  16  18
ATOM     18  O   UNL     1      -1.381  10.211  23.357  0.00  0.00    +0.000 OA
ATOM     19  H   UNL     1      -1.573  10.614  24.231  0.00  0.00    +0.000 HD
ENDBRANCH  16  18
ENDBRANCH  15  16
ENDBRANCH  13  15
ENDBRANCH  12  13
BRANCH  10  20
ATOM     20  C   UNL     1       2.747   5.853  18.905  0.00  0.00    +0.000 C 
BRANCH  20  21
ATOM     21  C   UNL     1       1.707   4.889  19.508  0.00  0.00    +0.000 C 
ATOM     22  C   UNL     1       1.399   3.708  18.584  0.00  0.00    +0.000 C 
ATOM     23  C   UNL     1       2.212   4.368  20.856  0.00  0.00    +0.000 C 
ENDBRANCH  20  21
ENDBRANCH  10  20
ENDBRANCH   6   7
BRANCH   1  24
ATOM     24  S   UNL     1      -1.542  11.347  18.972  0.00  0.00    +0.000 S 
ATOM     25  O   UNL     1      -1.693  11.252  20.414  0.00  0.00    +0.000 OA
ATOM     26  O   UNL     1      -1.630  10.168  18.130  0.00  0.00    +0.000 OA
BRANCH  24  27
ATOM     27  N   UNL     1      -2.804  12.353  18.403  0.00  0.00    +0.000 N 
ATOM     28  H   UNL     1      -2.613  12.497  17.411  0.00  0.00    +0.000 HD
BRANCH  27  33
ATOM     29  C   UNL     1      -7.365  11.422  20.324  0.00  0.00    +0.000 C 
ATOM     30  C   UNL     1      -6.084  11.408  19.575  0.00  0.00    +0.000 A 
ATOM     31  N   UNL     1      -5.901  10.518  18.594  0.00  0.00    +0.000 NA
ATOM     32  O   UNL     1      -4.671  10.816  18.049  0.00  0.00    +0.000 OA
ATOM     33  C   UNL     1      -4.099  11.851  18.721  0.00  0.00    +0.000 A 
ATOM     34  C   UNL     1      -4.956  12.268  19.722  0.00  0.00    +0.000 A 
ATOM     35  C   UNL     1      -4.822  13.396  20.671  0.00  0.00    +0.000 C 
ENDBRANCH  27  33
ENDBRANCH  24  27
ENDBRANCH   1  24
TORSDOF 10
ENDMDL
MODEL 5
REMARK VINA RESULT:      -7.9      7.657      9.732
REMARK  Name = 
REMARK  14 active torsions:
REMARK  status: ('A' for Active; 'I' for Inactive)
REMARK    1  A    between atoms: C_1  and  C_2
REMARK    2  A    between atoms: C_5  and  N_6
REMARK    3  A    between atoms: N_6  and  S_7
REMARK    4  A    between atoms: S_7  and  C_10
REMARK    5  A    between atoms: C_15  and  C_16
REMARK    6  A    between atoms: C_19  and  C_20
REMARK    7  A    between atoms: C_20  and  C_21
REMARK    8  A    between atoms: C_21  and  C_22
REMARK    9  A    between atoms: C_21  and  C_23
REMARK   10  A    between atoms: C_25  and  N_26
REMARK   11  A    between atoms: N_26  and  C_27
REMARK   12  A    between atoms: C_27  and  C_28
REMARK   13  A    between atoms: C_28  and  O_30
REMARK   14  A    between atoms: C_31  and  C_32
REMARK                            x       y       z     vdW  Elec       q    Type
REMARK                         _______ _______ _______ _____ _____    ______ ____
ROOT
ATOM      1  C   UNL     1      -0.468  11.966  18.511  0.00  0.00    +0.000 A 
ATOM      2  C   UNL     1      -0.614  13.350  18.284  0.00  0.00    +0.000 A 
ATOM      3  C   UNL     1       0.369  14.251  18.670  0.00  0.00    +0.000 A 
ATOM      4  C   UNL     1       1.476  13.790  19.359  0.00  0.00    +0.000 A 
ATOM      5  C   UNL     1       1.617  12.424  19.619  0.00  0.00    +0.000 A 
ATOM      6  C   UNL     1       0.721  11.453  19.115  0.00  0.00    +0.000 A 
ENDROOT
BRANCH   6   7
ATOM      7  C   UNL     1       1.120  10.003  19.200  0.00  0.00    +0.000 A 
ATOM      8  C   UNL     1       1.358   9.280  18.015  0.00  0.00    +0.000 A 
ATOM      9  C   UNL     1       1.905   7.995  18.005  0.00  0.00    +0.000 A 
ATOM     10  C   UNL     1       2.162   7.331  19.196  0.00  0.00    +0.000 A 
ATOM     11  C   UNL     1       1.834   7.972  20.393  0.00  0.00    +0.000 A 
ATOM     12  C   UNL     1       1.274   9.273  20.427  0.00  0.00    +0.000 A 
BRANCH  12  13
ATOM     13  N   UNL     1       0.935   9.803  21.718  0.00  0.00    +0.000 N 
ATOM     14  H   UNL     1       1.372  10.710  21.835  0.00  0.00    +0.000 HD
BRANCH  13  15
ATOM     15  C   UNL     1      -0.539   9.854  21.965  0.00  0.00    +0.000 C 
BRANCH  15  16
ATOM     16  C   UNL     1      -0.995  11.240  22.392  0.00  0.00    +0.000 C 
ATOM     17  O   UNL     1      -0.410  11.963  23.186  0.00  0.00    +0.000 OA
BRANCH  16  18
ATOM     18  O   UNL     1      -2.145  11.633  21.772  0.00  0.00    +0.000 OA
ATOM     19  H   UNL     1      -1.934  12.044  20.905  0.00  0.00    +0.000 HD
ENDBRANCH  16  18
ENDBRANCH  15  16
ENDBRANCH  13  15
ENDBRANCH  12  13
BRANCH  10  20
ATOM     20  C   UNL     1       2.748   5.941  19.183  0.00  0.00    +0.000 C 
BRANCH  20  21
ATOM     21  C   UNL     1       2.709   5.258  17.802  0.00  0.00    +0.000 C 
ATOM     22  C   UNL     1       4.108   4.950  17.262  0.00  0.00    +0.000 C 
ATOM     23  C   UNL     1       1.897   3.964  17.892  0.00  0.00    +0.000 C 
ENDBRANCH  20  21
ENDBRANCH  10  20
ENDBRANCH   6   7
BRANCH   1  24
ATOM     24  S   UNL     1      -1.867  10.944  18.061  0.00  0.00    +0.000 S 
ATOM     25  O   UNL     1      -2.258  10.134  19.203  0.00  0.00    +0.000 OA
ATOM     26  O   UNL     1      -1.572  10.336  16.776  0.00  0.00    +0.000 OA
BRANCH  24  27
ATOM     27  N   UNL     1      -3.172  11.999  17.726  0.00  0.00    +0.000 N 
ATOM     28  H   UNL     1      -3.601  11.641  16.872  0.00  0.00    +0.000 HD
BRANCH  27  33
ATOM     29  C   UNL     1      -6.976  11.935  21.026  0.00  0.00    +0.000 C 
ATOM     30  C   UNL     1      -5.717  12.179  20.280  0.00  0.00    +0.000 A 
ATOM     31  N   UNL     1      -4.747  12.910  20.839  0.00  0.00    +0.000 NA
ATOM     32  O   UNL     1      -3.698  12.879  19.946  0.00  0.00    +0.000 OA
ATOM     33  C   UNL     1      -4.047  12.168  18.839  0.00  0.00    +0.000 A 
ATOM     34  C   UNL     1      -5.338  11.702  18.990  0.00  0.00    +0.000 A 
ATOM     35  C   UNL     1      -6.137  10.828  18.101  0.00  0.00    +0.000 C 
ENDBRANCH  27  33
ENDBRANCH  24  27
ENDBRANCH   1  24
TORSDOF 10
ENDMDL
MODEL 6
REMARK VINA RESULT:      -7.9      3.194      4.619
REMARK  Name = 
REMARK  14 active torsions:
REMARK  status: ('A' for Active; 'I' for Inactive)
REMARK    1  A    between atoms: C_1  and  C_2
REMARK    2  A    between atoms: C_5  and  N_6
REMARK    3  A    between atoms: N_6  and  S_7
REMARK    4  A    between atoms: S_7  and  C_10
REMARK    5  A    between atoms: C_15  and  C_16
REMARK    6  A    between atoms: C_19  and  C_20
REMARK    7  A    between atoms: C_20  and  C_21
REMARK    8  A    between atoms: C_21  and  C_22
REMARK    9  A    between atoms: C_21  and  C_23
REMARK   10  A    between atoms: C_25  and  N_26
REMARK   11  A    between atoms: N_26  and  C_27
REMARK   12  A    between atoms: C_27  and  C_28
REMARK   13  A    between atoms: C_28  and  O_30
REMARK   14  A    between atoms: C_31  and  C_32
REMARK                            x       y       z     vdW  Elec       q    Type
REMARK                         _______ _______ _______ _____ _____    ______ ____
ROOT
ATOM      1  C   UNL     1       2.850   4.832  19.642  0.00  0.00    +0.000 A 
ATOM      2  C   UNL     1       2.345   4.653  20.946  0.00  0.00    +0.000 A 
ATOM      3  C   UNL     1       2.325   3.402  21.545  0.00  0.00    +0.000 A 
ATOM      4  C   UNL     1       2.736   2.298  20.821  0.00  0.00    +0.000 A 
ATOM      5  C   UNL     1       3.210   2.457  19.515  0.00  0.00    +0.000 A 
ATOM      6  C   UNL     1       3.392   3.725  18.917  0.00  0.00    +0.000 A 
ENDROOT
BRANCH   6   7
ATOM      7  C   UNL     1       4.176   3.802  17.633  0.00  0.00    +0.000 A 
ATOM      8  C   UNL     1       3.513   3.607  16.406  0.00  0.00    +0.000 A 
ATOM      9  C   UNL     1       4.119   3.840  15.169  0.00  0.00    +0.000 A 
ATOM     10  C   UNL     1       5.457   4.200  15.099  0.00  0.00    +0.000 A 
ATOM     11  C   UNL     1       6.179   4.294  16.291  0.00  0.00    +0.000 A 
ATOM     12  C   UNL     1       5.587   4.057  17.556  0.00  0.00    +0.000 A 
BRANCH  12  13
ATOM     13  N   UNL     1       6.446   4.136  18.703  0.00  0.00    +0.000 N 
ATOM     14  H   UNL     1       6.605   3.206  19.071  0.00  0.00    +0.000 HD
BRANCH  13  15
ATOM     15  C   UNL     1       7.727   4.859  18.431  0.00  0.00    +0.000 C 
BRANCH  15  16
ATOM     16  C   UNL     1       8.123   5.765  19.586  0.00  0.00    +0.000 C 
ATOM     17  O   UNL     1       8.139   5.442  20.765  0.00  0.00    +0.000 OA
BRANCH  16  18
ATOM     18  O   UNL     1       8.498   7.011  19.175  0.00  0.00    +0.000 OA
ATOM     19  H   UNL     1       8.521   7.047  18.195  0.00  0.00    +0.000 HD
ENDBRANCH  16  18
ENDBRANCH  15  16
ENDBRANCH  13  15
ENDBRANCH  12  13
BRANCH  10  20
ATOM     20  C   UNL     1       6.111   4.446  13.762  0.00  0.00    +0.000 C 
BRANCH  20  21
ATOM     21  C   UNL     1       5.886   3.317  12.737  0.00  0.00    +0.000 C 
ATOM     22  C   UNL     1       4.638   3.547  11.880  0.00  0.00    +0.000 C 
ATOM     23  C   UNL     1       7.114   3.191  11.833  0.00  0.00    +0.000 C 
ENDBRANCH  20  21
ENDBRANCH  10  20
ENDBRANCH   6   7
BRANCH   1  24
ATOM     24  S   UNL     1       2.706   6.481  18.962  0.00  0.00    +0.000 S 
ATOM     25  O   UNL     1       1.622   6.510  17.996  0.00  0.00    +0.000 OA
ATOM     26  O   UNL     1       4.041   6.928  18.605  0.00  0.00    +0.000 OA
BRANCH  24  27
ATOM     27  N   UNL     1       2.258   7.516  20.249  0.00  0.00    +0.000 N 
ATOM     28  H   UNL     1       3.127   7.743  20.733  0.00  0.00    +0.000 HD
BRANCH  27  33
ATOM     29  C   UNL     1      -1.090  11.239  19.706  0.00  0.00    +0.000 C 
ATOM     30  C   UNL     1      -0.003  10.241  19.548  0.00  0.00    +0.000 A 
ATOM     31  N   UNL     1       0.810  10.310  18.489  0.00  0.00    +0.000 NA
ATOM     32  O   UNL     1       1.746   9.317  18.676  0.00  0.00    +0.000 OA
ATOM     33  C   UNL     1       1.477   8.628  19.818  0.00  0.00    +0.000 A 
ATOM     34  C   UNL     1       0.357   9.170  20.418  0.00  0.00    +0.000 A 
ATOM     35  C   UNL     1      -0.288   8.821  21.705  0.00  0.00    +0.000 C 
ENDBRANCH  27  33
ENDBRANCH  24  27
ENDBRANCH   1  24
TORSDOF 10
ENDMDL
MODEL 7
REMARK VINA RESULT:      -7.7      7.787     10.937
REMARK  Name = 
REMARK  14 active torsions:
REMARK  status: ('A' for Active; 'I' for Inactive)
REMARK    1  A    between atoms: C_1  and  C_2
REMARK    2  A    between atoms: C_5  and  N_6
REMARK    3  A    between atoms: N_6  and  S_7
REMARK    4  A    between atoms: S_7  and  C_10
REMARK    5  A    between atoms: C_15  and  C_16
REMARK    6  A    between atoms: C_19  and  C_20
REMARK    7  A    between atoms: C_20  and  C_21
REMARK    8  A    between atoms: C_21  and  C_22
REMARK    9  A    between atoms: C_21  and  C_23
REMARK   10  A    between atoms: C_25  and  N_26
REMARK   11  A    between atoms: N_26  and  C_27
REMARK   12  A    between atoms: C_27  and  C_28
REMARK   13  A    between atoms: C_28  and  O_30
REMARK   14  A    between atoms: C_31  and  C_32
REMARK                            x       y       z     vdW  Elec       q    Type
REMARK                         _______ _______ _______ _____ _____    ______ ____
ROOT
ATOM      1  C   UNL     1       0.083  13.232  21.299  0.00  0.00    +0.000 A 
ATOM      2  C   UNL     1      -0.655  14.238  21.955  0.00  0.00    +0.000 A 
ATOM      3  C   UNL     1      -1.876  13.962  22.554  0.00  0.00    +0.000 A 
ATOM      4  C   UNL     1      -2.416  12.694  22.437  0.00  0.00    +0.000 A 
ATOM      5  C   UNL     1      -1.709  11.695  21.760  0.00  0.00    +0.000 A 
ATOM      6  C   UNL     1      -0.398  11.886  21.267  0.00  0.00    +0.000 A 
ENDROOT
BRANCH   6   7
ATOM      7  C   UNL     1       0.380  10.675  20.822  0.00  0.00    +0.000 A 
ATOM      8  C   UNL     1       1.028   9.878  21.785  0.00  0.00    +0.000 A 
ATOM      9  C   UNL     1       1.612   8.645  21.484  0.00  0.00    +0.000 A 
ATOM     10  C   UNL     1       1.651   8.187  20.174  0.00  0.00    +0.000 A 
ATOM     11  C   UNL     1       1.118   9.003  19.174  0.00  0.00    +0.000 A 
ATOM     12  C   UNL     1       0.525  10.259  19.455  0.00  0.00    +0.000 A 
BRANCH  12  13
ATOM     13  N   UNL     1       0.057  11.025  18.336  0.00  0.00    +0.000 N 
ATOM     14  H   UNL     1       0.830  11.212  17.708  0.00  0.00    +0.000 HD
BRANCH  13  15
ATOM     15  C   UNL     1      -1.099  10.391  17.630  0.00  0.00    +0.000 C 
BRANCH  15  16
ATOM     16  C   UNL     1      -2.227  11.381  17.387  0.00  0.00    +0.000 C 
ATOM     17  O   UNL     1      -2.921  11.888  18.256  0.00  0.00    +0.000 OA
BRANCH  16  18
ATOM     18  O   UNL     1      -2.388  11.685  16.067  0.00  0.00    +0.000 OA
ATOM     19  H   UNL     1      -1.525  11.938  15.674  0.00  0.00    +0.000 HD
ENDBRANCH  16  18
ENDBRANCH  15  16
ENDBRANCH  13  15
ENDBRANCH  12  13
BRANCH  10  20
ATOM     20  C   UNL     1       2.287   6.858  19.850  0.00  0.00    +0.000 C 
BRANCH  20  21
ATOM     21  C   UNL     1       2.391   6.565  18.341  0.00  0.00    +0.000 C 
ATOM     22  C   UNL     1       3.770   6.910  17.771  0.00  0.00    +0.000 C 
ATOM     23  C   UNL     1       2.082   5.089  18.082  0.00  0.00    +0.000 C 
ENDBRANCH  20  21
ENDBRANCH  10  20
ENDBRANCH   6   7
BRANCH   1  24
ATOM     24  S   UNL     1       1.582  13.763  20.479  0.00  0.00    +0.000 S 
ATOM     25  O   UNL     1       1.420  13.625  19.042  0.00  0.00    +0.000 OA
ATOM     26  O   UNL     1       2.703  13.150  21.169  0.00  0.00    +0.000 OA
BRANCH  24  27
ATOM     27  N   UNL     1       1.765  15.433  20.803  0.00  0.00    +0.000 N 
ATOM     28  H   UNL     1       2.555  15.502  21.445  0.00  0.00    +0.000 HD
BRANCH  27  33
ATOM     29  C   UNL     1       0.936  18.304  16.749  0.00  0.00    +0.000 C 
ATOM     30  C   UNL     1       1.505  17.449  17.819  0.00  0.00    +0.000 A 
ATOM     31  N   UNL     1       2.823  17.229  17.861  0.00  0.00    +0.000 NA
ATOM     32  O   UNL     1       3.039  16.483  18.999  0.00  0.00    +0.000 OA
ATOM     33  C   UNL     1       1.855  16.221  19.618  0.00  0.00    +0.000 A 
ATOM     34  C   UNL     1       0.831  16.806  18.900  0.00  0.00    +0.000 A 
ATOM     35  C   UNL     1      -0.618  16.867  19.200  0.00  0.00    +0.000 C 
ENDBRANCH  27  33
ENDBRANCH  24  27
ENDBRANCH   1  24
TORSDOF 10
ENDMDL
MODEL 8
REMARK VINA RESULT:      -7.7      2.748      7.537
REMARK  Name = 
REMARK  14 active torsions:
REMARK  status: ('A' for Active; 'I' for Inactive)
REMARK    1  A    between atoms: C_1  and  C_2
REMARK    2  A    between atoms: C_5  and  N_6
REMARK    3  A    between atoms: N_6  and  S_7
REMARK    4  A    between atoms: S_7  and  C_10
REMARK    5  A    between atoms: C_15  and  C_16
REMARK    6  A    between atoms: C_19  and  C_20
REMARK    7  A    between atoms: C_20  and  C_21
REMARK    8  A    between atoms: C_21  and  C_22
REMARK    9  A    between atoms: C_21  and  C_23
REMARK   10  A    between atoms: C_25  and  N_26
REMARK   11  A    between atoms: N_26  and  C_27
REMARK   12  A    between atoms: C_27  and  C_28
REMARK   13  A    between atoms: C_28  and  O_30
REMARK   14  A    between atoms: C_31  and  C_32
REMARK                            x       y       z     vdW  Elec       q    Type
REMARK                         _______ _______ _______ _____ _____    ______ ____
ROOT
ATOM      1  C   UNL     1       3.965   4.603  17.193  0.00  0.00    +0.000 A 
ATOM      2  C   UNL     1       4.046   3.334  16.584  0.00  0.00    +0.000 A 
ATOM      3  C   UNL     1       3.015   2.412  16.702  0.00  0.00    +0.000 A 
ATOM      4  C   UNL     1       1.924   2.714  17.496  0.00  0.00    +0.000 A 
ATOM      5  C   UNL     1       1.847   3.958  18.131  0.00  0.00    +0.000 A 
ATOM      6  C   UNL     1       2.795   4.985  17.919  0.00  0.00    +0.000 A 
ENDROOT
BRANCH   6   7
ATOM      7  C   UNL     1       2.467   6.370  18.412  0.00  0.00    +0.000 A 
ATOM      8  C   UNL     1       2.317   7.417  17.482  0.00  0.00    +0.000 A 
ATOM      9  C   UNL     1       1.837   8.682  17.831  0.00  0.00    +0.000 A 
ATOM     10  C   UNL     1       1.563   8.988  19.156  0.00  0.00    +0.000 A 
ATOM     11  C   UNL     1       1.807   8.010  20.124  0.00  0.00    +0.000 A 
ATOM     12  C   UNL     1       2.298   6.723  19.794  0.00  0.00    +0.000 A 
BRANCH  12  13
ATOM     13  N   UNL     1       2.554   5.824  20.883  0.00  0.00    +0.000 N 
ATOM     14  H   UNL     1       2.689   6.355  21.734  0.00  0.00    +0.000 HD
BRANCH  13  15
ATOM     15  C   UNL     1       1.501   4.773  21.038  0.00  0.00    +0.000 C 
BRANCH  15  16
ATOM     16  C   UNL     1       2.083   3.455  21.525  0.00  0.00    +0.000 C 
ATOM     17  O   UNL     1       1.553   2.703  22.330  0.00  0.00    +0.000 OA
BRANCH  16  18
ATOM     18  O   UNL     1       3.284   3.162  20.948  0.00  0.00    +0.000 OA
ATOM     19  H   UNL     1       3.209   3.223  19.971  0.00  0.00    +0.000 HD
ENDBRANCH  16  18
ENDBRANCH  15  16
ENDBRANCH  13  15
ENDBRANCH  12  13
BRANCH  10  20
ATOM     20  C   UNL     1       1.049  10.356  19.532  0.00  0.00    +0.000 C 
BRANCH  20  21
ATOM     21  C   UNL     1       0.014  10.929  18.545  0.00  0.00    +0.000 C 
ATOM     22  C   UNL     1      -1.371  10.302  18.720  0.00  0.00    +0.000 C 
ATOM     23  C   UNL     1      -0.082  12.446  18.725  0.00  0.00    +0.000 C 
ENDBRANCH  20  21
ENDBRANCH  10  20
ENDBRANCH   6   7
BRANCH   1  24
ATOM     24  S   UNL     1       5.418   5.639  17.046  0.00  0.00    +0.000 S 
ATOM     25  O   UNL     1       5.778   6.151  18.358  0.00  0.00    +0.000 OA
ATOM     26  O   UNL     1       5.207   6.536  15.924  0.00  0.00    +0.000 OA
BRANCH  24  27
ATOM     27  N   UNL     1       6.702   4.632  16.532  0.00  0.00    +0.000 N 
ATOM     28  H   UNL     1       6.391   3.677  16.715  0.00  0.00    +0.000 HD
BRANCH  27  33
ATOM     29  C   UNL     1       7.323   4.875  11.541  0.00  0.00    +0.000 C 
ATOM     30  C   UNL     1       7.429   4.997  13.016  0.00  0.00    +0.000 A 
ATOM     31  N   UNL     1       8.352   5.803  13.549  0.00  0.00    +0.000 NA
ATOM     32  O   UNL     1       8.139   5.762  14.909  0.00  0.00    +0.000 OA
ATOM     33  C   UNL     1       7.121   4.906  15.198  0.00  0.00    +0.000 A 
ATOM     34  C   UNL     1       6.632   4.375  14.021  0.00  0.00    +0.000 A 
ATOM     35  C   UNL     1       5.489   3.459  13.802  0.00  0.00    +0.000 C 
ENDBRANCH  27  33
ENDBRANCH  24  27
ENDBRANCH   1  24
TORSDOF 10
ENDMDL
MODEL 9
REMARK VINA RESULT:      -7.7      7.594      9.737
REMARK  Name = 
REMARK  14 active torsions:
REMARK  status: ('A' for Active; 'I' for Inactive)
REMARK    1  A    between atoms: C_1  and  C_2
REMARK    2  A    between atoms: C_5  and  N_6
REMARK    3  A    between atoms: N_6  and  S_7
REMARK    4  A    between atoms: S_7  and  C_10
REMARK    5  A    between atoms: C_15  and  C_16
REMARK    6  A    between atoms: C_19  and  C_20
REMARK    7  A    between atoms: C_20  and  C_21
REMARK    8  A    between atoms: C_21  and  C_22
REMARK    9  A    between atoms: C_21  and  C_23
REMARK   10  A    between atoms: C_25  and  N_26
REMARK   11  A    between atoms: N_26  and  C_27
REMARK   12  A    between atoms: C_27  and  C_28
REMARK   13  A    between atoms: C_28  and  O_30
REMARK   14  A    between atoms: C_31  and  C_32
REMARK                            x       y       z     vdW  Elec       q    Type
REMARK                         _______ _______ _______ _____ _____    ______ ____
ROOT
ATOM      1  C   UNL     1      -0.033  12.415  18.751  0.00  0.00    +0.000 A 
ATOM      2  C   UNL     1      -0.130  13.789  18.448  0.00  0.00    +0.000 A 
ATOM      3  C   UNL     1       1.003  14.558  18.221  0.00  0.00    +0.000 A 
ATOM      4  C   UNL     1       2.252  13.984  18.372  0.00  0.00    +0.000 A 
ATOM      5  C   UNL     1       2.362  12.630  18.704  0.00  0.00    +0.000 A 
ATOM      6  C   UNL     1       1.242  11.771  18.795  0.00  0.00    +0.000 A 
ENDROOT
BRANCH   6   7
ATOM      7  C   UNL     1       1.486  10.286  18.865  0.00  0.00    +0.000 A 
ATOM      8  C   UNL     1       1.794   9.580  17.686  0.00  0.00    +0.000 A 
ATOM      9  C   UNL     1       2.212   8.247  17.685  0.00  0.00    +0.000 A 
ATOM     10  C   UNL     1       2.259   7.525  18.870  0.00  0.00    +0.000 A 
ATOM     11  C   UNL     1       1.853   8.159  20.046  0.00  0.00    +0.000 A 
ATOM     12  C   UNL     1       1.420   9.508  20.070  0.00  0.00    +0.000 A 
BRANCH  12  13
ATOM     13  N   UNL     1       0.981  10.030  21.333  0.00  0.00    +0.000 N 
ATOM     14  H   UNL     1       0.296  10.759  21.176  0.00  0.00    +0.000 HD
BRANCH  13  15
ATOM     15  C   UNL     1       0.475   8.974  22.263  0.00  0.00    +0.000 C 
BRANCH  15  16
ATOM     16  C   UNL     1      -0.233   9.572  23.468  0.00  0.00    +0.000 C 
ATOM     17  O   UNL     1      -1.237  10.268  23.424  0.00  0.00    +0.000 OA
BRANCH  16  18
ATOM     18  O   UNL     1       0.357   9.232  24.650  0.00  0.00    +0.000 OA
ATOM     19  H   UNL     1       1.315   9.443  24.619  0.00  0.00    +0.000 HD
ENDBRANCH  16  18
ENDBRANCH  15  16
ENDBRANCH  13  15
ENDBRANCH  12  13
BRANCH  10  20
ATOM     20  C   UNL     1       2.706   6.084  18.866  0.00  0.00    +0.000 C 
BRANCH  20  21
ATOM     21  C   UNL     1       1.548   5.070  18.796  0.00  0.00    +0.000 C 
ATOM     22  C   UNL     1       1.758   4.017  17.704  0.00  0.00    +0.000 C 
ATOM     23  C   UNL     1       1.387   4.379  20.152  0.00  0.00    +0.000 C 
ENDBRANCH  20  21
ENDBRANCH  10  20
ENDBRANCH   6   7
BRANCH   1  24
ATOM     24  S   UNL     1      -1.573  11.583  19.128  0.00  0.00    +0.000 S 
ATOM     25  O   UNL     1      -1.588  11.215  20.533  0.00  0.00    +0.000 OA
ATOM     26  O   UNL     1      -1.803  10.593  18.091  0.00  0.00    +0.000 OA
BRANCH  24  27
ATOM     27  N   UNL     1      -2.828  12.722  18.895  0.00  0.00    +0.000 N 
ATOM     28  H   UNL     1      -2.897  12.850  17.885  0.00  0.00    +0.000 HD
BRANCH  27  33
ATOM     29  C   UNL     1      -7.372  10.994  20.212  0.00  0.00    +0.000 C 
ATOM     30  C   UNL     1      -6.037  11.639  20.144  0.00  0.00    +0.000 A 
ATOM     31  N   UNL     1      -5.518  12.203  21.240  0.00  0.00    +0.000 NA
ATOM     32  O   UNL     1      -4.259  12.628  20.876  0.00  0.00    +0.000 OA
ATOM     33  C   UNL     1      -4.036  12.359  19.561  0.00  0.00    +0.000 A 
ATOM     34  C   UNL     1      -5.148  11.733  19.033  0.00  0.00    +0.000 A 
ATOM     35  C   UNL     1      -5.367  11.181  17.676  0.00  0.00    +0.000 C 
ENDBRANCH  27  33
ENDBRANCH  24  27
ENDBRANCH   1  24
TORSDOF 10
ENDMDL
