MODEL 1
REMARK VINA RESULT:      -8.2      0.000      0.000
REMARK  Name = 
REMARK  9 active torsions:
REMARK  status: ('A' for Active; 'I' for Inactive)
REMARK    1  A    between atoms: C_1  and  O_2
REMARK    2  A    between atoms: O_2  and  C_3
REMARK    3  A    between atoms: C_5  and  O_6
REMARK    4  A    between atoms: O_6  and  C_7
REMARK    5  A    between atoms: C_9  and  O_10
REMARK    6  A    between atoms: O_10  and  C_11
REMARK    7  A    between atoms: C_14  and  S_15
REMARK    8  A    between atoms: S_15  and  N_18
REMARK    9  A    between atoms: C_25  and  N_26
REMARK                            x       y       z     vdW  Elec       q    Type
REMARK                         _______ _______ _______ _____ _____    ______ ____
ROOT
ATOM      1  C   UNL     1       1.387   9.358  19.072  0.00  0.00    +0.000 A 
ATOM      2  C   UNL     1       1.983   9.034  17.839  0.00  0.00    +0.000 A 
ATOM      3  C   UNL     1       2.755   7.895  17.693  0.00  0.00    +0.000 A 
ATOM      4  C   UNL     1       2.905   7.025  18.765  0.00  0.00    +0.000 A 
ATOM      5  C   UNL     1       2.217   7.247  19.971  0.00  0.00    +0.000 A 
ATOM      6  C   UNL     1       1.441   8.421  20.107  0.00  0.00    +0.000 A 
ENDROOT
BRANCH   4   7
ATOM      7  S   UNL     1       3.908   5.556  18.522  0.00  0.00    +0.000 S 
ATOM      8  O   UNL     1       4.140   5.446  17.109  0.00  0.00    +0.000 OA
ATOM      9  O   UNL     1       5.000   5.648  19.472  0.00  0.00    +0.000 OA
BRANCH   7  10
ATOM     10  N   UNL     1       2.886   4.272  19.020  0.00  0.00    +0.000 NA
ATOM     11  C   UNL     1       2.812   4.026  20.483  0.00  0.00    +0.000 C 
ATOM     12  C   UNL     1       2.043   2.753  20.815  0.00  0.00    +0.000 C 
ATOM     13  C   UNL     1       0.687   2.736  20.131  0.00  0.00    +0.000 C 
ATOM     14  C   UNL     1       0.881   2.829  18.626  0.00  0.00    +0.000 C 
ATOM     15  C   UNL     1       1.643   4.089  18.228  0.00  0.00    +0.000 C 
ENDBRANCH   7  10
ENDBRANCH   4   7
BRANCH   6  16
ATOM     16  N   UNL     1       0.757   8.630  21.378  0.00  0.00    +0.000 N 
ATOM     17  O   UNL     1      -0.413   8.281  21.451  0.00  0.00    +0.000 OA
ATOM     18  O   UNL     1       1.452   9.068  22.318  0.00  0.00    +0.000 OA
ENDBRANCH   6  16
BRANCH   1  19
ATOM     19  O   UNL     1       0.775  10.586  19.212  0.00  0.00    +0.000 OA
BRANCH  19  24
ATOM     20  C   UNL     1      -2.444  10.277  17.361  0.00  0.00    +0.000 A 
ATOM     21  C   UNL     1      -3.200  11.184  18.103  0.00  0.00    +0.000 A 
ATOM     22  C   UNL     1      -2.659  11.824  19.227  0.00  0.00    +0.000 A 
ATOM     23  C   UNL     1      -1.338  11.568  19.598  0.00  0.00    +0.000 A 
ATOM     24  C   UNL     1      -0.562  10.693  18.846  0.00  0.00    +0.000 A 
ATOM     25  C   UNL     1      -1.129  10.027  17.745  0.00  0.00    +0.000 A 
BRANCH  20  27
ATOM     26  C   UNL     1      -3.120  10.536  15.090  0.00  0.00    +0.000 C 
ATOM     27  O   UNL     1      -3.062   9.735  16.267  0.00  0.00    +0.000 OA
ENDBRANCH  20  27
BRANCH  22  28
ATOM     28  O   UNL     1      -3.495  12.707  19.854  0.00  0.00    +0.000 OA
ATOM     29  C   UNL     1      -4.892  12.474  19.695  0.00  0.00    +0.000 C 
ENDBRANCH  22  28
ENDBRANCH  19  24
ENDBRANCH   1  19
TORSDOF 7
ENDMDL
MODEL 2
REMARK VINA RESULT:      -8.2      3.232      8.328
REMARK  Name = 
REMARK  9 active torsions:
REMARK  status: ('A' for Active; 'I' for Inactive)
REMARK    1  A    between atoms: C_1  and  O_2
REMARK    2  A    between atoms: O_2  and  C_3
REMARK    3  A    between atoms: C_5  and  O_6
REMARK    4  A    between atoms: O_6  and  C_7
REMARK    5  A    between atoms: C_9  and  O_10
REMARK    6  A    between atoms: O_10  and  C_11
REMARK    7  A    between atoms: C_14  and  S_15
REMARK    8  A    between atoms: S_15  and  N_18
REMARK    9  A    between atoms: C_25  and  N_26
REMARK                            x       y       z     vdW  Elec       q    Type
REMARK                         _______ _______ _______ _____ _____    ______ ____
ROOT
ATOM      1  C   UNL     1       2.677   5.602  18.575  0.00  0.00    +0.000 A 
ATOM      2  C   UNL     1       2.762   6.971  18.262  0.00  0.00    +0.000 A 
ATOM      3  C   UNL     1       2.179   7.930  19.072  0.00  0.00    +0.000 A 
ATOM      4  C   UNL     1       1.542   7.543  20.244  0.00  0.00    +0.000 A 
ATOM      5  C   UNL     1       1.553   6.198  20.657  0.00  0.00    +0.000 A 
ATOM      6  C   UNL     1       2.144   5.231  19.812  0.00  0.00    +0.000 A 
ENDROOT
BRANCH   4   7
ATOM      7  S   UNL     1       0.810   8.824  21.267  0.00  0.00    +0.000 S 
ATOM      8  O   UNL     1      -0.469   8.329  21.693  0.00  0.00    +0.000 OA
ATOM      9  O   UNL     1       1.833   9.220  22.216  0.00  0.00    +0.000 OA
BRANCH   7  10
ATOM     10  N   UNL     1       0.568  10.130  20.181  0.00  0.00    +0.000 NA
ATOM     11  C   UNL     1      -0.753  10.180  19.505  0.00  0.00    +0.000 C 
ATOM     12  C   UNL     1      -0.806  11.249  18.421  0.00  0.00    +0.000 C 
ATOM     13  C   UNL     1      -0.351  12.596  18.955  0.00  0.00    +0.000 C 
ATOM     14  C   UNL     1       1.073  12.477  19.476  0.00  0.00    +0.000 C 
ATOM     15  C   UNL     1       1.190  11.420  20.571  0.00  0.00    +0.000 C 
ENDBRANCH   7  10
ENDBRANCH   4   7
BRANCH   6  16
ATOM     16  N   UNL     1       2.119   3.844  20.261  0.00  0.00    +0.000 N 
ATOM     17  O   UNL     1       3.189   3.331  20.563  0.00  0.00    +0.000 OA
ATOM     18  O   UNL     1       0.994   3.320  20.386  0.00  0.00    +0.000 OA
ENDBRANCH   6  16
BRANCH   1  19
ATOM     19  O   UNL     1       3.121   4.680  17.650  0.00  0.00    +0.000 OA
BRANCH  19  24
ATOM     20  C   UNL     1       6.166   4.794  15.504  0.00  0.00    +0.000 A 
ATOM     21  C   UNL     1       7.132   4.729  16.508  0.00  0.00    +0.000 A 
ATOM     22  C   UNL     1       6.766   4.715  17.861  0.00  0.00    +0.000 A 
ATOM     23  C   UNL     1       5.415   4.745  18.212  0.00  0.00    +0.000 A 
ATOM     24  C   UNL     1       4.441   4.773  17.220  0.00  0.00    +0.000 A 
ATOM     25  C   UNL     1       4.822   4.828  15.867  0.00  0.00    +0.000 A 
BRANCH  20  27
ATOM     26  C   UNL     1       6.141   3.741  13.366  0.00  0.00    +0.000 C 
ATOM     27  O   UNL     1       6.634   4.770  14.218  0.00  0.00    +0.000 OA
ENDBRANCH  20  27
BRANCH  22  28
ATOM     28  O   UNL     1       7.806   4.628  18.745  0.00  0.00    +0.000 OA
ATOM     29  C   UNL     1       8.033   5.769  19.568  0.00  0.00    +0.000 C 
ENDBRANCH  22  28
ENDBRANCH  19  24
ENDBRANCH   1  19
TORSDOF 7
ENDMDL
MODEL 3
REMARK VINA RESULT:      -8.1      3.216      8.531
REMARK  Name = 
REMARK  9 active torsions:
REMARK  status: ('A' for Active; 'I' for Inactive)
REMARK    1  A    between atoms: C_1  and  O_2
REMARK    2  A    between atoms: O_2  and  C_3
REMARK    3  A    between atoms: C_5  and  O_6
REMARK    4  A    between atoms: O_6  and  C_7
REMARK    5  A    between atoms: C_9  and  O_10
REMARK    6  A    between atoms: O_10  and  C_11
REMARK    7  A    between atoms: C_14  and  S_15
REMARK    8  A    between atoms: S_15  and  N_18
REMARK    9  A    between atoms: C_25  and  N_26
REMARK                            x       y       z     vdW  Elec       q    Type
REMARK                         _______ _______ _______ _____ _____    ______ ____
ROOT
ATOM      1  C   UNL     1       2.688   5.590  18.513  0.00  0.00    +0.000 A 
ATOM      2  C   UNL     1       2.793   6.957  18.198  0.00  0.00    +0.000 A 
ATOM      3  C   UNL     1       2.228   7.926  19.008  0.00  0.00    +0.000 A 
ATOM      4  C   UNL     1       1.590   7.552  20.183  0.00  0.00    +0.000 A 
ATOM      5  C   UNL     1       1.581   6.208  20.599  0.00  0.00    +0.000 A 
ATOM      6  C   UNL     1       2.153   5.230  19.754  0.00  0.00    +0.000 A 
ENDROOT
BRANCH   4   7
ATOM      7  S   UNL     1       0.882   8.847  21.206  0.00  0.00    +0.000 S 
ATOM      8  O   UNL     1      -0.378   8.350  21.683  0.00  0.00    +0.000 OA
ATOM      9  O   UNL     1       1.933   9.267  22.113  0.00  0.00    +0.000 OA
BRANCH   7  10
ATOM     10  N   UNL     1       0.594  10.130  20.105  0.00  0.00    +0.000 NA
ATOM     11  C   UNL     1      -0.757  10.172  19.490  0.00  0.00    +0.000 C 
ATOM     12  C   UNL     1      -0.856  11.218  18.387  0.00  0.00    +0.000 C 
ATOM     13  C   UNL     1      -0.372  12.574  18.871  0.00  0.00    +0.000 C 
ATOM     14  C   UNL     1       1.074  12.459  19.327  0.00  0.00    +0.000 C 
ATOM     15  C   UNL     1       1.238  11.426  20.437  0.00  0.00    +0.000 C 
ENDBRANCH   7  10
ENDBRANCH   4   7
BRANCH   6  16
ATOM     16  N   UNL     1       2.108   3.844  20.205  0.00  0.00    +0.000 N 
ATOM     17  O   UNL     1       1.029   3.270  20.152  0.00  0.00    +0.000 OA
ATOM     18  O   UNL     1       3.198   3.328  20.526  0.00  0.00    +0.000 OA
ENDBRANCH   6  16
BRANCH   1  19
ATOM     19  O   UNL     1       3.114   4.659  17.590  0.00  0.00    +0.000 OA
BRANCH  19  24
ATOM     20  C   UNL     1       6.827   4.668  17.908  0.00  0.00    +0.000 A 
ATOM     21  C   UNL     1       7.153   4.727  16.553  0.00  0.00    +0.000 A 
ATOM     22  C   UNL     1       6.155   4.696  15.569  0.00  0.00    +0.000 A 
ATOM     23  C   UNL     1       4.813   4.628  15.949  0.00  0.00    +0.000 A 
ATOM     24  C   UNL     1       4.473   4.607  17.297  0.00  0.00    +0.000 A 
ATOM     25  C   UNL     1       5.485   4.596  18.273  0.00  0.00    +0.000 A 
BRANCH  20  27
ATOM     26  C   UNL     1       7.876   5.809  19.719  0.00  0.00    +0.000 C 
ATOM     27  O   UNL     1       7.878   4.736  18.781  0.00  0.00    +0.000 OA
ENDBRANCH  20  27
BRANCH  22  28
ATOM     28  O   UNL     1       6.604   4.782  14.280  0.00  0.00    +0.000 OA
ATOM     29  C   UNL     1       6.134   3.781  13.380  0.00  0.00    +0.000 C 
ENDBRANCH  22  28
ENDBRANCH  19  24
ENDBRANCH   1  19
TORSDOF 7
ENDMDL
MODEL 4
REMARK VINA RESULT:      -8.1      0.485      1.039
REMARK  Name = 
REMARK  9 active torsions:
REMARK  status: ('A' for Active; 'I' for Inactive)
REMARK    1  A    between atoms: C_1  and  O_2
REMARK    2  A    between atoms: O_2  and  C_3
REMARK    3  A    between atoms: C_5  and  O_6
REMARK    4  A    between atoms: O_6  and  C_7
REMARK    5  A    between atoms: C_9  and  O_10
REMARK    6  A    between atoms: O_10  and  C_11
REMARK    7  A    between atoms: C_14  and  S_15
REMARK    8  A    between atoms: S_15  and  N_18
REMARK    9  A    between atoms: C_25  and  N_26
REMARK                            x       y       z     vdW  Elec       q    Type
REMARK                         _______ _______ _______ _____ _____    ______ ____
ROOT
ATOM      1  C   UNL     1       1.200   9.629  19.153  0.00  0.00    +0.000 A 
ATOM      2  C   UNL     1       1.723   9.228  17.910  0.00  0.00    +0.000 A 
ATOM      3  C   UNL     1       2.442   8.052  17.780  0.00  0.00    +0.000 A 
ATOM      4  C   UNL     1       2.609   7.224  18.882  0.00  0.00    +0.000 A 
ATOM      5  C   UNL     1       1.988   7.526  20.107  0.00  0.00    +0.000 A 
ATOM      6  C   UNL     1       1.266   8.735  20.226  0.00  0.00    +0.000 A 
ENDROOT
BRANCH   4   7
ATOM      7  S   UNL     1       3.541   5.705  18.660  0.00  0.00    +0.000 S 
ATOM      8  O   UNL     1       3.780   5.573  17.249  0.00  0.00    +0.000 OA
ATOM      9  O   UNL     1       4.627   5.752  19.619  0.00  0.00    +0.000 OA
BRANCH   7  10
ATOM     10  N   UNL     1       2.452   4.477  19.156  0.00  0.00    +0.000 NA
ATOM     11  C   UNL     1       1.967   3.564  18.090  0.00  0.00    +0.000 C 
ATOM     12  C   UNL     1       0.861   2.638  18.583  0.00  0.00    +0.000 C 
ATOM     13  C   UNL     1       1.276   1.915  19.853  0.00  0.00    +0.000 C 
ATOM     14  C   UNL     1       1.596   2.937  20.933  0.00  0.00    +0.000 C 
ATOM     15  C   UNL     1       2.702   3.894  20.499  0.00  0.00    +0.000 C 
ENDBRANCH   7  10
ENDBRANCH   4   7
BRANCH   6  16
ATOM     16  N   UNL     1       0.653   9.027  21.515  0.00  0.00    +0.000 N 
ATOM     17  O   UNL     1      -0.465   8.572  21.723  0.00  0.00    +0.000 OA
ATOM     18  O   UNL     1       1.358   9.643  22.340  0.00  0.00    +0.000 OA
ENDBRANCH   6  16
BRANCH   1  19
ATOM     19  O   UNL     1       0.644  10.885  19.266  0.00  0.00    +0.000 OA
BRANCH  19  24
ATOM     20  C   UNL     1      -2.707  10.680  17.649  0.00  0.00    +0.000 A 
ATOM     21  C   UNL     1      -3.391  11.575  18.471  0.00  0.00    +0.000 A 
ATOM     22  C   UNL     1      -2.759  12.172  19.571  0.00  0.00    +0.000 A 
ATOM     23  C   UNL     1      -1.419  11.885  19.836  0.00  0.00    +0.000 A 
ATOM     24  C   UNL     1      -0.714  11.023  19.002  0.00  0.00    +0.000 A 
ATOM     25  C   UNL     1      -1.371  10.400  17.927  0.00  0.00    +0.000 A 
BRANCH  20  27
ATOM     26  C   UNL     1      -3.181  10.780  15.315  0.00  0.00    +0.000 C 
ATOM     27  O   UNL     1      -3.412  10.182  16.587  0.00  0.00    +0.000 OA
ENDBRANCH  20  27
BRANCH  22  28
ATOM     28  O   UNL     1      -3.533  13.046  20.284  0.00  0.00    +0.000 OA
ATOM     29  C   UNL     1      -4.932  13.013  20.017  0.00  0.00    +0.000 C 
ENDBRANCH  22  28
ENDBRANCH  19  24
ENDBRANCH   1  19
TORSDOF 7
ENDMDL
MODEL 5
REMARK VINA RESULT:      -8.0      0.449      2.368
REMARK  Name = 
REMARK  9 active torsions:
REMARK  status: ('A' for Active; 'I' for Inactive)
REMARK    1  A    between atoms: C_1  and  O_2
REMARK    2  A    between atoms: O_2  and  C_3
REMARK    3  A    between atoms: C_5  and  O_6
REMARK    4  A    between atoms: O_6  and  C_7
REMARK    5  A    between atoms: C_9  and  O_10
REMARK    6  A    between atoms: O_10  and  C_11
REMARK    7  A    between atoms: C_14  and  S_15
REMARK    8  A    between atoms: S_15  and  N_18
REMARK    9  A    between atoms: C_25  and  N_26
REMARK                            x       y       z     vdW  Elec       q    Type
REMARK                         _______ _______ _______ _____ _____    ______ ____
ROOT
ATOM      1  C   UNL     1       1.228   9.664  19.108  0.00  0.00    +0.000 A 
ATOM      2  C   UNL     1       1.767   9.255  17.875  0.00  0.00    +0.000 A 
ATOM      3  C   UNL     1       2.469   8.067  17.757  0.00  0.00    +0.000 A 
ATOM      4  C   UNL     1       2.601   7.236  18.861  0.00  0.00    +0.000 A 
ATOM      5  C   UNL     1       1.963   7.548  20.076  0.00  0.00    +0.000 A 
ATOM      6  C   UNL     1       1.260   8.770  20.182  0.00  0.00    +0.000 A 
ENDROOT
BRANCH   4   7
ATOM      7  S   UNL     1       3.512   5.702  18.655  0.00  0.00    +0.000 S 
ATOM      8  O   UNL     1       3.738   5.546  17.245  0.00  0.00    +0.000 OA
ATOM      9  O   UNL     1       4.605   5.748  19.606  0.00  0.00    +0.000 OA
BRANCH   7  10
ATOM     10  N   UNL     1       2.411   4.496  19.179  0.00  0.00    +0.000 NA
ATOM     11  C   UNL     1       2.020   3.484  18.165  0.00  0.00    +0.000 C 
ATOM     12  C   UNL     1       0.898   2.578  18.657  0.00  0.00    +0.000 C 
ATOM     13  C   UNL     1       1.231   1.977  20.012  0.00  0.00    +0.000 C 
ATOM     14  C   UNL     1       1.454   3.095  21.018  0.00  0.00    +0.000 C 
ATOM     15  C   UNL     1       2.572   4.037  20.582  0.00  0.00    +0.000 C 
ENDBRANCH   7  10
ENDBRANCH   4   7
BRANCH   6  16
ATOM     16  N   UNL     1       0.629   9.071  21.461  0.00  0.00    +0.000 N 
ATOM     17  O   UNL     1       1.227   9.821  22.221  0.00  0.00    +0.000 OA
ATOM     18  O   UNL     1      -0.517   8.608  21.638  0.00  0.00    +0.000 OA
ENDBRANCH   6  16
BRANCH   1  19
ATOM     19  O   UNL     1       0.692  10.930  19.212  0.00  0.00    +0.000 OA
BRANCH  19  24
ATOM     20  C   UNL     1      -2.896  11.935  19.250  0.00  0.00    +0.000 A 
ATOM     21  C   UNL     1      -3.339  11.171  18.170  0.00  0.00    +0.000 A 
ATOM     22  C   UNL     1      -2.443  10.399  17.417  0.00  0.00    +0.000 A 
ATOM     23  C   UNL     1      -1.091  10.375  17.765  0.00  0.00    +0.000 A 
ATOM     24  C   UNL     1      -0.643  11.103  18.862  0.00  0.00    +0.000 A 
ATOM     25  C   UNL     1      -1.545  11.905  19.584  0.00  0.00    +0.000 A 
BRANCH  20  27
ATOM     26  C   UNL     1      -5.189  12.562  19.420  0.00  0.00    +0.000 C 
ATOM     27  O   UNL     1      -3.862  12.625  19.932  0.00  0.00    +0.000 OA
ENDBRANCH  20  27
BRANCH  22  28
ATOM     28  O   UNL     1      -3.006   9.679  16.399  0.00  0.00    +0.000 OA
ATOM     29  C   UNL     1      -2.940  10.265  15.102  0.00  0.00    +0.000 C 
ENDBRANCH  22  28
ENDBRANCH  19  24
ENDBRANCH   1  19
TORSDOF 7
ENDMDL
MODEL 6
REMARK VINA RESULT:      -8.0      2.040      2.696
REMARK  Name = 
REMARK  9 active torsions:
REMARK  status: ('A' for Active; 'I' for Inactive)
REMARK    1  A    between atoms: C_1  and  O_2
REMARK    2  A    between atoms: O_2  and  C_3
REMARK    3  A    between atoms: C_5  and  O_6
REMARK    4  A    between atoms: O_6  and  C_7
REMARK    5  A    between atoms: C_9  and  O_10
REMARK    6  A    between atoms: O_10  and  C_11
REMARK    7  A    between atoms: C_14  and  S_15
REMARK    8  A    between atoms: S_15  and  N_18
REMARK    9  A    between atoms: C_25  and  N_26
REMARK                            x       y       z     vdW  Elec       q    Type
REMARK                         _______ _______ _______ _____ _____    ______ ____
ROOT
ATOM      1  C   UNL     1       1.464   9.180  19.182  0.00  0.00    +0.000 A 
ATOM      2  C   UNL     1       1.925   8.632  17.971  0.00  0.00    +0.000 A 
ATOM      3  C   UNL     1       2.453   7.354  17.917  0.00  0.00    +0.000 A 
ATOM      4  C   UNL     1       2.483   6.575  19.066  0.00  0.00    +0.000 A 
ATOM      5  C   UNL     1       1.910   7.039  20.263  0.00  0.00    +0.000 A 
ATOM      6  C   UNL     1       1.384   8.350  20.304  0.00  0.00    +0.000 A 
ENDROOT
BRANCH   4   7
ATOM      7  S   UNL     1       3.169   4.920  18.942  0.00  0.00    +0.000 S 
ATOM      8  O   UNL     1       3.300   4.429  20.286  0.00  0.00    +0.000 OA
ATOM      9  O   UNL     1       2.375   4.225  17.947  0.00  0.00    +0.000 OA
BRANCH   7  10
ATOM     10  N   UNL     1       4.733   5.170  18.286  0.00  0.00    +0.000 NA
ATOM     11  C   UNL     1       5.848   5.244  19.264  0.00  0.00    +0.000 C 
ATOM     12  C   UNL     1       7.160   5.662  18.612  0.00  0.00    +0.000 C 
ATOM     13  C   UNL     1       7.474   4.795  17.405  0.00  0.00    +0.000 C 
ATOM     14  C   UNL     1       6.348   4.916  16.391  0.00  0.00    +0.000 C 
ATOM     15  C   UNL     1       5.003   4.507  16.985  0.00  0.00    +0.000 C 
ENDBRANCH   7  10
ENDBRANCH   4   7
BRANCH   6  16
ATOM     16  N   UNL     1       0.816   8.807  21.566  0.00  0.00    +0.000 N 
ATOM     17  O   UNL     1       1.543   9.452  22.310  0.00  0.00    +0.000 OA
ATOM     18  O   UNL     1      -0.397   8.577  21.746  0.00  0.00    +0.000 OA
ENDBRANCH   6  16
BRANCH   1  19
ATOM     19  O   UNL     1       1.109  10.512  19.216  0.00  0.00    +0.000 OA
BRANCH  19  24
ATOM     20  C   UNL     1      -2.370  10.816  17.916  0.00  0.00    +0.000 A 
ATOM     21  C   UNL     1      -2.859  11.739  18.841  0.00  0.00    +0.000 A 
ATOM     22  C   UNL     1      -2.061  12.188  19.902  0.00  0.00    +0.000 A 
ATOM     23  C   UNL     1      -0.750  11.724  20.026  0.00  0.00    +0.000 A 
ATOM     24  C   UNL     1      -0.238  10.832  19.089  0.00  0.00    +0.000 A 
ATOM     25  C   UNL     1      -1.062  10.357  18.053  0.00  0.00    +0.000 A 
BRANCH  20  27
ATOM     26  C   UNL     1      -2.793  10.736  15.572  0.00  0.00    +0.000 C 
ATOM     27  O   UNL     1      -3.224  10.471  16.904  0.00  0.00    +0.000 OA
ENDBRANCH  20  27
BRANCH  22  28
ATOM     28  O   UNL     1      -2.650  13.109  20.726  0.00  0.00    +0.000 OA
ATOM     29  C   UNL     1      -4.050  13.306  20.551  0.00  0.00    +0.000 C 
ENDBRANCH  22  28
ENDBRANCH  19  24
ENDBRANCH   1  19
TORSDOF 7
ENDMDL
MODEL 7
REMARK VINA RESULT:      -8.0      2.005      3.372
REMARK  Name = 
REMARK  9 active torsions:
REMARK  status: ('A' for Active; 'I' for Inactive)
REMARK    1  A    between atoms: C_1  and  O_2
REMARK    2  A    between atoms: O_2  and  C_3
REMARK    3  A    between atoms: C_5  and  O_6
REMARK    4  A    between atoms: O_6  and  C_7
REMARK    5  A    between atoms: C_9  and  O_10
REMARK    6  A    between atoms: O_10  and  C_11
REMARK    7  A    between atoms: C_14  and  S_15
REMARK    8  A    between atoms: S_15  and  N_18
REMARK    9  A    between atoms: C_25  and  N_26
REMARK                            x       y       z     vdW  Elec       q    Type
REMARK                         _______ _______ _______ _____ _____    ______ ____
ROOT
ATOM      1  C   UNL     1       1.526   9.229  19.097  0.00  0.00    +0.000 A 
ATOM      2  C   UNL     1       2.029   8.655  17.915  0.00  0.00    +0.000 A 
ATOM      3  C   UNL     1       2.543   7.369  17.905  0.00  0.00    +0.000 A 
ATOM      4  C   UNL     1       2.516   6.610  19.066  0.00  0.00    +0.000 A 
ATOM      5  C   UNL     1       1.900   7.101  20.232  0.00  0.00    +0.000 A 
ATOM      6  C   UNL     1       1.390   8.420  20.228  0.00  0.00    +0.000 A 
ENDROOT
BRANCH   4   7
ATOM      7  S   UNL     1       3.185   4.945  18.999  0.00  0.00    +0.000 S 
ATOM      8  O   UNL     1       3.323   4.502  20.359  0.00  0.00    +0.000 OA
ATOM      9  O   UNL     1       2.377   4.221  18.037  0.00  0.00    +0.000 OA
BRANCH   7  10
ATOM     10  N   UNL     1       4.746   5.155  18.322  0.00  0.00    +0.000 NA
ATOM     11  C   UNL     1       5.876   5.199  19.285  0.00  0.00    +0.000 C 
ATOM     12  C   UNL     1       7.189   5.584  18.616  0.00  0.00    +0.000 C 
ATOM     13  C   UNL     1       7.465   4.711  17.404  0.00  0.00    +0.000 C 
ATOM     14  C   UNL     1       6.328   4.861  16.406  0.00  0.00    +0.000 C 
ATOM     15  C   UNL     1       4.982   4.486  17.017  0.00  0.00    +0.000 C 
ENDBRANCH   7  10
ENDBRANCH   4   7
BRANCH   6  16
ATOM     16  N   UNL     1       0.778   8.905  21.459  0.00  0.00    +0.000 N 
ATOM     17  O   UNL     1       1.464   9.606  22.191  0.00  0.00    +0.000 OA
ATOM     18  O   UNL     1      -0.430   8.638  21.622  0.00  0.00    +0.000 OA
ENDBRANCH   6  16
BRANCH   1  19
ATOM     19  O   UNL     1       1.188  10.565  19.094  0.00  0.00    +0.000 OA
BRANCH  19  24
ATOM     20  C   UNL     1      -2.225  11.983  19.572  0.00  0.00    +0.000 A 
ATOM     21  C   UNL     1      -2.883  11.293  18.554  0.00  0.00    +0.000 A 
ATOM     22  C   UNL     1      -2.182  10.434  17.696  0.00  0.00    +0.000 A 
ATOM     23  C   UNL     1      -0.811  10.246  17.876  0.00  0.00    +0.000 A 
ATOM     24  C   UNL     1      -0.150  10.899  18.911  0.00  0.00    +0.000 A 
ATOM     25  C   UNL     1      -0.856  11.790  19.738  0.00  0.00    +0.000 A 
BRANCH  20  27
ATOM     26  C   UNL     1      -4.414  12.756  20.115  0.00  0.00    +0.000 C 
ATOM     27  O   UNL     1      -3.012  12.770  20.368  0.00  0.00    +0.000 OA
ENDBRANCH  20  27
BRANCH  22  28
ATOM     28  O   UNL     1      -2.946   9.801  16.753  0.00  0.00    +0.000 OA
ATOM     29  C   UNL     1      -2.782  10.244  15.408  0.00  0.00    +0.000 C 
ENDBRANCH  22  28
ENDBRANCH  19  24
ENDBRANCH   1  19
TORSDOF 7
ENDMDL
MODEL 8
REMARK VINA RESULT:      -7.9      0.428      2.260
REMARK  Name = 
REMARK  9 active torsions:
REMARK  status: ('A' for Active; 'I' for Inactive)
REMARK    1  A    between atoms: C_1  and  O_2
REMARK    2  A    between atoms: O_2  and  C_3
REMARK    3  A    between atoms: C_5  and  O_6
REMARK    4  A    between atoms: O_6  and  C_7
REMARK    5  A    between atoms: C_9  and  O_10
REMARK    6  A    between atoms: O_10  and  C_11
REMARK    7  A    between atoms: C_14  and  S_15
REMARK    8  A    between atoms: S_15  and  N_18
REMARK    9  A    between atoms: C_25  and  N_26
REMARK                            x       y       z     vdW  Elec       q    Type
REMARK                         _______ _______ _______ _____ _____    ______ ____
ROOT
ATOM      1  C   UNL     1       1.308   9.450  19.113  0.00  0.00    +0.000 A 
ATOM      2  C   UNL     1       1.852   9.095  17.866  0.00  0.00    +0.000 A 
ATOM      3  C   UNL     1       2.612   7.948  17.715  0.00  0.00    +0.000 A 
ATOM      4  C   UNL     1       2.802   7.103  18.799  0.00  0.00    +0.000 A 
ATOM      5  C   UNL     1       2.163   7.356  20.027  0.00  0.00    +0.000 A 
ATOM      6  C   UNL     1       1.399   8.537  20.167  0.00  0.00    +0.000 A 
ENDROOT
BRANCH   4   7
ATOM      7  S   UNL     1       3.787   5.623  18.551  0.00  0.00    +0.000 S 
ATOM      8  O   UNL     1       3.931   5.459  17.130  0.00  0.00    +0.000 OA
ATOM      9  O   UNL     1       4.936   5.748  19.426  0.00  0.00    +0.000 OA
BRANCH   7  10
ATOM     10  N   UNL     1       2.798   4.361  19.159  0.00  0.00    +0.000 NA
ATOM     11  C   UNL     1       2.739   4.233  20.637  0.00  0.00    +0.000 C 
ATOM     12  C   UNL     1       2.002   2.974  21.078  0.00  0.00    +0.000 C 
ATOM     13  C   UNL     1       0.642   2.871  20.409  0.00  0.00    +0.000 C 
ATOM     14  C   UNL     1       0.824   2.847  18.900  0.00  0.00    +0.000 C 
ATOM     15  C   UNL     1       1.555   4.087  18.395  0.00  0.00    +0.000 C 
ENDBRANCH   7  10
ENDBRANCH   4   7
BRANCH   6  16
ATOM     16  N   UNL     1       0.769   8.779  21.459  0.00  0.00    +0.000 N 
ATOM     17  O   UNL     1       1.426   9.372  22.304  0.00  0.00    +0.000 OA
ATOM     18  O   UNL     1      -0.427   8.438  21.567  0.00  0.00    +0.000 OA
ENDBRANCH   6  16
BRANCH   1  19
ATOM     19  O   UNL     1       0.708  10.684  19.250  0.00  0.00    +0.000 OA
BRANCH  19  24
ATOM     20  C   UNL     1      -2.885  11.617  18.915  0.00  0.00    +0.000 A 
ATOM     21  C   UNL     1      -3.191  10.867  17.780  0.00  0.00    +0.000 A 
ATOM     22  C   UNL     1      -2.202  10.129  17.115  0.00  0.00    +0.000 A 
ATOM     23  C   UNL     1      -0.896  10.124  17.607  0.00  0.00    +0.000 A 
ATOM     24  C   UNL     1      -0.585  10.838  18.760  0.00  0.00    +0.000 A 
ATOM     25  C   UNL     1      -1.577  11.607  19.394  0.00  0.00    +0.000 A 
BRANCH  20  27
ATOM     26  C   UNL     1      -3.710  12.832  20.792  0.00  0.00    +0.000 C 
ATOM     27  O   UNL     1      -3.933  12.274  19.501  0.00  0.00    +0.000 OA
ENDBRANCH  20  27
BRANCH  22  28
ATOM     28  O   UNL     1      -2.636   9.420  16.028  0.00  0.00    +0.000 OA
ATOM     29  C   UNL     1      -3.016  10.184  14.888  0.00  0.00    +0.000 C 
ENDBRANCH  22  28
ENDBRANCH  19  24
ENDBRANCH   1  19
TORSDOF 7
ENDMDL
MODEL 9
REMARK VINA RESULT:      -7.7      1.997      3.444
REMARK  Name = 
REMARK  9 active torsions:
REMARK  status: ('A' for Active; 'I' for Inactive)
REMARK    1  A    between atoms: C_1  and  O_2
REMARK    2  A    between atoms: O_2  and  C_3
REMARK    3  A    between atoms: C_5  and  O_6
REMARK    4  A    between atoms: O_6  and  C_7
REMARK    5  A    between atoms: C_9  and  O_10
REMARK    6  A    between atoms: O_10  and  C_11
REMARK    7  A    between atoms: C_14  and  S_15
REMARK    8  A    between atoms: S_15  and  N_18
REMARK    9  A    between atoms: C_25  and  N_26
REMARK                            x       y       z     vdW  Elec       q    Type
REMARK                         _______ _______ _______ _____ _____    ______ ____
ROOT
ATOM      1  C   UNL     1       1.682   8.877  19.112  0.00  0.00    +0.000 A 
ATOM      2  C   UNL     1       2.181   8.294  17.933  0.00  0.00    +0.000 A 
ATOM      3  C   UNL     1       2.624   6.983  17.914  0.00  0.00    +0.000 A 
ATOM      4  C   UNL     1       2.528   6.208  19.062  0.00  0.00    +0.000 A 
ATOM      5  C   UNL     1       1.912   6.715  20.220  0.00  0.00    +0.000 A 
ATOM      6  C   UNL     1       1.475   8.060  20.227  0.00  0.00    +0.000 A 
ENDROOT
BRANCH   4   7
ATOM      7  S   UNL     1       3.106   4.510  18.982  0.00  0.00    +0.000 S 
ATOM      8  O   UNL     1       3.071   4.002  20.326  0.00  0.00    +0.000 OA
ATOM      9  O   UNL     1       2.368   3.880  17.905  0.00  0.00    +0.000 OA
BRANCH   7  10
ATOM     10  N   UNL     1       4.741   4.654  18.485  0.00  0.00    +0.000 NA
ATOM     11  C   UNL     1       4.983   4.628  17.020  0.00  0.00    +0.000 C 
ATOM     12  C   UNL     1       6.467   4.562  16.682  0.00  0.00    +0.000 C 
ATOM     13  C   UNL     1       7.243   5.652  17.401  0.00  0.00    +0.000 C 
ATOM     14  C   UNL     1       7.061   5.493  18.902  0.00  0.00    +0.000 C 
ATOM     15  C   UNL     1       5.591   5.553  19.306  0.00  0.00    +0.000 C 
ENDBRANCH   7  10
ENDBRANCH   4   7
BRANCH   6  16
ATOM     16  N   UNL     1       0.860   8.559  21.450  0.00  0.00    +0.000 N 
ATOM     17  O   UNL     1      -0.340   8.369  21.595  0.00  0.00    +0.000 OA
ATOM     18  O   UNL     1       1.629   9.063  22.294  0.00  0.00    +0.000 OA
ENDBRANCH   6  16
BRANCH   1  19
ATOM     19  O   UNL     1       1.418  10.230  19.124  0.00  0.00    +0.000 OA
BRANCH  19  24
ATOM     20  C   UNL     1      -1.923  11.840  19.496  0.00  0.00    +0.000 A 
ATOM     21  C   UNL     1      -2.585  11.192  18.453  0.00  0.00    +0.000 A 
ATOM     22  C   UNL     1      -1.906  10.296  17.615  0.00  0.00    +0.000 A 
ATOM     23  C   UNL     1      -0.554  10.029  17.839  0.00  0.00    +0.000 A 
ATOM     24  C   UNL     1       0.108  10.641  18.898  0.00  0.00    +0.000 A 
ATOM     25  C   UNL     1      -0.573  11.568  19.706  0.00  0.00    +0.000 A 
BRANCH  20  27
ATOM     26  C   UNL     1      -4.098  12.632  20.063  0.00  0.00    +0.000 C 
ATOM     27  O   UNL     1      -2.690  12.669  20.269  0.00  0.00    +0.000 OA
ENDBRANCH  20  27
BRANCH  22  28
ATOM     28  O   UNL     1      -2.673   9.711  16.644  0.00  0.00    +0.000 OA
ATOM     29  C   UNL     1      -2.792  10.427  15.418  0.00  0.00    +0.000 C 
ENDBRANCH  22  28
ENDBRANCH  19  24
ENDBRANCH   1  19
TORSDOF 7
ENDMDL
