MODEL 1
REMARK VINA RESULT:      -6.6      0.000      0.000
REMARK  Name = 
REMARK  8 active torsions:
REMARK  status: ('A' for Active; 'I' for Inactive)
REMARK    1  A    between atoms: C_1  and  C_2
REMARK    2  A    between atoms: C_2  and  C_3
REMARK    3  A    between atoms: C_2  and  O_4
REMARK    4  A    between atoms: O_4  and  C_5
REMARK    5  A    between atoms: C_5  and  C_6
REMARK    6  A    between atoms: C_5  and  C_7
REMARK    7  A    between atoms: N_12  and  C_13
REMARK    8  A    between atoms: C_13  and  C_14
REMARK                            x       y       z     vdW  Elec       q    Type
REMARK                         _______ _______ _______ _____ _____    ______ ____
ROOT
ATOM      1  C   UNL     1       4.944   4.742  18.395  0.00  0.00    +0.000 A 
ATOM      2  N   UNL     1       5.485   4.359  19.525  0.00  0.00    +0.000 NA
ATOM      3  N   UNL     1       6.690   4.994  19.548  0.00  0.00    +0.000 N 
ATOM      4  C   UNL     1       6.857   5.756  18.405  0.00  0.00    +0.000 A 
ATOM      5  O   UNL     1       7.829   6.441  18.137  0.00  0.00    +0.000 OA
ATOM      6  N   UNL     1       5.715   5.572  17.670  0.00  0.00    +0.000 N 
ATOM      7  H   UNL     1       7.352   4.903  20.309  0.00  0.00    +0.000 HD
ENDROOT
BRANCH   1   8
ATOM      8  C   UNL     1       3.580   4.195  17.974  0.00  0.00    +0.000 C 
ATOM      9  C   UNL     1       2.563   5.333  17.996  0.00  0.00    +0.000 C 
BRANCH   8  10
ATOM     10  O   UNL     1       3.161   3.078  18.748  0.00  0.00    +0.000 OA
BRANCH  10  12
ATOM     11  C   UNL     1       0.830   2.306  18.849  0.00  0.00    +0.000 C 
ATOM     12  C   UNL     1       1.910   3.211  19.435  0.00  0.00    +0.000 C 
ATOM     13  C   UNL     1       2.159   2.844  20.896  0.00  0.00    +0.000 C 
ENDBRANCH  10  12
ENDBRANCH   8  10
ENDBRANCH   1   8
BRANCH   6  14
ATOM     14  C   UNL     1       5.479   6.266  16.422  0.00  0.00    +0.000 C 
BRANCH  14  15
ATOM     15  C   UNL     1       5.905   5.436  15.266  0.00  0.00    +0.000 A 
ATOM     16  C   UNL     1       5.309   4.413  14.551  0.00  0.00    +0.000 A 
ATOM     17  C   UNL     1       6.271   3.963  13.618  0.00  0.00    +0.000 A 
ATOM     18  C   UNL     1       7.390   4.736  13.817  0.00  0.00    +0.000 A 
ATOM     19  O   UNL     1       7.175   5.635  14.810  0.00  0.00    +0.000 OA
ENDBRANCH  14  15
ENDBRANCH   6  14
TORSDOF 5
ENDMDL
MODEL 2
REMARK VINA RESULT:      -6.5      0.928      1.174
REMARK  Name = 
REMARK  8 active torsions:
REMARK  status: ('A' for Active; 'I' for Inactive)
REMARK    1  A    between atoms: C_1  and  C_2
REMARK    2  A    between atoms: C_2  and  C_3
REMARK    3  A    between atoms: C_2  and  O_4
REMARK    4  A    between atoms: O_4  and  C_5
REMARK    5  A    between atoms: C_5  and  C_6
REMARK    6  A    between atoms: C_5  and  C_7
REMARK    7  A    between atoms: N_12  and  C_13
REMARK    8  A    between atoms: C_13  and  C_14
REMARK                            x       y       z     vdW  Elec       q    Type
REMARK                         _______ _______ _______ _____ _____    ______ ____
ROOT
ATOM      1  C   UNL     1       5.427   5.137  18.891  0.00  0.00    +0.000 A 
ATOM      2  N   UNL     1       6.239   4.934  19.899  0.00  0.00    +0.000 NA
ATOM      3  N   UNL     1       7.387   5.569  19.535  0.00  0.00    +0.000 N 
ATOM      4  C   UNL     1       7.244   6.148  18.286  0.00  0.00    +0.000 A 
ATOM      5  O   UNL     1       8.094   6.787  17.692  0.00  0.00    +0.000 OA
ATOM      6  N   UNL     1       5.969   5.847  17.885  0.00  0.00    +0.000 N 
ATOM      7  H   UNL     1       8.215   5.600  20.117  0.00  0.00    +0.000 HD
ENDROOT
BRANCH   1   8
ATOM      8  C   UNL     1       4.026   4.525  18.899  0.00  0.00    +0.000 C 
ATOM      9  C   UNL     1       3.014   5.618  19.232  0.00  0.00    +0.000 C 
BRANCH   8  10
ATOM     10  O   UNL     1       3.912   3.398  19.758  0.00  0.00    +0.000 OA
BRANCH  10  12
ATOM     11  C   UNL     1       1.728   2.279  19.633  0.00  0.00    +0.000 C 
ATOM     12  C   UNL     1       3.201   2.268  19.236  0.00  0.00    +0.000 C 
ATOM     13  C   UNL     1       3.330   2.319  17.716  0.00  0.00    +0.000 C 
ENDBRANCH  10  12
ENDBRANCH   8  10
ENDBRANCH   1   8
BRANCH   6  14
ATOM     14  C   UNL     1       5.412   6.340  16.643  0.00  0.00    +0.000 C 
BRANCH  14  15
ATOM     15  C   UNL     1       5.736   5.424  15.519  0.00  0.00    +0.000 A 
ATOM     16  C   UNL     1       5.192   4.236  15.066  0.00  0.00    +0.000 A 
ATOM     17  C   UNL     1       6.012   3.801  14.000  0.00  0.00    +0.000 A 
ATOM     18  C   UNL     1       7.001   4.746  13.865  0.00  0.00    +0.000 A 
ATOM     19  O   UNL     1       6.838   5.736  14.778  0.00  0.00    +0.000 OA
ENDBRANCH  14  15
ENDBRANCH   6  14
TORSDOF 5
ENDMDL
MODEL 3
REMARK VINA RESULT:      -6.4      1.187      1.307
REMARK  Name = 
REMARK  8 active torsions:
REMARK  status: ('A' for Active; 'I' for Inactive)
REMARK    1  A    between atoms: C_1  and  C_2
REMARK    2  A    between atoms: C_2  and  C_3
REMARK    3  A    between atoms: C_2  and  O_4
REMARK    4  A    between atoms: O_4  and  C_5
REMARK    5  A    between atoms: C_5  and  C_6
REMARK    6  A    between atoms: C_5  and  C_7
REMARK    7  A    between atoms: N_12  and  C_13
REMARK    8  A    between atoms: C_13  and  C_14
REMARK                            x       y       z     vdW  Elec       q    Type
REMARK                         _______ _______ _______ _____ _____    ______ ____
ROOT
ATOM      1  C   UNL     1       4.924   4.897  18.111  0.00  0.00    +0.000 A 
ATOM      2  N   UNL     1       5.478   4.228  19.091  0.00  0.00    +0.000 NA
ATOM      3  N   UNL     1       6.771   4.069  18.696  0.00  0.00    +0.000 N 
ATOM      4  C   UNL     1       6.973   4.652  17.457  0.00  0.00    +0.000 A 
ATOM      5  O   UNL     1       8.025   4.679  16.842  0.00  0.00    +0.000 OA
ATOM      6  N   UNL     1       5.760   5.176  17.095  0.00  0.00    +0.000 N 
ATOM      7  H   UNL     1       7.468   3.588  19.252  0.00  0.00    +0.000 HD
ENDROOT
BRANCH   1   8
ATOM      8  C   UNL     1       3.433   5.235  18.159  0.00  0.00    +0.000 C 
ATOM      9  C   UNL     1       3.064   5.636  19.584  0.00  0.00    +0.000 C 
BRANCH   8  10
ATOM     10  O   UNL     1       2.606   4.194  17.656  0.00  0.00    +0.000 OA
BRANCH  10  12
ATOM     11  C   UNL     1       0.846   2.830  18.694  0.00  0.00    +0.000 C 
ATOM     12  C   UNL     1       2.340   3.103  18.547  0.00  0.00    +0.000 C 
ATOM     13  C   UNL     1       3.040   1.873  17.975  0.00  0.00    +0.000 C 
ENDBRANCH  10  12
ENDBRANCH   8  10
ENDBRANCH   1   8
BRANCH   6  14
ATOM     14  C   UNL     1       5.579   5.934  15.876  0.00  0.00    +0.000 C 
BRANCH  14  15
ATOM     15  C   UNL     1       5.915   5.111  14.686  0.00  0.00    +0.000 A 
ATOM     16  C   UNL     1       5.364   3.975  14.122  0.00  0.00    +0.000 A 
ATOM     17  C   UNL     1       6.203   3.617  13.042  0.00  0.00    +0.000 A 
ATOM     18  C   UNL     1       7.208   4.553  13.010  0.00  0.00    +0.000 A 
ATOM     19  O   UNL     1       7.039   5.466  13.999  0.00  0.00    +0.000 OA
ENDBRANCH  14  15
ENDBRANCH   6  14
TORSDOF 5
ENDMDL
MODEL 4
REMARK VINA RESULT:      -6.3      1.728      4.993
REMARK  Name = 
REMARK  8 active torsions:
REMARK  status: ('A' for Active; 'I' for Inactive)
REMARK    1  A    between atoms: C_1  and  C_2
REMARK    2  A    between atoms: C_2  and  C_3
REMARK    3  A    between atoms: C_2  and  O_4
REMARK    4  A    between atoms: O_4  and  C_5
REMARK    5  A    between atoms: C_5  and  C_6
REMARK    6  A    between atoms: C_5  and  C_7
REMARK    7  A    between atoms: N_12  and  C_13
REMARK    8  A    between atoms: C_13  and  C_14
REMARK                            x       y       z     vdW  Elec       q    Type
REMARK                         _______ _______ _______ _____ _____    ______ ____
ROOT
ATOM      1  C   UNL     1       6.572   5.065  16.499  0.00  0.00    +0.000 A 
ATOM      2  N   UNL     1       7.749   4.511  16.652  0.00  0.00    +0.000 NA
ATOM      3  N   UNL     1       7.887   4.390  18.001  0.00  0.00    +0.000 N 
ATOM      4  C   UNL     1       6.771   4.890  18.648  0.00  0.00    +0.000 A 
ATOM      5  O   UNL     1       6.595   4.919  19.853  0.00  0.00    +0.000 OA
ATOM      6  N   UNL     1       5.936   5.329  17.654  0.00  0.00    +0.000 N 
ATOM      7  H   UNL     1       8.703   3.985  18.443  0.00  0.00    +0.000 HD
ENDROOT
BRANCH   1   8
ATOM      8  C   UNL     1       6.065   5.415  15.099  0.00  0.00    +0.000 C 
ATOM      9  C   UNL     1       5.159   6.639  15.195  0.00  0.00    +0.000 C 
BRANCH   8  10
ATOM     10  O   UNL     1       5.436   4.323  14.442  0.00  0.00    +0.000 OA
BRANCH  10  12
ATOM     11  C   UNL     1       5.287   3.327  12.200  0.00  0.00    +0.000 C 
ATOM     12  C   UNL     1       6.176   3.704  13.382  0.00  0.00    +0.000 C 
ATOM     13  C   UNL     1       7.240   4.703  12.934  0.00  0.00    +0.000 C 
ENDBRANCH  10  12
ENDBRANCH   8  10
ENDBRANCH   1   8
BRANCH   6  14
ATOM     14  C   UNL     1       4.620   5.864  17.930  0.00  0.00    +0.000 C 
BRANCH  14  15
ATOM     15  C   UNL     1       3.589   4.796  17.864  0.00  0.00    +0.000 A 
ATOM     16  C   UNL     1       3.638   3.433  17.632  0.00  0.00    +0.000 A 
ATOM     17  C   UNL     1       2.297   2.984  17.603  0.00  0.00    +0.000 A 
ATOM     18  C   UNL     1       1.516   4.094  17.821  0.00  0.00    +0.000 A 
ATOM     19  O   UNL     1       2.291   5.195  17.986  0.00  0.00    +0.000 OA
ENDBRANCH  14  15
ENDBRANCH   6  14
TORSDOF 5
ENDMDL
MODEL 5
REMARK VINA RESULT:      -6.3      1.948      3.592
REMARK  Name = 
REMARK  8 active torsions:
REMARK  status: ('A' for Active; 'I' for Inactive)
REMARK    1  A    between atoms: C_1  and  C_2
REMARK    2  A    between atoms: C_2  and  C_3
REMARK    3  A    between atoms: C_2  and  O_4
REMARK    4  A    between atoms: O_4  and  C_5
REMARK    5  A    between atoms: C_5  and  C_6
REMARK    6  A    between atoms: C_5  and  C_7
REMARK    7  A    between atoms: N_12  and  C_13
REMARK    8  A    between atoms: C_13  and  C_14
REMARK                            x       y       z     vdW  Elec       q    Type
REMARK                         _______ _______ _______ _____ _____    ______ ____
ROOT
ATOM      1  C   UNL     1       5.392   4.142  17.811  0.00  0.00    +0.000 A 
ATOM      2  N   UNL     1       4.785   3.624  16.772  0.00  0.00    +0.000 NA
ATOM      3  N   UNL     1       5.679   3.773  15.757  0.00  0.00    +0.000 N 
ATOM      4  C   UNL     1       6.828   4.395  16.211  0.00  0.00    +0.000 A 
ATOM      5  O   UNL     1       7.810   4.663  15.541  0.00  0.00    +0.000 OA
ATOM      6  N   UNL     1       6.616   4.631  17.544  0.00  0.00    +0.000 N 
ATOM      7  H   UNL     1       5.503   3.460  14.810  0.00  0.00    +0.000 HD
ENDROOT
BRANCH   1   8
ATOM      8  C   UNL     1       4.678   4.210  19.162  0.00  0.00    +0.000 C 
ATOM      9  C   UNL     1       4.479   2.791  19.687  0.00  0.00    +0.000 C 
BRANCH   8  10
ATOM     10  O   UNL     1       3.464   4.949  19.117  0.00  0.00    +0.000 OA
BRANCH  10  12
ATOM     11  C   UNL     1       1.382   4.751  20.408  0.00  0.00    +0.000 C 
ATOM     12  C   UNL     1       2.254   4.199  19.284  0.00  0.00    +0.000 C 
ATOM     13  C   UNL     1       1.498   4.264  17.959  0.00  0.00    +0.000 C 
ENDBRANCH  10  12
ENDBRANCH   8  10
ENDBRANCH   1   8
BRANCH   6  14
ATOM     14  C   UNL     1       7.629   5.216  18.396  0.00  0.00    +0.000 C 
BRANCH  14  15
ATOM     15  C   UNL     1       7.695   6.688  18.207  0.00  0.00    +0.000 A 
ATOM     16  C   UNL     1       7.059   7.572  17.355  0.00  0.00    +0.000 A 
ATOM     17  C   UNL     1       7.627   8.843  17.601  0.00  0.00    +0.000 A 
ATOM     18  C   UNL     1       8.568   8.660  18.586  0.00  0.00    +0.000 A 
ATOM     19  O   UNL     1       8.613   7.357  18.963  0.00  0.00    +0.000 OA
ENDBRANCH  14  15
ENDBRANCH   6  14
TORSDOF 5
ENDMDL
MODEL 6
REMARK VINA RESULT:      -6.2      1.372      1.702
REMARK  Name = 
REMARK  8 active torsions:
REMARK  status: ('A' for Active; 'I' for Inactive)
REMARK    1  A    between atoms: C_1  and  C_2
REMARK    2  A    between atoms: C_2  and  C_3
REMARK    3  A    between atoms: C_2  and  O_4
REMARK    4  A    between atoms: O_4  and  C_5
REMARK    5  A    between atoms: C_5  and  C_6
REMARK    6  A    between atoms: C_5  and  C_7
REMARK    7  A    between atoms: N_12  and  C_13
REMARK    8  A    between atoms: C_13  and  C_14
REMARK                            x       y       z     vdW  Elec       q    Type
REMARK                         _______ _______ _______ _____ _____    ______ ____
ROOT
ATOM      1  C   UNL     1       4.432   5.296  17.868  0.00  0.00    +0.000 A 
ATOM      2  N   UNL     1       3.712   6.366  18.102  0.00  0.00    +0.000 NA
ATOM      3  N   UNL     1       4.515   7.397  17.721  0.00  0.00    +0.000 N 
ATOM      4  C   UNL     1       5.730   6.920  17.260  0.00  0.00    +0.000 A 
ATOM      5  O   UNL     1       6.655   7.597  16.846  0.00  0.00    +0.000 OA
ATOM      6  N   UNL     1       5.655   5.556  17.373  0.00  0.00    +0.000 N 
ATOM      7  H   UNL     1       4.236   8.369  17.775  0.00  0.00    +0.000 HD
ENDROOT
BRANCH   1   8
ATOM      8  C   UNL     1       3.886   3.912  18.219  0.00  0.00    +0.000 C 
ATOM      9  C   UNL     1       2.850   3.511  17.173  0.00  0.00    +0.000 C 
BRANCH   8  10
ATOM     10  O   UNL     1       3.380   3.830  19.545  0.00  0.00    +0.000 OA
BRANCH  10  12
ATOM     11  C   UNL     1       1.526   2.356  20.200  0.00  0.00    +0.000 C 
ATOM     12  C   UNL     1       1.957   3.724  19.680  0.00  0.00    +0.000 C 
ATOM     13  C   UNL     1       1.515   4.813  20.654  0.00  0.00    +0.000 C 
ENDBRANCH  10  12
ENDBRANCH   8  10
ENDBRANCH   1   8
BRANCH   6  14
ATOM     14  C   UNL     1       6.719   4.684  16.923  0.00  0.00    +0.000 C 
BRANCH  14  15
ATOM     15  C   UNL     1       6.694   4.537  15.445  0.00  0.00    +0.000 A 
ATOM     16  C   UNL     1       5.962   3.750  14.575  0.00  0.00    +0.000 A 
ATOM     17  C   UNL     1       6.473   4.002  13.281  0.00  0.00    +0.000 A 
ATOM     18  C   UNL     1       7.479   4.925  13.438  0.00  0.00    +0.000 A 
ATOM     19  O   UNL     1       7.617   5.259  14.747  0.00  0.00    +0.000 OA
ENDBRANCH  14  15
ENDBRANCH   6  14
TORSDOF 5
ENDMDL
MODEL 7
REMARK VINA RESULT:      -6.2      1.137      1.185
REMARK  Name = 
REMARK  8 active torsions:
REMARK  status: ('A' for Active; 'I' for Inactive)
REMARK    1  A    between atoms: C_1  and  C_2
REMARK    2  A    between atoms: C_2  and  C_3
REMARK    3  A    between atoms: C_2  and  O_4
REMARK    4  A    between atoms: O_4  and  C_5
REMARK    5  A    between atoms: C_5  and  C_6
REMARK    6  A    between atoms: C_5  and  C_7
REMARK    7  A    between atoms: N_12  and  C_13
REMARK    8  A    between atoms: C_13  and  C_14
REMARK                            x       y       z     vdW  Elec       q    Type
REMARK                         _______ _______ _______ _____ _____    ______ ____
ROOT
ATOM      1  C   UNL     1       4.643   5.122  18.279  0.00  0.00    +0.000 A 
ATOM      2  N   UNL     1       5.048   4.394  19.291  0.00  0.00    +0.000 NA
ATOM      3  N   UNL     1       6.352   4.125  19.006  0.00  0.00    +0.000 N 
ATOM      4  C   UNL     1       6.713   4.701  17.801  0.00  0.00    +0.000 A 
ATOM      5  O   UNL     1       7.812   4.641  17.279  0.00  0.00    +0.000 OA
ATOM      6  N   UNL     1       5.587   5.335  17.345  0.00  0.00    +0.000 N 
ATOM      7  H   UNL     1       6.952   3.578  19.611  0.00  0.00    +0.000 HD
ENDROOT
BRANCH   1   8
ATOM      8  C   UNL     1       3.190   5.591  18.204  0.00  0.00    +0.000 C 
ATOM      9  C   UNL     1       3.170   7.094  17.939  0.00  0.00    +0.000 C 
BRANCH   8  10
ATOM     10  O   UNL     1       2.425   5.231  19.348  0.00  0.00    +0.000 OA
BRANCH  10  12
ATOM     11  C   UNL     1       1.607   3.397  17.931  0.00  0.00    +0.000 C 
ATOM     12  C   UNL     1       1.354   4.303  19.132  0.00  0.00    +0.000 C 
ATOM     13  C   UNL     1       1.225   3.463  20.400  0.00  0.00    +0.000 C 
ENDBRANCH  10  12
ENDBRANCH   8  10
ENDBRANCH   1   8
BRANCH   6  14
ATOM     14  C   UNL     1       5.581   6.120  16.129  0.00  0.00    +0.000 C 
BRANCH  14  15
ATOM     15  C   UNL     1       5.906   5.275  14.952  0.00  0.00    +0.000 A 
ATOM     16  C   UNL     1       5.323   4.154  14.389  0.00  0.00    +0.000 A 
ATOM     17  C   UNL     1       6.165   3.756  13.325  0.00  0.00    +0.000 A 
ATOM     18  C   UNL     1       7.205   4.655  13.302  0.00  0.00    +0.000 A 
ATOM     19  O   UNL     1       7.053   5.582  14.280  0.00  0.00    +0.000 OA
ENDBRANCH  14  15
ENDBRANCH   6  14
TORSDOF 5
ENDMDL
MODEL 8
REMARK VINA RESULT:      -6.2      1.544      2.215
REMARK  Name = 
REMARK  8 active torsions:
REMARK  status: ('A' for Active; 'I' for Inactive)
REMARK    1  A    between atoms: C_1  and  C_2
REMARK    2  A    between atoms: C_2  and  C_3
REMARK    3  A    between atoms: C_2  and  O_4
REMARK    4  A    between atoms: O_4  and  C_5
REMARK    5  A    between atoms: C_5  and  C_6
REMARK    6  A    between atoms: C_5  and  C_7
REMARK    7  A    between atoms: N_12  and  C_13
REMARK    8  A    between atoms: C_13  and  C_14
REMARK                            x       y       z     vdW  Elec       q    Type
REMARK                         _______ _______ _______ _____ _____    ______ ____
ROOT
ATOM      1  C   UNL     1       4.648   4.562  18.206  0.00  0.00    +0.000 A 
ATOM      2  N   UNL     1       5.226   3.945  19.207  0.00  0.00    +0.000 NA
ATOM      3  N   UNL     1       6.557   4.066  18.948  0.00  0.00    +0.000 N 
ATOM      4  C   UNL     1       6.759   4.762  17.769  0.00  0.00    +0.000 A 
ATOM      5  O   UNL     1       7.839   5.033  17.275  0.00  0.00    +0.000 OA
ATOM      6  N   UNL     1       5.507   5.066  17.303  0.00  0.00    +0.000 N 
ATOM      7  H   UNL     1       7.277   3.690  19.552  0.00  0.00    +0.000 HD
ENDROOT
BRANCH   1   8
ATOM      8  C   UNL     1       3.123   4.603  18.107  0.00  0.00    +0.000 C 
ATOM      9  C   UNL     1       2.660   3.502  17.156  0.00  0.00    +0.000 C 
BRANCH   8  10
ATOM     10  O   UNL     1       2.618   5.881  17.745  0.00  0.00    +0.000 OA
BRANCH  10  12
ATOM     11  C   UNL     1       2.192   8.252  18.231  0.00  0.00    +0.000 C 
ATOM     12  C   UNL     1       2.785   6.930  18.708  0.00  0.00    +0.000 C 
ATOM     13  C   UNL     1       2.088   6.479  19.989  0.00  0.00    +0.000 C 
ENDBRANCH  10  12
ENDBRANCH   8  10
ENDBRANCH   1   8
BRANCH   6  14
ATOM     14  C   UNL     1       5.299   5.859  16.110  0.00  0.00    +0.000 C 
BRANCH  14  15
ATOM     15  C   UNL     1       5.772   5.134  14.903  0.00  0.00    +0.000 A 
ATOM     16  C   UNL     1       5.332   4.010  14.229  0.00  0.00    +0.000 A 
ATOM     17  C   UNL     1       6.270   3.766  13.200  0.00  0.00    +0.000 A 
ATOM     18  C   UNL     1       7.221   4.753  13.306  0.00  0.00    +0.000 A 
ATOM     19  O   UNL     1       6.924   5.590  14.332  0.00  0.00    +0.000 OA
ENDBRANCH  14  15
ENDBRANCH   6  14
TORSDOF 5
ENDMDL
MODEL 9
REMARK VINA RESULT:      -6.2      1.728      4.950
REMARK  Name = 
REMARK  8 active torsions:
REMARK  status: ('A' for Active; 'I' for Inactive)
REMARK    1  A    between atoms: C_1  and  C_2
REMARK    2  A    between atoms: C_2  and  C_3
REMARK    3  A    between atoms: C_2  and  O_4
REMARK    4  A    between atoms: O_4  and  C_5
REMARK    5  A    between atoms: C_5  and  C_6
REMARK    6  A    between atoms: C_5  and  C_7
REMARK    7  A    between atoms: N_12  and  C_13
REMARK    8  A    between atoms: C_13  and  C_14
REMARK                            x       y       z     vdW  Elec       q    Type
REMARK                         _______ _______ _______ _____ _____    ______ ____
ROOT
ATOM      1  C   UNL     1       6.751   6.023  17.021  0.00  0.00    +0.000 A 
ATOM      2  N   UNL     1       7.670   6.946  17.163  0.00  0.00    +0.000 NA
ATOM      3  N   UNL     1       8.088   6.803  18.451  0.00  0.00    +0.000 N 
ATOM      4  C   UNL     1       7.396   5.780  19.074  0.00  0.00    +0.000 A 
ATOM      5  O   UNL     1       7.548   5.411  20.225  0.00  0.00    +0.000 OA
ATOM      6  N   UNL     1       6.529   5.295  18.130  0.00  0.00    +0.000 N 
ATOM      7  H   UNL     1       8.810   7.378  18.868  0.00  0.00    +0.000 HD
ENDROOT
BRANCH   1   8
ATOM      8  C   UNL     1       5.993   5.892  15.701  0.00  0.00    +0.000 C 
ATOM      9  C   UNL     1       4.757   6.786  15.751  0.00  0.00    +0.000 C 
BRANCH   8  10
ATOM     10  O   UNL     1       5.677   4.547  15.366  0.00  0.00    +0.000 OA
BRANCH  10  12
ATOM     11  C   UNL     1       5.450   3.622  13.100  0.00  0.00    +0.000 C 
ATOM     12  C   UNL     1       6.383   3.984  14.252  0.00  0.00    +0.000 C 
ATOM     13  C   UNL     1       7.399   5.026  13.791  0.00  0.00    +0.000 C 
ENDBRANCH  10  12
ENDBRANCH   8  10
ENDBRANCH   1   8
BRANCH   6  14
ATOM     14  C   UNL     1       5.668   4.159  18.383  0.00  0.00    +0.000 C 
BRANCH  14  15
ATOM     15  C   UNL     1       4.265   4.597  18.600  0.00  0.00    +0.000 A 
ATOM     16  C   UNL     1       3.072   4.339  17.952  0.00  0.00    +0.000 A 
ATOM     17  C   UNL     1       2.091   5.135  18.586  0.00  0.00    +0.000 A 
ATOM     18  C   UNL     1       2.741   5.826  19.581  0.00  0.00    +0.000 A 
ATOM     19  O   UNL     1       4.059   5.502  19.600  0.00  0.00    +0.000 OA
ENDBRANCH  14  15
ENDBRANCH   6  14
TORSDOF 5
ENDMDL
