MODEL 1
REMARK VINA RESULT:      -7.3      0.000      0.000
REMARK  Name = 
REMARK  5 active torsions:
REMARK  status: ('A' for Active; 'I' for Inactive)
REMARK    1  A    between atoms: C_1  and  C_2
REMARK    2  A    between atoms: C_2  and  N_3
REMARK    3  A    between atoms: C_8  and  C_9
REMARK    4  A    between atoms: N_11  and  C_12
REMARK    5  A    between atoms: C_12  and  C_13
REMARK                            x       y       z     vdW  Elec       q    Type
REMARK                         _______ _______ _______ _____ _____    ______ ____
ROOT
ATOM      1  C   UNL     1       4.244   6.638  17.187  0.00  0.00    +0.000 C 
ATOM      2  O   UNL     1       3.819   7.762  17.430  0.00  0.00    +0.000 OA
ATOM      3  N   UNL     1       3.491   5.493  17.364  0.00  0.00    +0.000 N 
ATOM      4  H   UNL     1       3.925   4.597  17.167  0.00  0.00    +0.000 HD
ENDROOT
BRANCH   1  10
ATOM      5  N   UNL     1       6.565   5.697  17.315  0.00  0.00    +0.000 N 
ATOM      6  C   UNL     1       7.275   4.763  16.573  0.00  0.00    +0.000 C 
ATOM      7  O   UNL     1       8.201   4.077  16.969  0.00  0.00    +0.000 OA
ATOM      8  C   UNL     1       6.758   4.787  15.157  0.00  0.00    +0.000 C 
ATOM      9  C   UNL     1       5.434   5.529  15.273  0.00  0.00    +0.000 C 
ATOM     10  C   UNL     1       5.602   6.423  16.499  0.00  0.00    +0.000 C 
BRANCH   5  12
ATOM     11  C   UNL     1       8.087   7.237  18.547  0.00  0.00    +0.000 C 
ATOM     12  C   UNL     1       7.011   6.167  18.622  0.00  0.00    +0.000 C 
ENDBRANCH   5  12
ENDBRANCH   1  10
BRANCH   3  13
ATOM     13  C   UNL     1       2.206   5.515  18.025  0.00  0.00    +0.000 C 
BRANCH  13  14
ATOM     14  C   UNL     1       2.114   4.495  19.138  0.00  0.00    +0.000 A 
ATOM     15  C   UNL     1       1.990   4.951  20.466  0.00  0.00    +0.000 A 
ATOM     16  C   UNL     1       1.893   4.050  21.529  0.00  0.00    +0.000 A 
ATOM     17  C   UNL     1       1.927   2.687  21.273  0.00  0.00    +0.000 A 
ATOM     18  F   UNL     1       1.836   1.821  22.292  0.00  0.00    +0.000 F 
ATOM     19  C   UNL     1       2.056   2.207  19.977  0.00  0.00    +0.000 A 
ATOM     20  C   UNL     1       2.151   3.108  18.913  0.00  0.00    +0.000 A 
ATOM     21 CL   UNL     1       2.315   2.447  17.325  0.00  0.00    +0.000 Cl
ENDBRANCH  13  14
ENDBRANCH   3  13
TORSDOF 4
ENDMDL
MODEL 2
REMARK VINA RESULT:      -7.3      1.247      1.650
REMARK  Name = 
REMARK  5 active torsions:
REMARK  status: ('A' for Active; 'I' for Inactive)
REMARK    1  A    between atoms: C_1  and  C_2
REMARK    2  A    between atoms: C_2  and  N_3
REMARK    3  A    between atoms: C_8  and  C_9
REMARK    4  A    between atoms: N_11  and  C_12
REMARK    5  A    between atoms: C_12  and  C_13
REMARK                            x       y       z     vdW  Elec       q    Type
REMARK                         _______ _______ _______ _____ _____    ______ ____
ROOT
ATOM      1  C   UNL     1       4.244   6.329  17.147  0.00  0.00    +0.000 C 
ATOM      2  O   UNL     1       3.932   7.457  17.509  0.00  0.00    +0.000 OA
ATOM      3  N   UNL     1       3.373   5.257  17.185  0.00  0.00    +0.000 N 
ATOM      4  H   UNL     1       3.718   4.348  16.895  0.00  0.00    +0.000 HD
ENDROOT
BRANCH   1  10
ATOM      5  N   UNL     1       6.631   5.592  17.365  0.00  0.00    +0.000 N 
ATOM      6  C   UNL     1       7.382   4.560  16.817  0.00  0.00    +0.000 C 
ATOM      7  O   UNL     1       8.370   4.044  17.311  0.00  0.00    +0.000 OA
ATOM      8  C   UNL     1       6.815   4.227  15.461  0.00  0.00    +0.000 C 
ATOM      9  C   UNL     1       5.445   4.890  15.474  0.00  0.00    +0.000 C 
ATOM     10  C   UNL     1       5.589   6.049  16.457  0.00  0.00    +0.000 C 
BRANCH   5  12
ATOM     11  C   UNL     1       7.966   7.555  18.121  0.00  0.00    +0.000 C 
ATOM     12  C   UNL     1       7.088   6.376  18.507  0.00  0.00    +0.000 C 
ENDBRANCH   5  12
ENDBRANCH   1  10
BRANCH   3  13
ATOM     13  C   UNL     1       2.081   5.341  17.828  0.00  0.00    +0.000 C 
BRANCH  13  14
ATOM     14  C   UNL     1       1.977   4.430  19.030  0.00  0.00    +0.000 A 
ATOM     15  C   UNL     1       1.983   3.035  18.826  0.00  0.00    +0.000 A 
ATOM     16  C   UNL     1       1.896   2.151  19.903  0.00  0.00    +0.000 A 
ATOM     17  C   UNL     1       1.797   2.654  21.193  0.00  0.00    +0.000 A 
ATOM     18  F   UNL     1       1.713   1.807  22.227  0.00  0.00    +0.000 F 
ATOM     19  C   UNL     1       1.781   4.022  21.426  0.00  0.00    +0.000 A 
ATOM     20  C   UNL     1       1.868   4.908  20.348  0.00  0.00    +0.000 A 
ATOM     21 CL   UNL     1       1.838   6.597  20.705  0.00  0.00    +0.000 Cl
ENDBRANCH  13  14
ENDBRANCH   3  13
TORSDOF 4
ENDMDL
MODEL 3
REMARK VINA RESULT:      -7.3      3.439      6.171
REMARK  Name = 
REMARK  5 active torsions:
REMARK  status: ('A' for Active; 'I' for Inactive)
REMARK    1  A    between atoms: C_1  and  C_2
REMARK    2  A    between atoms: C_2  and  N_3
REMARK    3  A    between atoms: C_8  and  C_9
REMARK    4  A    between atoms: N_11  and  C_12
REMARK    5  A    between atoms: C_12  and  C_13
REMARK                            x       y       z     vdW  Elec       q    Type
REMARK                         _______ _______ _______ _____ _____    ______ ____
ROOT
ATOM      1  C   UNL     1       3.441   3.727  17.738  0.00  0.00    +0.000 C 
ATOM      2  O   UNL     1       3.120   4.891  17.531  0.00  0.00    +0.000 OA
ATOM      3  N   UNL     1       4.612   3.172  17.259  0.00  0.00    +0.000 N 
ATOM      4  H   UNL     1       4.793   2.192  17.450  0.00  0.00    +0.000 HD
ENDROOT
BRANCH   1  10
ATOM      5  N   UNL     1       3.065   2.933  20.087  0.00  0.00    +0.000 N 
ATOM      6  C   UNL     1       1.984   2.960  20.958  0.00  0.00    +0.000 C 
ATOM      7  O   UNL     1       2.037   2.954  22.176  0.00  0.00    +0.000 OA
ATOM      8  C   UNL     1       0.716   2.924  20.145  0.00  0.00    +0.000 C 
ATOM      9  C   UNL     1       1.182   3.276  18.740  0.00  0.00    +0.000 C 
ATOM     10  C   UNL     1       2.642   2.830  18.697  0.00  0.00    +0.000 C 
BRANCH   5  12
ATOM     11  C   UNL     1       4.866   1.216  20.200  0.00  0.00    +0.000 C 
ATOM     12  C   UNL     1       4.422   2.632  20.527  0.00  0.00    +0.000 C 
ENDBRANCH   5  12
ENDBRANCH   1  10
BRANCH   3  13
ATOM     13  C   UNL     1       5.463   3.868  16.321  0.00  0.00    +0.000 C 
BRANCH  13  14
ATOM     14  C   UNL     1       6.275   4.960  16.982  0.00  0.00    +0.000 A 
ATOM     15  C   UNL     1       7.190   4.606  17.994  0.00  0.00    +0.000 A 
ATOM     16  C   UNL     1       7.969   5.574  18.630  0.00  0.00    +0.000 A 
ATOM     17  C   UNL     1       7.835   6.906  18.263  0.00  0.00    +0.000 A 
ATOM     18  F   UNL     1       8.581   7.837  18.873  0.00  0.00    +0.000 F 
ATOM     19  C   UNL     1       6.938   7.288  17.276  0.00  0.00    +0.000 A 
ATOM     20  C   UNL     1       6.158   6.318  16.638  0.00  0.00    +0.000 A 
ATOM     21 CL   UNL     1       5.058   6.858  15.422  0.00  0.00    +0.000 Cl
ENDBRANCH  13  14
ENDBRANCH   3  13
TORSDOF 4
ENDMDL
MODEL 4
REMARK VINA RESULT:      -7.0      3.932      5.089
REMARK  Name = 
REMARK  5 active torsions:
REMARK  status: ('A' for Active; 'I' for Inactive)
REMARK    1  A    between atoms: C_1  and  C_2
REMARK    2  A    between atoms: C_2  and  N_3
REMARK    3  A    between atoms: C_8  and  C_9
REMARK    4  A    between atoms: N_11  and  C_12
REMARK    5  A    between atoms: C_12  and  C_13
REMARK                            x       y       z     vdW  Elec       q    Type
REMARK                         _______ _______ _______ _____ _____    ______ ____
ROOT
ATOM      1  C   UNL     1       3.959   5.168  18.525  0.00  0.00    +0.000 C 
ATOM      2  O   UNL     1       3.098   4.408  18.095  0.00  0.00    +0.000 OA
ATOM      3  N   UNL     1       3.705   6.129  19.484  0.00  0.00    +0.000 N 
ATOM      4  H   UNL     1       4.466   6.738  19.767  0.00  0.00    +0.000 HD
ENDROOT
BRANCH   1  10
ATOM      5  N   UNL     1       5.895   5.915  17.117  0.00  0.00    +0.000 N 
ATOM      6  C   UNL     1       7.155   6.428  17.395  0.00  0.00    +0.000 C 
ATOM      7  O   UNL     1       7.819   7.147  16.668  0.00  0.00    +0.000 OA
ATOM      8  C   UNL     1       7.608   5.886  18.726  0.00  0.00    +0.000 C 
ATOM      9  C   UNL     1       6.327   5.346  19.346  0.00  0.00    +0.000 C 
ATOM     10  C   UNL     1       5.441   4.997  18.152  0.00  0.00    +0.000 C 
BRANCH   5  12
ATOM     11  C   UNL     1       5.777   4.855  14.866  0.00  0.00    +0.000 C 
ATOM     12  C   UNL     1       5.301   5.966  15.786  0.00  0.00    +0.000 C 
ENDBRANCH   5  12
ENDBRANCH   1  10
BRANCH   3  13
ATOM     13  C   UNL     1       2.363   6.439  19.923  0.00  0.00    +0.000 C 
BRANCH  13  14
ATOM     14  C   UNL     1       1.933   7.831  19.518  0.00  0.00    +0.000 A 
ATOM     15  C   UNL     1       2.200   8.269  18.205  0.00  0.00    +0.000 A 
ATOM     16  C   UNL     1       1.817   9.542  17.779  0.00  0.00    +0.000 A 
ATOM     17  C   UNL     1       1.169  10.391  18.666  0.00  0.00    +0.000 A 
ATOM     18  F   UNL     1       0.802  11.614  18.259  0.00  0.00    +0.000 F 
ATOM     19  C   UNL     1       0.899   9.993  19.967  0.00  0.00    +0.000 A 
ATOM     20  C   UNL     1       1.281   8.718  20.393  0.00  0.00    +0.000 A 
ATOM     21 CL   UNL     1       0.920   8.285  22.026  0.00  0.00    +0.000 Cl
ENDBRANCH  13  14
ENDBRANCH   3  13
TORSDOF 4
ENDMDL
MODEL 5
REMARK VINA RESULT:      -6.9      3.463      6.554
REMARK  Name = 
REMARK  5 active torsions:
REMARK  status: ('A' for Active; 'I' for Inactive)
REMARK    1  A    between atoms: C_1  and  C_2
REMARK    2  A    between atoms: C_2  and  N_3
REMARK    3  A    between atoms: C_8  and  C_9
REMARK    4  A    between atoms: N_11  and  C_12
REMARK    5  A    between atoms: C_12  and  C_13
REMARK                            x       y       z     vdW  Elec       q    Type
REMARK                         _______ _______ _______ _____ _____    ______ ____
ROOT
ATOM      1  C   UNL     1       4.289   4.145  19.858  0.00  0.00    +0.000 C 
ATOM      2  O   UNL     1       4.950   3.124  19.708  0.00  0.00    +0.000 OA
ATOM      3  N   UNL     1       4.727   5.392  19.457  0.00  0.00    +0.000 N 
ATOM      4  H   UNL     1       4.132   6.193  19.643  0.00  0.00    +0.000 HD
ENDROOT
BRANCH   1  10
ATOM      5  N   UNL     1       1.887   3.628  19.354  0.00  0.00    +0.000 N 
ATOM      6  C   UNL     1       0.948   2.758  19.893  0.00  0.00    +0.000 C 
ATOM      7  O   UNL     1      -0.013   2.282  19.314  0.00  0.00    +0.000 OA
ATOM      8  C   UNL     1       1.271   2.554  21.351  0.00  0.00    +0.000 C 
ATOM      9  C   UNL     1       2.697   3.069  21.477  0.00  0.00    +0.000 C 
ATOM     10  C   UNL     1       2.835   4.096  20.356  0.00  0.00    +0.000 C 
BRANCH   5  12
ATOM     11  C   UNL     1       2.512   3.686  16.943  0.00  0.00    +0.000 C 
ATOM     12  C   UNL     1       1.696   4.295  18.071  0.00  0.00    +0.000 C 
ENDBRANCH   5  12
ENDBRANCH   1  10
BRANCH   3  13
ATOM     13  C   UNL     1       6.077   5.618  18.995  0.00  0.00    +0.000 C 
BRANCH  13  14
ATOM     14  C   UNL     1       6.216   5.417  17.502  0.00  0.00    +0.000 A 
ATOM     15  C   UNL     1       7.227   4.559  17.025  0.00  0.00    +0.000 A 
ATOM     16  C   UNL     1       7.392   4.333  15.658  0.00  0.00    +0.000 A 
ATOM     17  C   UNL     1       6.552   4.969  14.755  0.00  0.00    +0.000 A 
ATOM     18  F   UNL     1       6.710   4.754  13.442  0.00  0.00    +0.000 F 
ATOM     19  C   UNL     1       5.552   5.826  15.193  0.00  0.00    +0.000 A 
ATOM     20  C   UNL     1       5.386   6.052  16.562  0.00  0.00    +0.000 A 
ATOM     21 CL   UNL     1       4.126   7.132  17.041  0.00  0.00    +0.000 Cl
ENDBRANCH  13  14
ENDBRANCH   3  13
TORSDOF 4
ENDMDL
MODEL 6
REMARK VINA RESULT:      -6.8      3.735      6.741
REMARK  Name = 
REMARK  5 active torsions:
REMARK  status: ('A' for Active; 'I' for Inactive)
REMARK    1  A    between atoms: C_1  and  C_2
REMARK    2  A    between atoms: C_2  and  N_3
REMARK    3  A    between atoms: C_8  and  C_9
REMARK    4  A    between atoms: N_11  and  C_12
REMARK    5  A    between atoms: C_12  and  C_13
REMARK                            x       y       z     vdW  Elec       q    Type
REMARK                         _______ _______ _______ _____ _____    ______ ____
ROOT
ATOM      1  C   UNL     1       4.367   4.002  19.896  0.00  0.00    +0.000 C 
ATOM      2  O   UNL     1       4.973   2.937  19.924  0.00  0.00    +0.000 OA
ATOM      3  N   UNL     1       4.911   5.165  19.385  0.00  0.00    +0.000 N 
ATOM      4  H   UNL     1       4.355   6.013  19.424  0.00  0.00    +0.000 HD
ENDROOT
BRANCH   1  10
ATOM      5  N   UNL     1       1.980   3.601  19.243  0.00  0.00    +0.000 N 
ATOM      6  C   UNL     1       0.942   2.845  19.774  0.00  0.00    +0.000 C 
ATOM      7  O   UNL     1      -0.003   2.384  19.160  0.00  0.00    +0.000 OA
ATOM      8  C   UNL     1       1.139   2.749  21.265  0.00  0.00    +0.000 C 
ATOM      9  C   UNL     1       2.585   3.179  21.464  0.00  0.00    +0.000 C 
ATOM     10  C   UNL     1       2.880   4.092  20.276  0.00  0.00    +0.000 C 
BRANCH   5  12
ATOM     11  C   UNL     1       2.584   3.278  16.848  0.00  0.00    +0.000 C 
ATOM     12  C   UNL     1       1.934   4.163  17.898  0.00  0.00    +0.000 C 
ENDBRANCH   5  12
ENDBRANCH   1  10
BRANCH   3  13
ATOM     13  C   UNL     1       6.304   5.260  19.010  0.00  0.00    +0.000 C 
BRANCH  13  14
ATOM     14  C   UNL     1       6.506   5.147  17.516  0.00  0.00    +0.000 A 
ATOM     15  C   UNL     1       6.061   3.983  16.857  0.00  0.00    +0.000 A 
ATOM     16  C   UNL     1       6.217   3.833  15.479  0.00  0.00    +0.000 A 
ATOM     17  C   UNL     1       6.826   4.843  14.747  0.00  0.00    +0.000 A 
ATOM     18  F   UNL     1       6.978   4.700  13.424  0.00  0.00    +0.000 F 
ATOM     19  C   UNL     1       7.283   5.998  15.367  0.00  0.00    +0.000 A 
ATOM     20  C   UNL     1       7.126   6.149  16.748  0.00  0.00    +0.000 A 
ATOM     21 CL   UNL     1       7.719   7.607  17.459  0.00  0.00    +0.000 Cl
ENDBRANCH  13  14
ENDBRANCH   3  13
TORSDOF 4
ENDMDL
MODEL 7
REMARK VINA RESULT:      -6.8      1.133      1.166
REMARK  Name = 
REMARK  5 active torsions:
REMARK  status: ('A' for Active; 'I' for Inactive)
REMARK    1  A    between atoms: C_1  and  C_2
REMARK    2  A    between atoms: C_2  and  N_3
REMARK    3  A    between atoms: C_8  and  C_9
REMARK    4  A    between atoms: N_11  and  C_12
REMARK    5  A    between atoms: C_12  and  C_13
REMARK                            x       y       z     vdW  Elec       q    Type
REMARK                         _______ _______ _______ _____ _____    ______ ____
ROOT
ATOM      1  C   UNL     1       4.290   6.620  17.138  0.00  0.00    +0.000 C 
ATOM      2  O   UNL     1       3.908   7.780  17.237  0.00  0.00    +0.000 OA
ATOM      3  N   UNL     1       3.587   5.548  17.654  0.00  0.00    +0.000 N 
ATOM      4  H   UNL     1       3.986   4.620  17.554  0.00  0.00    +0.000 HD
ENDROOT
BRANCH   1  10
ATOM      5  N   UNL     1       6.649   5.773  17.047  0.00  0.00    +0.000 N 
ATOM      6  C   UNL     1       7.266   4.684  16.447  0.00  0.00    +0.000 C 
ATOM      7  O   UNL     1       8.291   4.139  16.818  0.00  0.00    +0.000 OA
ATOM      8  C   UNL     1       6.494   4.324  15.203  0.00  0.00    +0.000 C 
ATOM      9  C   UNL     1       5.171   5.055  15.381  0.00  0.00    +0.000 C 
ATOM     10  C   UNL     1       5.507   6.245  16.276  0.00  0.00    +0.000 C 
BRANCH   5  12
ATOM     11  C   UNL     1       7.752   7.943  17.578  0.00  0.00    +0.000 C 
ATOM     12  C   UNL     1       7.301   6.579  18.073  0.00  0.00    +0.000 C 
ENDBRANCH   5  12
ENDBRANCH   1  10
BRANCH   3  13
ATOM     13  C   UNL     1       2.439   5.726  18.512  0.00  0.00    +0.000 C 
BRANCH  13  14
ATOM     14  C   UNL     1       2.289   4.603  19.514  0.00  0.00    +0.000 A 
ATOM     15  C   UNL     1       1.007   4.316  20.024  0.00  0.00    +0.000 A 
ATOM     16  C   UNL     1       0.814   3.284  20.945  0.00  0.00    +0.000 A 
ATOM     17  C   UNL     1       1.904   2.535  21.368  0.00  0.00    +0.000 A 
ATOM     18  F   UNL     1       1.720   1.545  22.252  0.00  0.00    +0.000 F 
ATOM     19  C   UNL     1       3.180   2.798  20.890  0.00  0.00    +0.000 A 
ATOM     20  C   UNL     1       3.373   3.830  19.967  0.00  0.00    +0.000 A 
ATOM     21 CL   UNL     1       4.985   4.109  19.415  0.00  0.00    +0.000 Cl
ENDBRANCH  13  14
ENDBRANCH   3  13
TORSDOF 4
ENDMDL
MODEL 8
REMARK VINA RESULT:      -6.8      3.527      6.502
REMARK  Name = 
REMARK  5 active torsions:
REMARK  status: ('A' for Active; 'I' for Inactive)
REMARK    1  A    between atoms: C_1  and  C_2
REMARK    2  A    between atoms: C_2  and  N_3
REMARK    3  A    between atoms: C_8  and  C_9
REMARK    4  A    between atoms: N_11  and  C_12
REMARK    5  A    between atoms: C_12  and  C_13
REMARK                            x       y       z     vdW  Elec       q    Type
REMARK                         _______ _______ _______ _____ _____    ______ ____
ROOT
ATOM      1  C   UNL     1       4.099   4.647  19.625  0.00  0.00    +0.000 C 
ATOM      2  O   UNL     1       4.919   3.739  19.700  0.00  0.00    +0.000 OA
ATOM      3  N   UNL     1       4.363   5.850  19.000  0.00  0.00    +0.000 N 
ATOM      4  H   UNL     1       3.640   6.563  19.006  0.00  0.00    +0.000 HD
ENDROOT
BRANCH   1  10
ATOM      5  N   UNL     1       1.822   3.727  19.118  0.00  0.00    +0.000 N 
ATOM      6  C   UNL     1       0.985   2.810  19.740  0.00  0.00    +0.000 C 
ATOM      7  O   UNL     1       0.132   2.128  19.200  0.00  0.00    +0.000 OA
ATOM      8  C   UNL     1       1.257   2.847  21.222  0.00  0.00    +0.000 C 
ATOM      9  C   UNL     1       2.590   3.575  21.323  0.00  0.00    +0.000 C 
ATOM     10  C   UNL     1       2.642   4.454  20.076  0.00  0.00    +0.000 C 
BRANCH   5  12
ATOM     11  C   UNL     1       2.540   3.537  16.740  0.00  0.00    +0.000 C 
ATOM     12  C   UNL     1       1.607   4.185  17.750  0.00  0.00    +0.000 C 
ENDBRANCH   5  12
ENDBRANCH   1  10
BRANCH   3  13
ATOM     13  C   UNL     1       5.688   6.204  18.546  0.00  0.00    +0.000 C 
BRANCH  13  14
ATOM     14  C   UNL     1       5.971   5.701  17.148  0.00  0.00    +0.000 A 
ATOM     15  C   UNL     1       5.101   6.075  16.104  0.00  0.00    +0.000 A 
ATOM     16  C   UNL     1       5.322   5.644  14.795  0.00  0.00    +0.000 A 
ATOM     17  C   UNL     1       6.411   4.828  14.520  0.00  0.00    +0.000 A 
ATOM     18  F   UNL     1       6.624   4.412  13.264  0.00  0.00    +0.000 F 
ATOM     19  C   UNL     1       7.281   4.435  15.527  0.00  0.00    +0.000 A 
ATOM     20  C   UNL     1       7.060   4.868  16.838  0.00  0.00    +0.000 A 
ATOM     21 CL   UNL     1       8.177   4.340  18.046  0.00  0.00    +0.000 Cl
ENDBRANCH  13  14
ENDBRANCH   3  13
TORSDOF 4
ENDMDL
MODEL 9
REMARK VINA RESULT:      -6.8      2.020      2.848
REMARK  Name = 
REMARK  5 active torsions:
REMARK  status: ('A' for Active; 'I' for Inactive)
REMARK    1  A    between atoms: C_1  and  C_2
REMARK    2  A    between atoms: C_2  and  N_3
REMARK    3  A    between atoms: C_8  and  C_9
REMARK    4  A    between atoms: N_11  and  C_12
REMARK    5  A    between atoms: C_12  and  C_13
REMARK                            x       y       z     vdW  Elec       q    Type
REMARK                         _______ _______ _______ _____ _____    ______ ____
ROOT
ATOM      1  C   UNL     1       4.769   4.285  17.734  0.00  0.00    +0.000 C 
ATOM      2  O   UNL     1       3.850   5.094  17.784  0.00  0.00    +0.000 OA
ATOM      3  N   UNL     1       4.571   2.928  17.568  0.00  0.00    +0.000 N 
ATOM      4  H   UNL     1       5.384   2.321  17.565  0.00  0.00    +0.000 HD
ENDROOT
BRANCH   1  10
ATOM      5  N   UNL     1       6.468   5.874  16.797  0.00  0.00    +0.000 N 
ATOM      6  C   UNL     1       7.346   6.795  17.355  0.00  0.00    +0.000 C 
ATOM      7  O   UNL     1       7.789   7.792  16.811  0.00  0.00    +0.000 OA
ATOM      8  C   UNL     1       7.726   6.317  18.732  0.00  0.00    +0.000 C 
ATOM      9  C   UNL     1       6.677   5.259  19.046  0.00  0.00    +0.000 C 
ATOM     10  C   UNL     1       6.237   4.739  17.679  0.00  0.00    +0.000 C 
BRANCH   5  12
ATOM     11  C   UNL     1       6.932   4.795  14.601  0.00  0.00    +0.000 C 
ATOM     12  C   UNL     1       6.156   5.848  15.373  0.00  0.00    +0.000 C 
ENDBRANCH   5  12
ENDBRANCH   1  10
BRANCH   3  13
ATOM     13  C   UNL     1       3.256   2.332  17.627  0.00  0.00    +0.000 C 
BRANCH  13  14
ATOM     14  C   UNL     1       2.626   2.462  18.996  0.00  0.00    +0.000 A 
ATOM     15  C   UNL     1       1.290   2.902  19.089  0.00  0.00    +0.000 A 
ATOM     16  C   UNL     1       0.660   3.031  20.327  0.00  0.00    +0.000 A 
ATOM     17  C   UNL     1       1.363   2.728  21.485  0.00  0.00    +0.000 A 
ATOM     18  F   UNL     1       0.760   2.852  22.675  0.00  0.00    +0.000 F 
ATOM     19  C   UNL     1       2.682   2.300  21.428  0.00  0.00    +0.000 A 
ATOM     20  C   UNL     1       3.313   2.170  20.187  0.00  0.00    +0.000 A 
ATOM     21 CL   UNL     1       4.956   1.637  20.184  0.00  0.00    +0.000 Cl
ENDBRANCH  13  14
ENDBRANCH   3  13
TORSDOF 4
ENDMDL
