MODEL 1
REMARK VINA RESULT:      -7.2      0.000      0.000
REMARK  Name = 
REMARK  3 active torsions:
REMARK  status: ('A' for Active; 'I' for Inactive)
REMARK    1  A    between atoms: C_8  and  C_9
REMARK    2  A    between atoms: C_9  and  N_10
REMARK    3  A    between atoms: C_11  and  C_13
REMARK                            x       y       z     vdW  Elec       q    Type
REMARK                         _______ _______ _______ _____ _____    ______ ____
ROOT
ATOM      1  N   UNL     1       4.162   0.522  18.611  0.00  0.00    +0.000 N 
ATOM      2  C   UNL     1       3.671   1.770  18.655  0.00  0.00    +0.000 A 
ATOM      3  N   UNL     1       3.788   2.549  19.705  0.00  0.00    +0.000 NA
ATOM      4  C   UNL     1       3.164   3.752  19.460  0.00  0.00    +0.000 A 
ATOM      5  C   UNL     1       2.618   3.888  18.200  0.00  0.00    +0.000 A 
ATOM      6  S   UNL     1       2.858   2.464  17.303  0.00  0.00    +0.000 S 
ATOM      7  C   UNL     1       1.875   5.082  17.702  0.00  0.00    +0.000 C 
ATOM      8  C   UNL     1       2.131   6.311  18.616  0.00  0.00    +0.000 C 
ATOM      9  C   UNL     1       2.068   5.896  20.111  0.00  0.00    +0.000 C 
ATOM     10  C   UNL     1       3.116   4.830  20.487  0.00  0.00    +0.000 C 
ATOM     11  H   UNL     1       4.845   0.293  19.322  0.00  0.00    +0.000 HD
ATOM     12  H   UNL     1       4.329   0.101  17.706  0.00  0.00    +0.000 HD
ENDROOT
BRANCH   8  13
ATOM     13  C   UNL     1       3.471   7.009  18.307  0.00  0.00    +0.000 C 
BRANCH  13  14
ATOM     14  N   UNL     1       4.150   6.450  17.158  0.00  0.00    +0.000 N 
ATOM     15  C   UNL     1       5.427   5.944  17.215  0.00  0.00    +0.000 C 
ATOM     16  O   UNL     1       6.101   5.949  18.241  0.00  0.00    +0.000 OA
ATOM     17  H   UNL     1       3.625   6.349  16.303  0.00  0.00    +0.000 HD
BRANCH  15  18
ATOM     18  C   UNL     1       5.915   5.386  15.971  0.00  0.00    +0.000 A 
ATOM     19  C   UNL     1       5.301   4.617  14.994  0.00  0.00    +0.000 A 
ATOM     20  C   UNL     1       6.258   4.358  13.995  0.00  0.00    +0.000 A 
ATOM     21 BR   UNL     1       5.922   3.354  12.451  0.00  0.00    +0.000 Br
ATOM     22  C   UNL     1       7.434   4.960  14.351  0.00  0.00    +0.000 A 
ATOM     23  N   UNL     1       7.217   5.589  15.549  0.00  0.00    +0.000 N 
ATOM     24  H   UNL     1       7.898   6.127  16.073  0.00  0.00    +0.000 HD
ENDBRANCH  15  18
ENDBRANCH  13  14
ENDBRANCH   8  13
TORSDOF 3
ENDMDL
MODEL 2
REMARK VINA RESULT:      -7.2      2.572      3.906
REMARK  Name = 
REMARK  3 active torsions:
REMARK  status: ('A' for Active; 'I' for Inactive)
REMARK    1  A    between atoms: C_8  and  C_9
REMARK    2  A    between atoms: C_9  and  N_10
REMARK    3  A    between atoms: C_11  and  C_13
REMARK                            x       y       z     vdW  Elec       q    Type
REMARK                         _______ _______ _______ _____ _____    ______ ____
ROOT
ATOM      1  N   UNL     1       2.027   4.489  20.402  0.00  0.00    +0.000 N 
ATOM      2  C   UNL     1       3.075   4.874  19.657  0.00  0.00    +0.000 A 
ATOM      3  N   UNL     1       4.310   4.865  20.099  0.00  0.00    +0.000 NA
ATOM      4  C   UNL     1       5.155   5.338  19.120  0.00  0.00    +0.000 A 
ATOM      5  C   UNL     1       4.550   5.658  17.922  0.00  0.00    +0.000 A 
ATOM      6  S   UNL     1       2.874   5.396  18.027  0.00  0.00    +0.000 S 
ATOM      7  C   UNL     1       5.244   6.208  16.721  0.00  0.00    +0.000 C 
ATOM      8  C   UNL     1       6.779   6.002  16.828  0.00  0.00    +0.000 C 
ATOM      9  C   UNL     1       7.271   6.342  18.262  0.00  0.00    +0.000 C 
ATOM     10  C   UNL     1       6.622   5.462  19.348  0.00  0.00    +0.000 C 
ATOM     11  H   UNL     1       2.251   3.952  21.231  0.00  0.00    +0.000 HD
ATOM     12  H   UNL     1       1.176   4.213  19.931  0.00  0.00    +0.000 HD
ENDROOT
BRANCH   8  13
ATOM     13  C   UNL     1       7.213   4.576  16.433  0.00  0.00    +0.000 C 
BRANCH  13  14
ATOM     14  N   UNL     1       6.520   4.074  15.267  0.00  0.00    +0.000 N 
ATOM     15  C   UNL     1       6.856   4.433  13.983  0.00  0.00    +0.000 C 
ATOM     16  O   UNL     1       7.755   5.228  13.727  0.00  0.00    +0.000 OA
ATOM     17  H   UNL     1       5.820   3.361  15.405  0.00  0.00    +0.000 HD
BRANCH  15  18
ATOM     18  C   UNL     1       6.076   3.786  12.948  0.00  0.00    +0.000 A 
ATOM     19  C   UNL     1       4.861   4.110  12.362  0.00  0.00    +0.000 A 
ATOM     20  C   UNL     1       4.576   3.120  11.403  0.00  0.00    +0.000 A 
ATOM     21 BR   UNL     1       3.040   3.103  10.332  0.00  0.00    +0.000 Br
ATOM     22  C   UNL     1       5.598   2.210  11.399  0.00  0.00    +0.000 A 
ATOM     23  N   UNL     1       6.510   2.625  12.334  0.00  0.00    +0.000 N 
ATOM     24  H   UNL     1       7.381   2.161  12.566  0.00  0.00    +0.000 HD
ENDBRANCH  15  18
ENDBRANCH  13  14
ENDBRANCH   8  13
TORSDOF 3
ENDMDL
MODEL 3
REMARK VINA RESULT:      -6.9      2.278      3.146
REMARK  Name = 
REMARK  3 active torsions:
REMARK  status: ('A' for Active; 'I' for Inactive)
REMARK    1  A    between atoms: C_8  and  C_9
REMARK    2  A    between atoms: C_9  and  N_10
REMARK    3  A    between atoms: C_11  and  C_13
REMARK                            x       y       z     vdW  Elec       q    Type
REMARK                         _______ _______ _______ _____ _____    ______ ____
ROOT
ATOM      1  N   UNL     1       0.728   2.443  18.932  0.00  0.00    +0.000 N 
ATOM      2  C   UNL     1       1.834   3.166  18.700  0.00  0.00    +0.000 A 
ATOM      3  N   UNL     1       2.884   3.142  19.486  0.00  0.00    +0.000 NA
ATOM      4  C   UNL     1       3.844   4.005  19.004  0.00  0.00    +0.000 A 
ATOM      5  C   UNL     1       3.524   4.642  17.823  0.00  0.00    +0.000 A 
ATOM      6  S   UNL     1       1.969   4.181  17.314  0.00  0.00    +0.000 S 
ATOM      7  C   UNL     1       4.383   5.635  17.115  0.00  0.00    +0.000 C 
ATOM      8  C   UNL     1       5.844   5.571  17.636  0.00  0.00    +0.000 C 
ATOM      9  C   UNL     1       5.861   5.460  19.185  0.00  0.00    +0.000 C 
ATOM     10  C   UNL     1       5.142   4.201  19.708  0.00  0.00    +0.000 C 
ATOM     11  H   UNL     1       0.830   1.686  19.597  0.00  0.00    +0.000 HD
ATOM     12  H   UNL     1       0.106   2.251  18.158  0.00  0.00    +0.000 HD
ENDROOT
BRANCH   8  13
ATOM     13  C   UNL     1       6.647   4.417  17.004  0.00  0.00    +0.000 C 
BRANCH  13  14
ATOM     14  N   UNL     1       6.123   3.995  15.722  0.00  0.00    +0.000 N 
ATOM     15  C   UNL     1       6.649   4.414  14.523  0.00  0.00    +0.000 C 
ATOM     16  O   UNL     1       7.589   5.199  14.445  0.00  0.00    +0.000 OA
ATOM     17  H   UNL     1       5.399   3.293  15.717  0.00  0.00    +0.000 HD
BRANCH  15  18
ATOM     18  C   UNL     1       6.017   3.843  13.351  0.00  0.00    +0.000 A 
ATOM     19  C   UNL     1       4.792   4.085  12.746  0.00  0.00    +0.000 A 
ATOM     20  C   UNL     1       4.699   3.237  11.627  0.00  0.00    +0.000 A 
ATOM     21 BR   UNL     1       3.228   3.179  10.470  0.00  0.00    +0.000 Br
ATOM     22  C   UNL     1       5.845   2.493  11.546  0.00  0.00    +0.000 A 
ATOM     23  N   UNL     1       6.645   2.872  12.592  0.00  0.00    +0.000 N 
ATOM     24  H   UNL     1       7.565   2.504  12.804  0.00  0.00    +0.000 HD
ENDBRANCH  15  18
ENDBRANCH  13  14
ENDBRANCH   8  13
TORSDOF 3
ENDMDL
MODEL 4
REMARK VINA RESULT:      -6.8      3.930      4.654
REMARK  Name = 
REMARK  3 active torsions:
REMARK  status: ('A' for Active; 'I' for Inactive)
REMARK    1  A    between atoms: C_8  and  C_9
REMARK    2  A    between atoms: C_9  and  N_10
REMARK    3  A    between atoms: C_11  and  C_13
REMARK                            x       y       z     vdW  Elec       q    Type
REMARK                         _______ _______ _______ _____ _____    ______ ____
ROOT
ATOM      1  N   UNL     1       0.429   2.905  20.255  0.00  0.00    +0.000 N 
ATOM      2  C   UNL     1       1.378   3.503  19.519  0.00  0.00    +0.000 A 
ATOM      3  N   UNL     1       1.724   4.759  19.680  0.00  0.00    +0.000 NA
ATOM      4  C   UNL     1       2.700   5.091  18.766  0.00  0.00    +0.000 A 
ATOM      5  C   UNL     1       3.117   4.061  17.949  0.00  0.00    +0.000 A 
ATOM      6  S   UNL     1       2.246   2.645  18.303  0.00  0.00    +0.000 S 
ATOM      7  C   UNL     1       4.142   4.173  16.869  0.00  0.00    +0.000 C 
ATOM      8  C   UNL     1       4.976   5.472  17.033  0.00  0.00    +0.000 C 
ATOM      9  C   UNL     1       4.050   6.669  17.385  0.00  0.00    +0.000 C 
ATOM     10  C   UNL     1       3.272   6.465  18.699  0.00  0.00    +0.000 C 
ATOM     11  H   UNL     1       0.166   3.383  21.107  0.00  0.00    +0.000 HD
ATOM     12  H   UNL     1       0.430   1.895  20.314  0.00  0.00    +0.000 HD
ENDROOT
BRANCH   8  13
ATOM     13  C   UNL     1       6.093   5.328  18.087  0.00  0.00    +0.000 C 
BRANCH  13  14
ATOM     14  N   UNL     1       6.766   6.576  18.376  0.00  0.00    +0.000 N 
ATOM     15  C   UNL     1       7.580   7.215  17.471  0.00  0.00    +0.000 C 
ATOM     16  O   UNL     1       7.820   6.765  16.355  0.00  0.00    +0.000 OA
ATOM     17  H   UNL     1       6.552   7.036  19.248  0.00  0.00    +0.000 HD
BRANCH  15  18
ATOM     18  C   UNL     1       8.124   8.477  17.930  0.00  0.00    +0.000 A 
ATOM     19  C   UNL     1       8.060   9.761  17.410  0.00  0.00    +0.000 A 
ATOM     20  C   UNL     1       8.774  10.606  18.278  0.00  0.00    +0.000 A 
ATOM     21 BR   UNL     1       8.985  12.448  18.017  0.00  0.00    +0.000 Br
ATOM     22  C   UNL     1       9.265   9.856  19.313  0.00  0.00    +0.000 A 
ATOM     23  N   UNL     1       8.859   8.565  19.100  0.00  0.00    +0.000 N 
ATOM     24  H   UNL     1       9.061   7.769  19.694  0.00  0.00    +0.000 HD
ENDBRANCH  15  18
ENDBRANCH  13  14
ENDBRANCH   8  13
TORSDOF 3
ENDMDL
MODEL 5
REMARK VINA RESULT:      -6.8      3.449      5.531
REMARK  Name = 
REMARK  3 active torsions:
REMARK  status: ('A' for Active; 'I' for Inactive)
REMARK    1  A    between atoms: C_8  and  C_9
REMARK    2  A    between atoms: C_9  and  N_10
REMARK    3  A    between atoms: C_11  and  C_13
REMARK                            x       y       z     vdW  Elec       q    Type
REMARK                         _______ _______ _______ _____ _____    ______ ____
ROOT
ATOM      1  N   UNL     1       6.979   6.109  18.209  0.00  0.00    +0.000 N 
ATOM      2  C   UNL     1       5.969   5.225  18.198  0.00  0.00    +0.000 A 
ATOM      3  N   UNL     1       5.905   4.200  19.014  0.00  0.00    +0.000 NA
ATOM      4  C   UNL     1       4.772   3.464  18.745  0.00  0.00    +0.000 A 
ATOM      5  C   UNL     1       3.961   3.972  17.751  0.00  0.00    +0.000 A 
ATOM      6  S   UNL     1       4.644   5.390  17.108  0.00  0.00    +0.000 S 
ATOM      7  C   UNL     1       2.695   3.351  17.264  0.00  0.00    +0.000 C 
ATOM      8  C   UNL     1       2.181   2.285  18.270  0.00  0.00    +0.000 C 
ATOM      9  C   UNL     1       3.358   1.410  18.779  0.00  0.00    +0.000 C 
ATOM     10  C   UNL     1       4.448   2.224  19.503  0.00  0.00    +0.000 C 
ATOM     11  H   UNL     1       7.562   6.099  19.037  0.00  0.00    +0.000 HD
ATOM     12  H   UNL     1       6.825   7.023  17.805  0.00  0.00    +0.000 HD
ENDROOT
BRANCH   8  13
ATOM     13  C   UNL     1       1.423   2.912  19.458  0.00  0.00    +0.000 C 
BRANCH  13  14
ATOM     14  N   UNL     1       1.372   4.357  19.401  0.00  0.00    +0.000 N 
ATOM     15  C   UNL     1       1.890   5.164  20.385  0.00  0.00    +0.000 C 
ATOM     16  O   UNL     1       2.415   4.722  21.403  0.00  0.00    +0.000 OA
ATOM     17  H   UNL     1       1.020   4.784  18.557  0.00  0.00    +0.000 HD
BRANCH  15  18
ATOM     18  C   UNL     1       1.785   6.585  20.123  0.00  0.00    +0.000 A 
ATOM     19  C   UNL     1       2.016   7.338  18.982  0.00  0.00    +0.000 A 
ATOM     20  C   UNL     1       1.753   8.683  19.301  0.00  0.00    +0.000 A 
ATOM     21 BR   UNL     1       1.918  10.104  18.093  0.00  0.00    +0.000 Br
ATOM     22  C   UNL     1       1.363   8.752  20.612  0.00  0.00    +0.000 A 
ATOM     23  N   UNL     1       1.377   7.473  21.103  0.00  0.00    +0.000 N 
ATOM     24  H   UNL     1       1.134   7.193  22.046  0.00  0.00    +0.000 HD
ENDBRANCH  15  18
ENDBRANCH  13  14
ENDBRANCH   8  13
TORSDOF 3
ENDMDL
MODEL 6
REMARK VINA RESULT:      -6.7      1.868      2.060
REMARK  Name = 
REMARK  3 active torsions:
REMARK  status: ('A' for Active; 'I' for Inactive)
REMARK    1  A    between atoms: C_8  and  C_9
REMARK    2  A    between atoms: C_9  and  N_10
REMARK    3  A    between atoms: C_11  and  C_13
REMARK                            x       y       z     vdW  Elec       q    Type
REMARK                         _______ _______ _______ _____ _____    ______ ____
ROOT
ATOM      1  N   UNL     1       1.679   2.380  22.413  0.00  0.00    +0.000 N 
ATOM      2  C   UNL     1       1.837   3.230  21.385  0.00  0.00    +0.000 A 
ATOM      3  N   UNL     1       2.071   4.511  21.545  0.00  0.00    +0.000 NA
ATOM      4  C   UNL     1       2.158   5.122  20.314  0.00  0.00    +0.000 A 
ATOM      5  C   UNL     1       2.035   4.281  19.228  0.00  0.00    +0.000 A 
ATOM      6  S   UNL     1       1.768   2.686  19.752  0.00  0.00    +0.000 S 
ATOM      7  C   UNL     1       2.072   4.703  17.797  0.00  0.00    +0.000 C 
ATOM      8  C   UNL     1       2.667   6.130  17.658  0.00  0.00    +0.000 C 
ATOM      9  C   UNL     1       2.087   7.067  18.753  0.00  0.00    +0.000 C 
ATOM     10  C   UNL     1       2.398   6.587  20.184  0.00  0.00    +0.000 C 
ATOM     11  H   UNL     1       1.997   2.716  23.313  0.00  0.00    +0.000 HD
ATOM     12  H   UNL     1       1.823   1.393  22.248  0.00  0.00    +0.000 HD
ENDROOT
BRANCH   8  13
ATOM     13  C   UNL     1       4.208   6.135  17.705  0.00  0.00    +0.000 C 
BRANCH  13  14
ATOM     14  N   UNL     1       4.816   5.742  16.452  0.00  0.00    +0.000 N 
ATOM     15  C   UNL     1       6.049   5.139  16.375  0.00  0.00    +0.000 C 
ATOM     16  O   UNL     1       6.741   4.907  17.361  0.00  0.00    +0.000 OA
ATOM     17  H   UNL     1       4.267   5.837  15.611  0.00  0.00    +0.000 HD
BRANCH  15  18
ATOM     18  C   UNL     1       6.465   4.778  15.035  0.00  0.00    +0.000 A 
ATOM     19  C   UNL     1       6.055   3.769  14.175  0.00  0.00    +0.000 A 
ATOM     20  C   UNL     1       6.805   3.892  12.991  0.00  0.00    +0.000 A 
ATOM     21 BR   UNL     1       6.626   2.760  11.510  0.00  0.00    +0.000 Br
ATOM     22  C   UNL     1       7.655   4.957  13.121  0.00  0.00    +0.000 A 
ATOM     23  N   UNL     1       7.438   5.496  14.362  0.00  0.00    +0.000 N 
ATOM     24  H   UNL     1       7.912   6.300  14.756  0.00  0.00    +0.000 HD
ENDBRANCH  15  18
ENDBRANCH  13  14
ENDBRANCH   8  13
TORSDOF 3
ENDMDL
MODEL 7
REMARK VINA RESULT:      -6.7      3.884      4.918
REMARK  Name = 
REMARK  3 active torsions:
REMARK  status: ('A' for Active; 'I' for Inactive)
REMARK    1  A    between atoms: C_8  and  C_9
REMARK    2  A    between atoms: C_9  and  N_10
REMARK    3  A    between atoms: C_11  and  C_13
REMARK                            x       y       z     vdW  Elec       q    Type
REMARK                         _______ _______ _______ _____ _____    ______ ____
ROOT
ATOM      1  N   UNL     1       2.680   3.679  20.943  0.00  0.00    +0.000 N 
ATOM      2  C   UNL     1       3.268   4.101  19.812  0.00  0.00    +0.000 A 
ATOM      3  N   UNL     1       3.565   5.359  19.587  0.00  0.00    +0.000 NA
ATOM      4  C   UNL     1       4.131   5.484  18.337  0.00  0.00    +0.000 A 
ATOM      5  C   UNL     1       4.299   4.303  17.645  0.00  0.00    +0.000 A 
ATOM      6  S   UNL     1       3.704   3.000  18.561  0.00  0.00    +0.000 S 
ATOM      7  C   UNL     1       4.867   4.177  16.271  0.00  0.00    +0.000 C 
ATOM      8  C   UNL     1       5.619   5.473  15.864  0.00  0.00    +0.000 C 
ATOM      9  C   UNL     1       4.800   6.726  16.280  0.00  0.00    +0.000 C 
ATOM     10  C   UNL     1       4.551   6.808  17.799  0.00  0.00    +0.000 C 
ATOM     11  H   UNL     1       2.705   4.328  21.720  0.00  0.00    +0.000 HD
ATOM     12  H   UNL     1       2.769   2.704  21.196  0.00  0.00    +0.000 HD
ENDROOT
BRANCH   8  13
ATOM     13  C   UNL     1       7.042   5.540  16.452  0.00  0.00    +0.000 C 
BRANCH  13  14
ATOM     14  N   UNL     1       7.436   6.878  16.838  0.00  0.00    +0.000 N 
ATOM     15  C   UNL     1       7.911   7.187  18.091  0.00  0.00    +0.000 C 
ATOM     16  O   UNL     1       8.015   6.357  18.988  0.00  0.00    +0.000 OA
ATOM     17  H   UNL     1       7.444   7.591  16.125  0.00  0.00    +0.000 HD
BRANCH  15  18
ATOM     18  C   UNL     1       8.297   8.572  18.268  0.00  0.00    +0.000 A 
ATOM     19  C   UNL     1       8.010   9.717  17.539  0.00  0.00    +0.000 A 
ATOM     20  C   UNL     1       8.654  10.796  18.174  0.00  0.00    +0.000 A 
ATOM     21 BR   UNL     1       8.576  12.568  17.575  0.00  0.00    +0.000 Br
ATOM     22  C   UNL     1       9.318  10.322  19.272  0.00  0.00    +0.000 A 
ATOM     23  N   UNL     1       9.091   8.972  19.329  0.00  0.00    +0.000 N 
ATOM     24  H   UNL     1       9.447   8.334  20.032  0.00  0.00    +0.000 HD
ENDBRANCH  15  18
ENDBRANCH  13  14
ENDBRANCH   8  13
TORSDOF 3
ENDMDL
MODEL 8
REMARK VINA RESULT:      -6.7      4.425      6.929
REMARK  Name = 
REMARK  3 active torsions:
REMARK  status: ('A' for Active; 'I' for Inactive)
REMARK    1  A    between atoms: C_8  and  C_9
REMARK    2  A    between atoms: C_9  and  N_10
REMARK    3  A    between atoms: C_11  and  C_13
REMARK                            x       y       z     vdW  Elec       q    Type
REMARK                         _______ _______ _______ _____ _____    ______ ____
ROOT
ATOM      1  N   UNL     1       7.839   5.013  13.741  0.00  0.00    +0.000 N 
ATOM      2  C   UNL     1       7.008   5.045  14.794  0.00  0.00    +0.000 A 
ATOM      3  N   UNL     1       7.240   5.761  15.868  0.00  0.00    +0.000 NA
ATOM      4  C   UNL     1       6.226   5.567  16.781  0.00  0.00    +0.000 A 
ATOM      5  C   UNL     1       5.208   4.736  16.364  0.00  0.00    +0.000 A 
ATOM      6  S   UNL     1       5.535   4.150  14.802  0.00  0.00    +0.000 S 
ATOM      7  C   UNL     1       4.014   4.354  17.175  0.00  0.00    +0.000 C 
ATOM      8  C   UNL     1       3.841   5.310  18.386  0.00  0.00    +0.000 C 
ATOM      9  C   UNL     1       5.214   5.582  19.060  0.00  0.00    +0.000 C 
ATOM     10  C   UNL     1       6.235   6.239  18.111  0.00  0.00    +0.000 C 
ATOM     11  H   UNL     1       8.525   5.757  13.700  0.00  0.00    +0.000 HD
ATOM     12  H   UNL     1       7.472   4.721  12.845  0.00  0.00    +0.000 HD
ENDROOT
BRANCH   8  13
ATOM     13  C   UNL     1       3.160   6.638  17.997  0.00  0.00    +0.000 C 
BRANCH  13  14
ATOM     14  N   UNL     1       2.561   7.321  19.124  0.00  0.00    +0.000 N 
ATOM     15  C   UNL     1       1.735   8.410  18.987  0.00  0.00    +0.000 C 
ATOM     16  O   UNL     1       1.458   8.905  17.899  0.00  0.00    +0.000 OA
ATOM     17  H   UNL     1       2.689   6.919  20.041  0.00  0.00    +0.000 HD
BRANCH  15  18
ATOM     18  C   UNL     1       1.197   8.924  20.230  0.00  0.00    +0.000 A 
ATOM     19  C   UNL     1       0.229   9.880  20.499  0.00  0.00    +0.000 A 
ATOM     20  C   UNL     1       0.106   9.978  21.897  0.00  0.00    +0.000 A 
ATOM     21 BR   UNL     1      -1.076  11.136  22.772  0.00  0.00    +0.000 Br
ATOM     22  C   UNL     1       0.980   9.097  22.475  0.00  0.00    +0.000 A 
ATOM     23  N   UNL     1       1.634   8.453  21.456  0.00  0.00    +0.000 N 
ATOM     24  H   UNL     1       2.343   7.737  21.560  0.00  0.00    +0.000 HD
ENDBRANCH  15  18
ENDBRANCH  13  14
ENDBRANCH   8  13
TORSDOF 3
ENDMDL
MODEL 9
REMARK VINA RESULT:      -6.6      5.081      6.879
REMARK  Name = 
REMARK  3 active torsions:
REMARK  status: ('A' for Active; 'I' for Inactive)
REMARK    1  A    between atoms: C_8  and  C_9
REMARK    2  A    between atoms: C_9  and  N_10
REMARK    3  A    between atoms: C_11  and  C_13
REMARK                            x       y       z     vdW  Elec       q    Type
REMARK                         _______ _______ _______ _____ _____    ______ ____
ROOT
ATOM      1  N   UNL     1       8.397   5.197  19.696  0.00  0.00    +0.000 N 
ATOM      2  C   UNL     1       7.183   5.493  19.208  0.00  0.00    +0.000 A 
ATOM      3  N   UNL     1       6.067   5.098  19.775  0.00  0.00    +0.000 NA
ATOM      4  C   UNL     1       4.992   5.531  19.032  0.00  0.00    +0.000 A 
ATOM      5  C   UNL     1       5.307   6.294  17.927  0.00  0.00    +0.000 A 
ATOM      6  S   UNL     1       6.994   6.450  17.788  0.00  0.00    +0.000 S 
ATOM      7  C   UNL     1       4.325   6.859  16.956  0.00  0.00    +0.000 C 
ATOM      8  C   UNL     1       2.889   6.835  17.546  0.00  0.00    +0.000 C 
ATOM      9  C   UNL     1       2.621   5.482  18.259  0.00  0.00    +0.000 C 
ATOM     10  C   UNL     1       3.591   5.210  19.425  0.00  0.00    +0.000 C 
ATOM     11  H   UNL     1       8.419   4.874  20.655  0.00  0.00    +0.000 HD
ATOM     12  H   UNL     1       9.181   5.775  19.422  0.00  0.00    +0.000 HD
ENDROOT
BRANCH   8  13
ATOM     13  C   UNL     1       2.626   8.012  18.507  0.00  0.00    +0.000 C 
BRANCH  13  14
ATOM     14  N   UNL     1       1.484   8.815  18.123  0.00  0.00    +0.000 N 
ATOM     15  C   UNL     1       0.767   9.573  19.017  0.00  0.00    +0.000 C 
ATOM     16  O   UNL     1       1.023   9.610  20.216  0.00  0.00    +0.000 OA
ATOM     17  H   UNL     1       1.267   8.886  17.140  0.00  0.00    +0.000 HD
BRANCH  15  18
ATOM     18  C   UNL     1      -0.311  10.343  18.431  0.00  0.00    +0.000 A 
ATOM     19  C   UNL     1      -1.535   9.970  17.895  0.00  0.00    +0.000 A 
ATOM     20  C   UNL     1      -2.186  11.142  17.469  0.00  0.00    +0.000 A 
ATOM     21 BR   UNL     1      -3.880  11.175  16.671  0.00  0.00    +0.000 Br
ATOM     22  C   UNL     1      -1.379  12.214  17.742  0.00  0.00    +0.000 A 
ATOM     23  N   UNL     1      -0.245  11.722  18.334  0.00  0.00    +0.000 N 
ATOM     24  H   UNL     1       0.545  12.268  18.656  0.00  0.00    +0.000 HD
ENDBRANCH  15  18
ENDBRANCH  13  14
ENDBRANCH   8  13
TORSDOF 3
ENDMDL
