MODEL 1
REMARK VINA RESULT:      -7.9      0.000      0.000
REMARK  Name = 
REMARK  7 active torsions:
REMARK  status: ('A' for Active; 'I' for Inactive)
REMARK    1  A    between atoms: C_1  and  N_2
REMARK    2  A    between atoms: N_2  and  S_3
REMARK    3  A    between atoms: S_3  and  C_6
REMARK    4  A    between atoms: C_10  and  C_11
REMARK    5  A    between atoms: C_11  and  O_13
REMARK    6  A    between atoms: O_13  and  C_14
REMARK    7  A    between atoms: C_14  and  C_15
REMARK                            x       y       z     vdW  Elec       q    Type
REMARK                         _______ _______ _______ _____ _____    ______ ____
ROOT
ATOM      1  C   UNL     1       1.856   9.317  17.903  0.00  0.00    +0.000 C 
ATOM      2  O   UNL     1       2.812   9.950  17.485  0.00  0.00    +0.000 OA
ENDROOT
BRANCH   1   7
ATOM      3  C   UNL     1      -1.650  10.671  18.593  0.00  0.00    +0.000 A 
ATOM      4  C   UNL     1      -1.426  11.369  19.785  0.00  0.00    +0.000 A 
ATOM      5  C   UNL     1      -0.159  11.361  20.363  0.00  0.00    +0.000 A 
ATOM      6  C   UNL     1       0.885  10.675  19.735  0.00  0.00    +0.000 A 
ATOM      7  C   UNL     1       0.673   9.978  18.532  0.00  0.00    +0.000 A 
ATOM      8  C   UNL     1      -0.607   9.972  17.962  0.00  0.00    +0.000 A 
BRANCH   3   9
ATOM      9  S   UNL     1      -3.230  10.835  17.793  0.00  0.00    +0.000 S 
ATOM     10  O   UNL     1      -3.954  11.893  18.465  0.00  0.00    +0.000 OA
ATOM     11  O   UNL     1      -3.796   9.515  17.632  0.00  0.00    +0.000 OA
BRANCH   9  13
ATOM     12  C   UNL     1      -3.016  10.568  15.116  0.00  0.00    +0.000 C 
ATOM     13  N   UNL     1      -2.841  11.443  16.272  0.00  0.00    +0.000 NA
ATOM     14  H   UNL     1      -3.170  12.405  16.177  0.00  0.00    +0.000 HD
ENDBRANCH   9  13
ENDBRANCH   3   9
ENDBRANCH   1   7
BRANCH   1  15
ATOM     15  O   UNL     1       1.718   7.970  17.862  0.00  0.00    +0.000 OA
BRANCH  15  16
ATOM     16  C   UNL     1       2.512   7.218  18.805  0.00  0.00    +0.000 C 
BRANCH  16  17
ATOM     17  C   UNL     1       3.143   6.021  18.129  0.00  0.00    +0.000 A 
ATOM     18  C   UNL     1       4.221   6.237  17.251  0.00  0.00    +0.000 A 
ATOM     19  C   UNL     1       4.814   5.171  16.576  0.00  0.00    +0.000 A 
ATOM     20 CL   UNL     1       6.132   5.462  15.511  0.00  0.00    +0.000 Cl
ATOM     21  C   UNL     1       4.345   3.874  16.757  0.00  0.00    +0.000 A 
ATOM     22  C   UNL     1       3.273   3.635  17.626  0.00  0.00    +0.000 A 
ATOM     23  C   UNL     1       2.661   4.709  18.292  0.00  0.00    +0.000 A 
ATOM     24  O   UNL     1       1.596   4.508  19.131  0.00  0.00    +0.000 OA
ATOM     25  C   UNL     1       1.076   3.174  19.121  0.00  0.00    +0.000 C 
ATOM     26  O   UNL     1       2.069   2.158  19.059  0.00  0.00    +0.000 OA
ATOM     27  C   UNL     1       2.755   2.244  17.820  0.00  0.00    +0.000 C 
ENDBRANCH  16  17
ENDBRANCH  15  16
ENDBRANCH   1  15
TORSDOF 6
ENDMDL
MODEL 2
REMARK VINA RESULT:      -7.8      4.402      8.643
REMARK  Name = 
REMARK  7 active torsions:
REMARK  status: ('A' for Active; 'I' for Inactive)
REMARK    1  A    between atoms: C_1  and  N_2
REMARK    2  A    between atoms: N_2  and  S_3
REMARK    3  A    between atoms: S_3  and  C_6
REMARK    4  A    between atoms: C_10  and  C_11
REMARK    5  A    between atoms: C_11  and  O_13
REMARK    6  A    between atoms: O_13  and  C_14
REMARK    7  A    between atoms: C_14  and  C_15
REMARK                            x       y       z     vdW  Elec       q    Type
REMARK                         _______ _______ _______ _____ _____    ______ ____
ROOT
ATOM      1  C   UNL     1       2.386   7.461  18.671  0.00  0.00    +0.000 C 
ATOM      2  O   UNL     1       2.257   7.616  19.875  0.00  0.00    +0.000 OA
ENDROOT
BRANCH   1   7
ATOM      3  C   UNL     1       5.152   5.368  17.070  0.00  0.00    +0.000 A 
ATOM      4  C   UNL     1       4.489   4.147  16.907  0.00  0.00    +0.000 A 
ATOM      5  C   UNL     1       3.175   4.010  17.349  0.00  0.00    +0.000 A 
ATOM      6  C   UNL     1       2.522   5.100  17.930  0.00  0.00    +0.000 A 
ATOM      7  C   UNL     1       3.175   6.335  18.090  0.00  0.00    +0.000 A 
ATOM      8  C   UNL     1       4.504   6.466  17.662  0.00  0.00    +0.000 A 
BRANCH   3   9
ATOM      9  S   UNL     1       6.767   5.564  16.350  0.00  0.00    +0.000 S 
ATOM     10  O   UNL     1       6.605   5.596  14.913  0.00  0.00    +0.000 OA
ATOM     11  O   UNL     1       7.665   4.630  16.990  0.00  0.00    +0.000 OA
BRANCH   9  13
ATOM     12  C   UNL     1       7.938   7.305  18.047  0.00  0.00    +0.000 C 
ATOM     13  N   UNL     1       7.210   7.126  16.795  0.00  0.00    +0.000 NA
ATOM     14  H   UNL     1       7.551   7.645  15.984  0.00  0.00    +0.000 HD
ENDBRANCH   9  13
ENDBRANCH   3   9
ENDBRANCH   1   7
BRANCH   1  15
ATOM     15  O   UNL     1       1.854   8.254  17.709  0.00  0.00    +0.000 OA
BRANCH  15  16
ATOM     16  C   UNL     1       1.919   9.677  17.945  0.00  0.00    +0.000 C 
BRANCH  16  17
ATOM     17  C   UNL     1       0.553  10.216  18.309  0.00  0.00    +0.000 A 
ATOM     18  C   UNL     1      -0.560   9.778  17.568  0.00  0.00    +0.000 A 
ATOM     19  C   UNL     1      -1.835  10.273  17.840  0.00  0.00    +0.000 A 
ATOM     20 CL   UNL     1      -3.179   9.720  16.921  0.00  0.00    +0.000 Cl
ATOM     21  C   UNL     1      -2.026  11.212  18.848  0.00  0.00    +0.000 A 
ATOM     22  C   UNL     1      -0.933  11.662  19.598  0.00  0.00    +0.000 A 
ATOM     23  C   UNL     1       0.355  11.181  19.314  0.00  0.00    +0.000 A 
ATOM     24  O   UNL     1       1.447  11.620  20.017  0.00  0.00    +0.000 OA
ATOM     25  C   UNL     1       1.179  12.706  20.910  0.00  0.00    +0.000 C 
ATOM     26  O   UNL     1      -0.056  12.603  21.607  0.00  0.00    +0.000 OA
ATOM     27  C   UNL     1      -1.128  12.679  20.679  0.00  0.00    +0.000 C 
ENDBRANCH  16  17
ENDBRANCH  15  16
ENDBRANCH   1  15
TORSDOF 6
ENDMDL
MODEL 3
REMARK VINA RESULT:      -7.8      4.501      8.788
REMARK  Name = 
REMARK  7 active torsions:
REMARK  status: ('A' for Active; 'I' for Inactive)
REMARK    1  A    between atoms: C_1  and  N_2
REMARK    2  A    between atoms: N_2  and  S_3
REMARK    3  A    between atoms: S_3  and  C_6
REMARK    4  A    between atoms: C_10  and  C_11
REMARK    5  A    between atoms: C_11  and  O_13
REMARK    6  A    between atoms: O_13  and  C_14
REMARK    7  A    between atoms: C_14  and  C_15
REMARK                            x       y       z     vdW  Elec       q    Type
REMARK                         _______ _______ _______ _____ _____    ______ ____
ROOT
ATOM      1  C   UNL     1       2.275   7.421  18.783  0.00  0.00    +0.000 C 
ATOM      2  O   UNL     1       2.199   7.659  19.978  0.00  0.00    +0.000 OA
ENDROOT
BRANCH   1   7
ATOM      3  C   UNL     1       4.848   4.944  17.426  0.00  0.00    +0.000 A 
ATOM      4  C   UNL     1       4.026   3.847  17.145  0.00  0.00    +0.000 A 
ATOM      5  C   UNL     1       2.664   3.913  17.432  0.00  0.00    +0.000 A 
ATOM      6  C   UNL     1       2.126   5.082  17.975  0.00  0.00    +0.000 A 
ATOM      7  C   UNL     1       2.941   6.194  18.253  0.00  0.00    +0.000 A 
ATOM      8  C   UNL     1       4.315   6.120  17.981  0.00  0.00    +0.000 A 
BRANCH   3   9
ATOM      9  S   UNL     1       6.546   4.893  16.899  0.00  0.00    +0.000 S 
ATOM     10  O   UNL     1       7.334   4.397  18.005  0.00  0.00    +0.000 OA
ATOM     11  O   UNL     1       6.857   6.147  16.250  0.00  0.00    +0.000 OA
BRANCH   9  13
ATOM     12  C   UNL     1       6.356   4.043  14.344  0.00  0.00    +0.000 C 
ATOM     13  N   UNL     1       6.563   3.671  15.741  0.00  0.00    +0.000 NA
ATOM     14  H   UNL     1       7.313   3.005  15.936  0.00  0.00    +0.000 HD
ENDBRANCH   9  13
ENDBRANCH   3   9
ENDBRANCH   1   7
BRANCH   1  15
ATOM     15  O   UNL     1       1.786   8.200  17.788  0.00  0.00    +0.000 OA
BRANCH  15  16
ATOM     16  C   UNL     1       1.994   9.622  17.928  0.00  0.00    +0.000 C 
BRANCH  16  17
ATOM     17  C   UNL     1       0.693  10.315  18.268  0.00  0.00    +0.000 A 
ATOM     18  C   UNL     1      -0.512   9.724  17.849  0.00  0.00    +0.000 A 
ATOM     19  C   UNL     1      -1.735  10.342  18.105  0.00  0.00    +0.000 A 
ATOM     20 CL   UNL     1      -3.195   9.596  17.584  0.00  0.00    +0.000 Cl
ATOM     21  C   UNL     1      -1.783  11.558  18.777  0.00  0.00    +0.000 A 
ATOM     22  C   UNL     1      -0.596  12.166  19.204  0.00  0.00    +0.000 A 
ATOM     23  C   UNL     1       0.639  11.556  18.930  0.00  0.00    +0.000 A 
ATOM     24  O   UNL     1       1.818  12.138  19.316  0.00  0.00    +0.000 OA
ATOM     25  C   UNL     1       1.681  13.463  19.843  0.00  0.00    +0.000 C 
ATOM     26  O   UNL     1       0.549  13.645  20.684  0.00  0.00    +0.000 OA
ATOM     27  C   UNL     1      -0.636  13.480  19.920  0.00  0.00    +0.000 C 
ENDBRANCH  16  17
ENDBRANCH  15  16
ENDBRANCH   1  15
TORSDOF 6
ENDMDL
MODEL 4
REMARK VINA RESULT:      -7.8      4.557      8.863
REMARK  Name = 
REMARK  7 active torsions:
REMARK  status: ('A' for Active; 'I' for Inactive)
REMARK    1  A    between atoms: C_1  and  N_2
REMARK    2  A    between atoms: N_2  and  S_3
REMARK    3  A    between atoms: S_3  and  C_6
REMARK    4  A    between atoms: C_10  and  C_11
REMARK    5  A    between atoms: C_11  and  O_13
REMARK    6  A    between atoms: O_13  and  C_14
REMARK    7  A    between atoms: C_14  and  C_15
REMARK                            x       y       z     vdW  Elec       q    Type
REMARK                         _______ _______ _______ _____ _____    ______ ____
ROOT
ATOM      1  C   UNL     1       2.314   7.295  18.769  0.00  0.00    +0.000 C 
ATOM      2  O   UNL     1       2.216   7.462  19.975  0.00  0.00    +0.000 OA
ENDROOT
BRANCH   1   7
ATOM      3  C   UNL     1       4.758   4.828  17.175  0.00  0.00    +0.000 A 
ATOM      4  C   UNL     1       3.920   3.725  16.981  0.00  0.00    +0.000 A 
ATOM      5  C   UNL     1       2.593   3.782  17.401  0.00  0.00    +0.000 A 
ATOM      6  C   UNL     1       2.103   4.951  17.990  0.00  0.00    +0.000 A 
ATOM      7  C   UNL     1       2.934   6.069  18.181  0.00  0.00    +0.000 A 
ATOM      8  C   UNL     1       4.274   6.003  17.775  0.00  0.00    +0.000 A 
BRANCH   3   9
ATOM      9  S   UNL     1       6.396   4.786  16.483  0.00  0.00    +0.000 S 
ATOM     10  O   UNL     1       6.758   6.142  16.131  0.00  0.00    +0.000 OA
ATOM     11  O   UNL     1       6.454   3.712  15.518  0.00  0.00    +0.000 OA
BRANCH   9  13
ATOM     12  C   UNL     1       7.746   5.441  18.727  0.00  0.00    +0.000 C 
ATOM     13  N   UNL     1       7.369   4.381  17.796  0.00  0.00    +0.000 NA
ATOM     14  H   UNL     1       7.067   3.494  18.204  0.00  0.00    +0.000 HD
ENDBRANCH   9  13
ENDBRANCH   3   9
ENDBRANCH   1   7
BRANCH   1  15
ATOM     15  O   UNL     1       1.893   8.157  17.812  0.00  0.00    +0.000 OA
BRANCH  15  16
ATOM     16  C   UNL     1       2.194   9.552  18.032  0.00  0.00    +0.000 C 
BRANCH  16  17
ATOM     17  C   UNL     1       0.920  10.343  18.228  0.00  0.00    +0.000 A 
ATOM     18  C   UNL     1      -0.307   9.723  17.935  0.00  0.00    +0.000 A 
ATOM     19  C   UNL     1      -1.507  10.421  18.065  0.00  0.00    +0.000 A 
ATOM     20 CL   UNL     1      -2.994   9.639  17.701  0.00  0.00    +0.000 Cl
ATOM     21  C   UNL     1      -1.508  11.747  18.484  0.00  0.00    +0.000 A 
ATOM     22  C   UNL     1      -0.298  12.386  18.782  0.00  0.00    +0.000 A 
ATOM     23  C   UNL     1       0.913  11.691  18.633  0.00  0.00    +0.000 A 
ATOM     24  O   UNL     1       2.114  12.297  18.896  0.00  0.00    +0.000 OA
ATOM     25  C   UNL     1       2.026  13.703  19.153  0.00  0.00    +0.000 C 
ATOM     26  O   UNL     1       0.907  14.086  19.941  0.00  0.00    +0.000 OA
ATOM     27  C   UNL     1      -0.288  13.816  19.226  0.00  0.00    +0.000 C 
ENDBRANCH  16  17
ENDBRANCH  15  16
ENDBRANCH   1  15
TORSDOF 6
ENDMDL
MODEL 5
REMARK VINA RESULT:      -7.7      2.326      3.039
REMARK  Name = 
REMARK  7 active torsions:
REMARK  status: ('A' for Active; 'I' for Inactive)
REMARK    1  A    between atoms: C_1  and  N_2
REMARK    2  A    between atoms: N_2  and  S_3
REMARK    3  A    between atoms: S_3  and  C_6
REMARK    4  A    between atoms: C_10  and  C_11
REMARK    5  A    between atoms: C_11  and  O_13
REMARK    6  A    between atoms: O_13  and  C_14
REMARK    7  A    between atoms: C_14  and  C_15
REMARK                            x       y       z     vdW  Elec       q    Type
REMARK                         _______ _______ _______ _____ _____    ______ ____
ROOT
ATOM      1  C   UNL     1       1.739   9.192  17.882  0.00  0.00    +0.000 C 
ATOM      2  O   UNL     1       2.695   9.755  17.371  0.00  0.00    +0.000 OA
ENDROOT
BRANCH   1   7
ATOM      3  C   UNL     1      -0.509  11.199  20.230  0.00  0.00    +0.000 A 
ATOM      4  C   UNL     1      -1.698  11.220  19.493  0.00  0.00    +0.000 A 
ATOM      5  C   UNL     1      -1.743  10.620  18.237  0.00  0.00    +0.000 A 
ATOM      6  C   UNL     1      -0.607   9.980  17.734  0.00  0.00    +0.000 A 
ATOM      7  C   UNL     1       0.591   9.943  18.471  0.00  0.00    +0.000 A 
ATOM      8  C   UNL     1       0.640  10.564  19.727  0.00  0.00    +0.000 A 
BRANCH   3   9
ATOM      9  S   UNL     1      -0.527  11.827  21.895  0.00  0.00    +0.000 S 
ATOM     10  O   UNL     1      -1.901  11.833  22.346  0.00  0.00    +0.000 OA
ATOM     11  O   UNL     1       0.290  13.018  21.939  0.00  0.00    +0.000 OA
BRANCH   9  13
ATOM     12  C   UNL     1      -0.530   9.426  23.128  0.00  0.00    +0.000 C 
ATOM     13  N   UNL     1       0.239  10.617  22.781  0.00  0.00    +0.000 NA
ATOM     14  H   UNL     1       1.189  10.470  22.436  0.00  0.00    +0.000 HD
ENDBRANCH   9  13
ENDBRANCH   3   9
ENDBRANCH   1   7
BRANCH   1  15
ATOM     15  O   UNL     1       1.574   7.851  17.989  0.00  0.00    +0.000 OA
BRANCH  15  16
ATOM     16  C   UNL     1       2.479   7.166  18.881  0.00  0.00    +0.000 C 
BRANCH  16  17
ATOM     17  C   UNL     1       3.113   5.983  18.184  0.00  0.00    +0.000 A 
ATOM     18  C   UNL     1       4.186   6.217  17.305  0.00  0.00    +0.000 A 
ATOM     19  C   UNL     1       4.781   5.164  16.611  0.00  0.00    +0.000 A 
ATOM     20 CL   UNL     1       6.092   5.478  15.544  0.00  0.00    +0.000 Cl
ATOM     21  C   UNL     1       4.318   3.863  16.774  0.00  0.00    +0.000 A 
ATOM     22  C   UNL     1       3.252   3.605  17.644  0.00  0.00    +0.000 A 
ATOM     23  C   UNL     1       2.638   4.666  18.329  0.00  0.00    +0.000 A 
ATOM     24  O   UNL     1       1.578   4.447  19.170  0.00  0.00    +0.000 OA
ATOM     25  C   UNL     1       1.064   3.111  19.142  0.00  0.00    +0.000 C 
ATOM     26  O   UNL     1       2.062   2.100  19.061  0.00  0.00    +0.000 OA
ATOM     27  C   UNL     1       2.742   2.209  17.820  0.00  0.00    +0.000 C 
ENDBRANCH  16  17
ENDBRANCH  15  16
ENDBRANCH   1  15
TORSDOF 6
ENDMDL
MODEL 6
REMARK VINA RESULT:      -7.6      4.314      8.479
REMARK  Name = 
REMARK  7 active torsions:
REMARK  status: ('A' for Active; 'I' for Inactive)
REMARK    1  A    between atoms: C_1  and  N_2
REMARK    2  A    between atoms: N_2  and  S_3
REMARK    3  A    between atoms: S_3  and  C_6
REMARK    4  A    between atoms: C_10  and  C_11
REMARK    5  A    between atoms: C_11  and  O_13
REMARK    6  A    between atoms: O_13  and  C_14
REMARK    7  A    between atoms: C_14  and  C_15
REMARK                            x       y       z     vdW  Elec       q    Type
REMARK                         _______ _______ _______ _____ _____    ______ ____
ROOT
ATOM      1  C   UNL     1       2.377   7.470  19.169  0.00  0.00    +0.000 C 
ATOM      2  O   UNL     1       1.897   7.435  20.292  0.00  0.00    +0.000 OA
ENDROOT
BRANCH   1   7
ATOM      3  C   UNL     1       4.745   4.986  17.489  0.00  0.00    +0.000 A 
ATOM      4  C   UNL     1       3.851   3.963  17.157  0.00  0.00    +0.000 A 
ATOM      5  C   UNL     1       2.509   4.075  17.512  0.00  0.00    +0.000 A 
ATOM      6  C   UNL     1       2.061   5.220  18.177  0.00  0.00    +0.000 A 
ATOM      7  C   UNL     1       2.949   6.260  18.507  0.00  0.00    +0.000 A 
ATOM      8  C   UNL     1       4.303   6.137  18.166  0.00  0.00    +0.000 A 
BRANCH   3   9
ATOM      9  S   UNL     1       6.413   4.892  16.880  0.00  0.00    +0.000 S 
ATOM     10  O   UNL     1       7.249   4.420  17.962  0.00  0.00    +0.000 OA
ATOM     11  O   UNL     1       6.708   6.118  16.175  0.00  0.00    +0.000 OA
BRANCH   9  13
ATOM     12  C   UNL     1       6.327   3.970  14.344  0.00  0.00    +0.000 C 
ATOM     13  N   UNL     1       6.355   3.632  15.765  0.00  0.00    +0.000 NA
ATOM     14  H   UNL     1       6.980   2.876  16.047  0.00  0.00    +0.000 HD
ENDBRANCH   9  13
ENDBRANCH   3   9
ENDBRANCH   1   7
BRANCH   1  15
ATOM     15  O   UNL     1       2.461   8.566  18.377  0.00  0.00    +0.000 OA
BRANCH  15  16
ATOM     16  C   UNL     1       1.267   8.920  17.647  0.00  0.00    +0.000 C 
BRANCH  16  17
ATOM     17  C   UNL     1       0.596  10.119  18.279  0.00  0.00    +0.000 A 
ATOM     18  C   UNL     1       1.364  10.958  19.107  0.00  0.00    +0.000 A 
ATOM     19  C   UNL     1       0.783  12.055  19.742  0.00  0.00    +0.000 A 
ATOM     20 CL   UNL     1       1.744  13.066  20.748  0.00  0.00    +0.000 Cl
ATOM     21  C   UNL     1      -0.568  12.336  19.568  0.00  0.00    +0.000 A 
ATOM     22  C   UNL     1      -1.351  11.516  18.748  0.00  0.00    +0.000 A 
ATOM     23  C   UNL     1      -0.774  10.398  18.123  0.00  0.00    +0.000 A 
ATOM     24  O   UNL     1      -1.521   9.564  17.332  0.00  0.00    +0.000 OA
ATOM     25  C   UNL     1      -2.928   9.831  17.351  0.00  0.00    +0.000 C 
ATOM     26  O   UNL     1      -3.263  11.213  17.355  0.00  0.00    +0.000 OA
ATOM     27  C   UNL     1      -2.808  11.805  18.562  0.00  0.00    +0.000 C 
ENDBRANCH  16  17
ENDBRANCH  15  16
ENDBRANCH   1  15
TORSDOF 6
ENDMDL
MODEL 7
REMARK VINA RESULT:      -7.6      2.006      2.683
REMARK  Name = 
REMARK  7 active torsions:
REMARK  status: ('A' for Active; 'I' for Inactive)
REMARK    1  A    between atoms: C_1  and  N_2
REMARK    2  A    between atoms: N_2  and  S_3
REMARK    3  A    between atoms: S_3  and  C_6
REMARK    4  A    between atoms: C_10  and  C_11
REMARK    5  A    between atoms: C_11  and  O_13
REMARK    6  A    between atoms: O_13  and  C_14
REMARK    7  A    between atoms: C_14  and  C_15
REMARK                            x       y       z     vdW  Elec       q    Type
REMARK                         _______ _______ _______ _____ _____    ______ ____
ROOT
ATOM      1  C   UNL     1       1.677   9.102  17.991  0.00  0.00    +0.000 C 
ATOM      2  O   UNL     1       2.653   9.321  17.291  0.00  0.00    +0.000 OA
ENDROOT
BRANCH   1   7
ATOM      3  C   UNL     1      -1.609  11.038  18.223  0.00  0.00    +0.000 A 
ATOM      4  C   UNL     1      -1.156  12.251  18.753  0.00  0.00    +0.000 A 
ATOM      5  C   UNL     1       0.193  12.410  19.060  0.00  0.00    +0.000 A 
ATOM      6  C   UNL     1       1.087  11.365  18.813  0.00  0.00    +0.000 A 
ATOM      7  C   UNL     1       0.645  10.145  18.272  0.00  0.00    +0.000 A 
ATOM      8  C   UNL     1      -0.716   9.980  17.981  0.00  0.00    +0.000 A 
BRANCH   3   9
ATOM      9  S   UNL     1      -3.302  10.920  17.688  0.00  0.00    +0.000 S 
ATOM     10  O   UNL     1      -4.058  11.924  18.403  0.00  0.00    +0.000 OA
ATOM     11  O   UNL     1      -3.686   9.527  17.704  0.00  0.00    +0.000 OA
BRANCH   9  13
ATOM     12  C   UNL     1      -2.949  10.458  15.052  0.00  0.00    +0.000 C 
ATOM     13  N   UNL     1      -3.247  11.442  16.088  0.00  0.00    +0.000 NA
ATOM     14  H   UNL     1      -4.009  12.096  15.900  0.00  0.00    +0.000 HD
ENDBRANCH   9  13
ENDBRANCH   3   9
ENDBRANCH   1   7
BRANCH   1  15
ATOM     15  O   UNL     1       1.385   7.927  18.599  0.00  0.00    +0.000 OA
BRANCH  15  16
ATOM     16  C   UNL     1       2.494   7.225  19.199  0.00  0.00    +0.000 C 
BRANCH  16  17
ATOM     17  C   UNL     1       2.705   5.890  18.520  0.00  0.00    +0.000 A 
ATOM     18  C   UNL     1       1.845   4.826  18.849  0.00  0.00    +0.000 A 
ATOM     19  C   UNL     1       2.021   3.567  18.278  0.00  0.00    +0.000 A 
ATOM     20 CL   UNL     1       0.954   2.284  18.696  0.00  0.00    +0.000 Cl
ATOM     21  C   UNL     1       3.054   3.340  17.375  0.00  0.00    +0.000 A 
ATOM     22  C   UNL     1       3.922   4.384  17.032  0.00  0.00    +0.000 A 
ATOM     23  C   UNL     1       3.760   5.648  17.621  0.00  0.00    +0.000 A 
ATOM     24  O   UNL     1       4.609   6.683  17.322  0.00  0.00    +0.000 OA
ATOM     25  C   UNL     1       5.737   6.312  16.522  0.00  0.00    +0.000 C 
ATOM     26  O   UNL     1       5.444   5.380  15.490  0.00  0.00    +0.000 OA
ATOM     27  C   UNL     1       5.043   4.147  16.068  0.00  0.00    +0.000 C 
ENDBRANCH  16  17
ENDBRANCH  15  16
ENDBRANCH   1  15
TORSDOF 6
ENDMDL
MODEL 8
REMARK VINA RESULT:      -7.6      4.421      8.447
REMARK  Name = 
REMARK  7 active torsions:
REMARK  status: ('A' for Active; 'I' for Inactive)
REMARK    1  A    between atoms: C_1  and  N_2
REMARK    2  A    between atoms: N_2  and  S_3
REMARK    3  A    between atoms: S_3  and  C_6
REMARK    4  A    between atoms: C_10  and  C_11
REMARK    5  A    between atoms: C_11  and  O_13
REMARK    6  A    between atoms: O_13  and  C_14
REMARK    7  A    between atoms: C_14  and  C_15
REMARK                            x       y       z     vdW  Elec       q    Type
REMARK                         _______ _______ _______ _____ _____    ______ ____
ROOT
ATOM      1  C   UNL     1       2.549   7.371  18.823  0.00  0.00    +0.000 C 
ATOM      2  O   UNL     1       1.950   7.224  19.877  0.00  0.00    +0.000 OA
ENDROOT
BRANCH   1   7
ATOM      3  C   UNL     1       5.221   5.282  17.065  0.00  0.00    +0.000 A 
ATOM      4  C   UNL     1       4.511   4.100  16.829  0.00  0.00    +0.000 A 
ATOM      5  C   UNL     1       3.196   3.985  17.273  0.00  0.00    +0.000 A 
ATOM      6  C   UNL     1       2.589   5.059  17.929  0.00  0.00    +0.000 A 
ATOM      7  C   UNL     1       3.290   6.255  18.163  0.00  0.00    +0.000 A 
ATOM      8  C   UNL     1       4.620   6.363  17.732  0.00  0.00    +0.000 A 
BRANCH   3   9
ATOM      9  S   UNL     1       6.838   5.463  16.344  0.00  0.00    +0.000 S 
ATOM     10  O   UNL     1       6.674   5.517  14.908  0.00  0.00    +0.000 OA
ATOM     11  O   UNL     1       7.723   4.507  16.971  0.00  0.00    +0.000 OA
BRANCH   9  13
ATOM     12  C   UNL     1       7.940   7.178  18.114  0.00  0.00    +0.000 C 
ATOM     13  N   UNL     1       7.306   7.012  16.809  0.00  0.00    +0.000 NA
ATOM     14  H   UNL     1       7.729   7.508  16.023  0.00  0.00    +0.000 HD
ENDBRANCH   9  13
ENDBRANCH   3   9
ENDBRANCH   1   7
BRANCH   1  15
ATOM     15  O   UNL     1       2.631   8.522  18.112  0.00  0.00    +0.000 OA
BRANCH  15  16
ATOM     16  C   UNL     1       1.391   9.229  17.895  0.00  0.00    +0.000 C 
BRANCH  16  17
ATOM     17  C   UNL     1       1.409  10.561  18.612  0.00  0.00    +0.000 A 
ATOM     18  C   UNL     1       2.202  11.596  18.085  0.00  0.00    +0.000 A 
ATOM     19  C   UNL     1       2.280  12.830  18.728  0.00  0.00    +0.000 A 
ATOM     20 CL   UNL     1       3.256  14.080  18.062  0.00  0.00    +0.000 Cl
ATOM     21  C   UNL     1       1.577  13.056  19.906  0.00  0.00    +0.000 A 
ATOM     22  C   UNL     1       0.780  12.041  20.450  0.00  0.00    +0.000 A 
ATOM     23  C   UNL     1       0.715  10.790  19.815  0.00  0.00    +0.000 A 
ATOM     24  O   UNL     1      -0.038   9.770  20.335  0.00  0.00    +0.000 OA
ATOM     25  C   UNL     1      -0.584  10.037  21.632  0.00  0.00    +0.000 C 
ATOM     26  O   UNL     1      -1.062  11.365  21.805  0.00  0.00    +0.000 OA
ATOM     27  C   UNL     1       0.027  12.272  21.722  0.00  0.00    +0.000 C 
ENDBRANCH  16  17
ENDBRANCH  15  16
ENDBRANCH   1  15
TORSDOF 6
ENDMDL
MODEL 9
REMARK VINA RESULT:      -7.5      1.019      1.232
REMARK  Name = 
REMARK  7 active torsions:
REMARK  status: ('A' for Active; 'I' for Inactive)
REMARK    1  A    between atoms: C_1  and  N_2
REMARK    2  A    between atoms: N_2  and  S_3
REMARK    3  A    between atoms: S_3  and  C_6
REMARK    4  A    between atoms: C_10  and  C_11
REMARK    5  A    between atoms: C_11  and  O_13
REMARK    6  A    between atoms: O_13  and  C_14
REMARK    7  A    between atoms: C_14  and  C_15
REMARK                            x       y       z     vdW  Elec       q    Type
REMARK                         _______ _______ _______ _____ _____    ______ ____
ROOT
ATOM      1  C   UNL     1       1.785   9.174  17.938  0.00  0.00    +0.000 C 
ATOM      2  O   UNL     1       2.763   9.742  17.480  0.00  0.00    +0.000 OA
ENDROOT
BRANCH   1   7
ATOM      3  C   UNL     1      -1.687  10.708  18.376  0.00  0.00    +0.000 A 
ATOM      4  C   UNL     1      -1.490  11.464  19.536  0.00  0.00    +0.000 A 
ATOM      5  C   UNL     1      -0.253  11.437  20.177  0.00  0.00    +0.000 A 
ATOM      6  C   UNL     1       0.788  10.674  19.642  0.00  0.00    +0.000 A 
ATOM      7  C   UNL     1       0.604   9.918  18.470  0.00  0.00    +0.000 A 
ATOM      8  C   UNL     1      -0.647   9.931  17.837  0.00  0.00    +0.000 A 
BRANCH   3   9
ATOM      9  S   UNL     1      -3.219  10.890  17.489  0.00  0.00    +0.000 S 
ATOM     10  O   UNL     1      -4.028   9.724  17.769  0.00  0.00    +0.000 OA
ATOM     11  O   UNL     1      -2.914  11.293  16.135  0.00  0.00    +0.000 OA
BRANCH   9  13
ATOM     12  C   UNL     1      -5.205  11.896  19.014  0.00  0.00    +0.000 C 
ATOM     13  N   UNL     1      -3.978  12.172  18.273  0.00  0.00    +0.000 NA
ATOM     14  H   UNL     1      -3.287  12.770  18.730  0.00  0.00    +0.000 HD
ENDBRANCH   9  13
ENDBRANCH   3   9
ENDBRANCH   1   7
BRANCH   1  15
ATOM     15  O   UNL     1       1.620   7.832  18.033  0.00  0.00    +0.000 OA
BRANCH  15  16
ATOM     16  C   UNL     1       2.532   7.136  18.909  0.00  0.00    +0.000 C 
BRANCH  16  17
ATOM     17  C   UNL     1       3.148   5.951  18.199  0.00  0.00    +0.000 A 
ATOM     18  C   UNL     1       4.222   6.179  17.319  0.00  0.00    +0.000 A 
ATOM     19  C   UNL     1       4.800   5.126  16.613  0.00  0.00    +0.000 A 
ATOM     20 CL   UNL     1       6.112   5.432  15.544  0.00  0.00    +0.000 Cl
ATOM     21  C   UNL     1       4.320   3.829  16.765  0.00  0.00    +0.000 A 
ATOM     22  C   UNL     1       3.253   3.577  17.635  0.00  0.00    +0.000 A 
ATOM     23  C   UNL     1       2.656   4.639  18.333  0.00  0.00    +0.000 A 
ATOM     24  O   UNL     1       1.595   4.427  19.174  0.00  0.00    +0.000 OA
ATOM     25  C   UNL     1       1.063   3.098  19.135  0.00  0.00    +0.000 C 
ATOM     26  O   UNL     1       2.047   2.075  19.041  0.00  0.00    +0.000 OA
ATOM     27  C   UNL     1       2.725   2.186  17.799  0.00  0.00    +0.000 C 
ENDBRANCH  16  17
ENDBRANCH  15  16
ENDBRANCH   1  15
TORSDOF 6
ENDMDL
