MODEL 1
REMARK VINA RESULT:      -7.3      0.000      0.000
REMARK  Name = 
REMARK  3 active torsions:
REMARK  status: ('A' for Active; 'I' for Inactive)
REMARK    1  A    between atoms: N_2  and  C_4
REMARK    2  A    between atoms: C_9  and  C_10
REMARK    3  A    between atoms: N_11  and  N_12
REMARK                            x       y       z     vdW  Elec       q    Type
REMARK                         _______ _______ _______ _____ _____    ______ ____
ROOT
ATOM      1  C   UNL     1       2.213   3.667  19.179  0.00  0.00    +0.000 A 
ATOM      2  C   UNL     1       1.036   3.565  19.939  0.00  0.00    +0.000 A 
ATOM      3  C   UNL     1       1.091   2.997  21.212  0.00  0.00    +0.000 A 
ATOM      4  C   UNL     1       2.303   2.525  21.714  0.00  0.00    +0.000 A 
ATOM      5  C   UNL     1       3.464   2.621  20.945  0.00  0.00    +0.000 A 
ATOM      6  C   UNL     1       3.433   3.199  19.665  0.00  0.00    +0.000 A 
ENDROOT
BRANCH   1   8
ATOM      7  O   UNL     1       2.068   3.449  16.906  0.00  0.00    +0.000 OA
ATOM      8  N   UNL     1       2.108   4.237  17.858  0.00  0.00    +0.000 N 
ATOM      9  O   UNL     1       2.046   5.471  17.780  0.00  0.00    +0.000 OA
ENDBRANCH   1   8
BRANCH   6  10
ATOM     10  C   UNL     1       4.703   3.267  18.908  0.00  0.00    +0.000 C 
ATOM     11  N   UNL     1       5.560   4.182  19.221  0.00  0.00    +0.000 NA
BRANCH  11  12
ATOM     12  N   UNL     1       6.673   4.285  18.445  0.00  0.00    +0.000 N 
ATOM     13  C   UNL     1       6.577   4.671  17.141  0.00  0.00    +0.000 A 
ATOM     14  N   UNL     1       7.425   4.275  16.214  0.00  0.00    +0.000 NA
ATOM     15  C   UNL     1       7.026   4.738  14.976  0.00  0.00    +0.000 A 
ATOM     16  C   UNL     1       5.902   5.532  14.967  0.00  0.00    +0.000 A 
ATOM     17  S   UNL     1       5.303   5.692  16.559  0.00  0.00    +0.000 S 
ATOM     18  H   UNL     1       7.454   3.655  18.617  0.00  0.00    +0.000 HD
ENDBRANCH  11  12
ENDBRANCH   6  10
TORSDOF 3
ENDMDL
MODEL 2
REMARK VINA RESULT:      -6.5      2.825      6.123
REMARK  Name = 
REMARK  3 active torsions:
REMARK  status: ('A' for Active; 'I' for Inactive)
REMARK    1  A    between atoms: N_2  and  C_4
REMARK    2  A    between atoms: C_9  and  C_10
REMARK    3  A    between atoms: N_11  and  N_12
REMARK                            x       y       z     vdW  Elec       q    Type
REMARK                         _______ _______ _______ _____ _____    ______ ____
ROOT
ATOM      1  C   UNL     1       6.878   5.102  16.967  0.00  0.00    +0.000 A 
ATOM      2  C   UNL     1       7.374   5.331  15.673  0.00  0.00    +0.000 A 
ATOM      3  C   UNL     1       6.620   4.925  14.571  0.00  0.00    +0.000 A 
ATOM      4  C   UNL     1       5.396   4.288  14.760  0.00  0.00    +0.000 A 
ATOM      5  C   UNL     1       4.919   4.055  16.051  0.00  0.00    +0.000 A 
ATOM      6  C   UNL     1       5.656   4.465  17.174  0.00  0.00    +0.000 A 
ENDROOT
BRANCH   1   8
ATOM      7  O   UNL     1       7.765   6.729  18.311  0.00  0.00    +0.000 OA
ATOM      8  N   UNL     1       7.699   5.515  18.080  0.00  0.00    +0.000 N 
ATOM      9  O   UNL     1       8.258   4.622  18.730  0.00  0.00    +0.000 OA
ENDBRANCH   1   8
BRANCH   6  10
ATOM     10  C   UNL     1       5.087   4.186  18.512  0.00  0.00    +0.000 C 
ATOM     11  N   UNL     1       5.180   2.986  18.985  0.00  0.00    +0.000 NA
BRANCH  11  12
ATOM     12  N   UNL     1       4.561   2.735  20.170  0.00  0.00    +0.000 N 
ATOM     13  C   UNL     1       3.201   2.730  20.256  0.00  0.00    +0.000 A 
ATOM     14  N   UNL     1       2.553   3.055  21.356  0.00  0.00    +0.000 NA
ATOM     15  C   UNL     1       1.192   3.058  21.122  0.00  0.00    +0.000 A 
ATOM     16  C   UNL     1       0.800   2.682  19.858  0.00  0.00    +0.000 A 
ATOM     17  S   UNL     1       2.180   2.333  18.913  0.00  0.00    +0.000 S 
ATOM     18  H   UNL     1       5.014   3.027  21.034  0.00  0.00    +0.000 HD
ENDBRANCH  11  12
ENDBRANCH   6  10
TORSDOF 3
ENDMDL
MODEL 3
REMARK VINA RESULT:      -6.5      2.133      2.569
REMARK  Name = 
REMARK  3 active torsions:
REMARK  status: ('A' for Active; 'I' for Inactive)
REMARK    1  A    between atoms: N_2  and  C_4
REMARK    2  A    between atoms: C_9  and  C_10
REMARK    3  A    between atoms: N_11  and  N_12
REMARK                            x       y       z     vdW  Elec       q    Type
REMARK                         _______ _______ _______ _____ _____    ______ ____
ROOT
ATOM      1  C   UNL     1       3.695   2.710  20.421  0.00  0.00    +0.000 A 
ATOM      2  C   UNL     1       2.612   2.656  21.314  0.00  0.00    +0.000 A 
ATOM      3  C   UNL     1       1.728   3.734  21.383  0.00  0.00    +0.000 A 
ATOM      4  C   UNL     1       1.930   4.855  20.580  0.00  0.00    +0.000 A 
ATOM      5  C   UNL     1       3.017   4.902  19.705  0.00  0.00    +0.000 A 
ATOM      6  C   UNL     1       3.913   3.824  19.612  0.00  0.00    +0.000 A 
ENDROOT
BRANCH   1   8
ATOM      7  O   UNL     1       5.381   1.474  21.351  0.00  0.00    +0.000 OA
ATOM      8  N   UNL     1       4.600   1.586  20.399  0.00  0.00    +0.000 N 
ATOM      9  O   UNL     1       4.511   0.810  19.439  0.00  0.00    +0.000 OA
ENDBRANCH   1   8
BRANCH   6  10
ATOM     10  C   UNL     1       5.041   3.945  18.661  0.00  0.00    +0.000 C 
ATOM     11  N   UNL     1       6.179   4.370  19.103  0.00  0.00    +0.000 NA
BRANCH  11  12
ATOM     12  N   UNL     1       7.167   4.566  18.189  0.00  0.00    +0.000 N 
ATOM     13  C   UNL     1       6.866   4.844  16.889  0.00  0.00    +0.000 A 
ATOM     14  N   UNL     1       7.648   4.502  15.886  0.00  0.00    +0.000 NA
ATOM     15  C   UNL     1       7.045   4.819  14.684  0.00  0.00    +0.000 A 
ATOM     16  C   UNL     1       5.827   5.453  14.773  0.00  0.00    +0.000 A 
ATOM     17  S   UNL     1       5.402   5.642  16.417  0.00  0.00    +0.000 S 
ATOM     18  H   UNL     1       8.044   4.061  18.295  0.00  0.00    +0.000 HD
ENDBRANCH  11  12
ENDBRANCH   6  10
TORSDOF 3
ENDMDL
MODEL 4
REMARK VINA RESULT:      -6.4      2.926      6.236
REMARK  Name = 
REMARK  3 active torsions:
REMARK  status: ('A' for Active; 'I' for Inactive)
REMARK    1  A    between atoms: N_2  and  C_4
REMARK    2  A    between atoms: C_9  and  C_10
REMARK    3  A    between atoms: N_11  and  N_12
REMARK                            x       y       z     vdW  Elec       q    Type
REMARK                         _______ _______ _______ _____ _____    ______ ____
ROOT
ATOM      1  C   UNL     1       6.739   5.783  16.375  0.00  0.00    +0.000 A 
ATOM      2  C   UNL     1       7.539   5.386  15.291  0.00  0.00    +0.000 A 
ATOM      3  C   UNL     1       7.024   4.490  14.353  0.00  0.00    +0.000 A 
ATOM      4  C   UNL     1       5.733   3.988  14.503  0.00  0.00    +0.000 A 
ATOM      5  C   UNL     1       4.951   4.380  15.592  0.00  0.00    +0.000 A 
ATOM      6  C   UNL     1       5.446   5.289  16.542  0.00  0.00    +0.000 A 
ENDROOT
BRANCH   1   8
ATOM      7  O   UNL     1       7.865   6.189  18.325  0.00  0.00    +0.000 OA
ATOM      8  N   UNL     1       7.318   6.691  17.335  0.00  0.00    +0.000 N 
ATOM      9  O   UNL     1       7.241   7.901  17.086  0.00  0.00    +0.000 OA
ENDBRANCH   1   8
BRANCH   6  10
ATOM     10  C   UNL     1       4.560   5.660  17.668  0.00  0.00    +0.000 C 
ATOM     11  N   UNL     1       4.811   5.172  18.838  0.00  0.00    +0.000 NA
BRANCH  11  12
ATOM     12  N   UNL     1       3.924   5.450  19.831  0.00  0.00    +0.000 N 
ATOM     13  C   UNL     1       2.975   4.540  20.189  0.00  0.00    +0.000 A 
ATOM     14  N   UNL     1       1.802   4.885  20.678  0.00  0.00    +0.000 NA
ATOM     15  C   UNL     1       1.011   3.766  20.853  0.00  0.00    +0.000 A 
ATOM     16  C   UNL     1       1.603   2.561  20.548  0.00  0.00    +0.000 A 
ATOM     17  S   UNL     1       3.198   2.831  19.999  0.00  0.00    +0.000 S 
ATOM     18  H   UNL     1       3.624   6.413  19.970  0.00  0.00    +0.000 HD
ENDBRANCH  11  12
ENDBRANCH   6  10
TORSDOF 3
ENDMDL
MODEL 5
REMARK VINA RESULT:      -6.4      2.737      5.647
REMARK  Name = 
REMARK  3 active torsions:
REMARK  status: ('A' for Active; 'I' for Inactive)
REMARK    1  A    between atoms: N_2  and  C_4
REMARK    2  A    between atoms: C_9  and  C_10
REMARK    3  A    between atoms: N_11  and  N_12
REMARK                            x       y       z     vdW  Elec       q    Type
REMARK                         _______ _______ _______ _____ _____    ______ ____
ROOT
ATOM      1  C   UNL     1       6.412   6.896  17.229  0.00  0.00    +0.000 A 
ATOM      2  C   UNL     1       7.075   8.133  17.203  0.00  0.00    +0.000 A 
ATOM      3  C   UNL     1       8.156   8.348  18.058  0.00  0.00    +0.000 A 
ATOM      4  C   UNL     1       8.561   7.345  18.936  0.00  0.00    +0.000 A 
ATOM      5  C   UNL     1       7.887   6.122  18.962  0.00  0.00    +0.000 A 
ATOM      6  C   UNL     1       6.802   5.881  18.102  0.00  0.00    +0.000 A 
ENDROOT
BRANCH   1   8
ATOM      7  O   UNL     1       4.163   6.969  16.812  0.00  0.00    +0.000 OA
ATOM      8  N   UNL     1       5.283   6.723  16.347  0.00  0.00    +0.000 N 
ATOM      9  O   UNL     1       5.523   6.362  15.188  0.00  0.00    +0.000 OA
ENDBRANCH   1   8
BRANCH   6  10
ATOM     10  C   UNL     1       6.137   4.562  18.185  0.00  0.00    +0.000 C 
ATOM     11  N   UNL     1       5.398   4.306  19.214  0.00  0.00    +0.000 NA
BRANCH  11  12
ATOM     12  N   UNL     1       4.881   3.051  19.312  0.00  0.00    +0.000 N 
ATOM     13  C   UNL     1       3.556   2.827  19.085  0.00  0.00    +0.000 A 
ATOM     14  N   UNL     1       2.885   1.856  19.669  0.00  0.00    +0.000 NA
ATOM     15  C   UNL     1       1.548   1.930  19.329  0.00  0.00    +0.000 A 
ATOM     16  C   UNL     1       1.210   2.926  18.442  0.00  0.00    +0.000 A 
ATOM     17  S   UNL     1       2.606   3.822  18.031  0.00  0.00    +0.000 S 
ATOM     18  H   UNL     1       5.285   2.403  19.985  0.00  0.00    +0.000 HD
ENDBRANCH  11  12
ENDBRANCH   6  10
TORSDOF 3
ENDMDL
MODEL 6
REMARK VINA RESULT:      -6.3      2.239      6.057
REMARK  Name = 
REMARK  3 active torsions:
REMARK  status: ('A' for Active; 'I' for Inactive)
REMARK    1  A    between atoms: N_2  and  C_4
REMARK    2  A    between atoms: C_9  and  C_10
REMARK    3  A    between atoms: N_11  and  N_12
REMARK                            x       y       z     vdW  Elec       q    Type
REMARK                         _______ _______ _______ _____ _____    ______ ____
ROOT
ATOM      1  C   UNL     1       5.885   4.767  17.093  0.00  0.00    +0.000 A 
ATOM      2  C   UNL     1       7.062   5.207  16.467  0.00  0.00    +0.000 A 
ATOM      3  C   UNL     1       7.229   4.995  15.098  0.00  0.00    +0.000 A 
ATOM      4  C   UNL     1       6.239   4.340  14.368  0.00  0.00    +0.000 A 
ATOM      5  C   UNL     1       5.078   3.897  15.003  0.00  0.00    +0.000 A 
ATOM      6  C   UNL     1       4.884   4.109  16.378  0.00  0.00    +0.000 A 
ENDROOT
BRANCH   1   8
ATOM      7  O   UNL     1       5.388   6.103  18.883  0.00  0.00    +0.000 OA
ATOM      8  N   UNL     1       5.762   4.983  18.515  0.00  0.00    +0.000 N 
ATOM      9  O   UNL     1       6.021   4.026  19.255  0.00  0.00    +0.000 OA
ENDBRANCH   1   8
BRANCH   6  10
ATOM     10  C   UNL     1       3.628   3.613  16.983  0.00  0.00    +0.000 C 
ATOM     11  N   UNL     1       2.718   4.470  17.308  0.00  0.00    +0.000 NA
BRANCH  11  12
ATOM     12  N   UNL     1       1.618   3.996  17.953  0.00  0.00    +0.000 N 
ATOM     13  C   UNL     1       1.646   3.762  19.295  0.00  0.00    +0.000 A 
ATOM     14  N   UNL     1       0.910   2.837  19.875  0.00  0.00    +0.000 NA
ATOM     15  C   UNL     1       1.219   2.758  21.220  0.00  0.00    +0.000 A 
ATOM     16  C   UNL     1       2.151   3.662  21.674  0.00  0.00    +0.000 A 
ATOM     17  S   UNL     1       2.684   4.634  20.375  0.00  0.00    +0.000 S 
ATOM     18  H   UNL     1       0.983   3.374  17.454  0.00  0.00    +0.000 HD
ENDBRANCH  11  12
ENDBRANCH   6  10
TORSDOF 3
ENDMDL
MODEL 7
REMARK VINA RESULT:      -6.3      1.629      1.871
REMARK  Name = 
REMARK  3 active torsions:
REMARK  status: ('A' for Active; 'I' for Inactive)
REMARK    1  A    between atoms: N_2  and  C_4
REMARK    2  A    between atoms: C_9  and  C_10
REMARK    3  A    between atoms: N_11  and  N_12
REMARK                            x       y       z     vdW  Elec       q    Type
REMARK                         _______ _______ _______ _____ _____    ______ ____
ROOT
ATOM      1  C   UNL     1       2.534   3.058  19.099  0.00  0.00    +0.000 A 
ATOM      2  C   UNL     1       1.836   2.392  20.120  0.00  0.00    +0.000 A 
ATOM      3  C   UNL     1       1.571   3.061  21.315  0.00  0.00    +0.000 A 
ATOM      4  C   UNL     1       2.007   4.373  21.492  0.00  0.00    +0.000 A 
ATOM      5  C   UNL     1       2.710   5.020  20.474  0.00  0.00    +0.000 A 
ATOM      6  C   UNL     1       2.979   4.369  19.259  0.00  0.00    +0.000 A 
ENDROOT
BRANCH   1   8
ATOM      7  O   UNL     1       3.697   1.461  17.943  0.00  0.00    +0.000 OA
ATOM      8  N   UNL     1       2.810   2.322  17.888  0.00  0.00    +0.000 N 
ATOM      9  O   UNL     1       2.126   2.594  16.894  0.00  0.00    +0.000 OA
ENDBRANCH   1   8
BRANCH   6  10
ATOM     10  C   UNL     1       3.728   5.119  18.226  0.00  0.00    +0.000 C 
ATOM     11  N   UNL     1       5.019   5.096  18.260  0.00  0.00    +0.000 NA
BRANCH  11  12
ATOM     12  N   UNL     1       5.680   5.874  17.360  0.00  0.00    +0.000 N 
ATOM     13  C   UNL     1       6.082   5.362  16.163  0.00  0.00    +0.000 A 
ATOM     14  N   UNL     1       7.143   5.801  15.518  0.00  0.00    +0.000 NA
ATOM     15  C   UNL     1       7.366   5.034  14.391  0.00  0.00    +0.000 A 
ATOM     16  C   UNL     1       6.442   4.044  14.148  0.00  0.00    +0.000 A 
ATOM     17  S   UNL     1       5.260   4.050  15.382  0.00  0.00    +0.000 S 
ATOM     18  H   UNL     1       6.290   6.614  17.702  0.00  0.00    +0.000 HD
ENDBRANCH  11  12
ENDBRANCH   6  10
TORSDOF 3
ENDMDL
MODEL 8
REMARK VINA RESULT:      -6.2      4.098      5.409
REMARK  Name = 
REMARK  3 active torsions:
REMARK  status: ('A' for Active; 'I' for Inactive)
REMARK    1  A    between atoms: N_2  and  C_4
REMARK    2  A    between atoms: C_9  and  C_10
REMARK    3  A    between atoms: N_11  and  N_12
REMARK                            x       y       z     vdW  Elec       q    Type
REMARK                         _______ _______ _______ _____ _____    ______ ____
ROOT
ATOM      1  C   UNL     1       3.643   3.765  19.654  0.00  0.00    +0.000 A 
ATOM      2  C   UNL     1       3.606   2.603  20.443  0.00  0.00    +0.000 A 
ATOM      3  C   UNL     1       2.535   2.403  21.315  0.00  0.00    +0.000 A 
ATOM      4  C   UNL     1       1.522   3.355  21.406  0.00  0.00    +0.000 A 
ATOM      5  C   UNL     1       1.575   4.512  20.625  0.00  0.00    +0.000 A 
ATOM      6  C   UNL     1       2.639   4.729  19.734  0.00  0.00    +0.000 A 
ENDROOT
BRANCH   1   8
ATOM      7  O   UNL     1       4.637   3.631  17.597  0.00  0.00    +0.000 OA
ATOM      8  N   UNL     1       4.780   3.946  18.785  0.00  0.00    +0.000 N 
ATOM      9  O   UNL     1       5.806   4.422  19.289  0.00  0.00    +0.000 OA
ENDBRANCH   1   8
BRANCH   6  10
ATOM     10  C   UNL     1       2.628   5.977  18.938  0.00  0.00    +0.000 C 
ATOM     11  N   UNL     1       2.346   7.088  19.535  0.00  0.00    +0.000 NA
BRANCH  11  12
ATOM     12  N   UNL     1       2.245   8.202  18.761  0.00  0.00    +0.000 N 
ATOM     13  C   UNL     1       1.305   9.151  19.029  0.00  0.00    +0.000 A 
ATOM     14  N   UNL     1       0.769   9.910  18.096  0.00  0.00    +0.000 NA
ATOM     15  C   UNL     1      -0.220  10.706  18.640  0.00  0.00    +0.000 A 
ATOM     16  C   UNL     1      -0.401  10.591  19.999  0.00  0.00    +0.000 A 
ATOM     17  S   UNL     1       0.687   9.431  20.624  0.00  0.00    +0.000 S 
ATOM     18  H   UNL     1       2.474   8.137  17.771  0.00  0.00    +0.000 HD
ENDBRANCH  11  12
ENDBRANCH   6  10
TORSDOF 3
ENDMDL
MODEL 9
REMARK VINA RESULT:      -6.2      3.999      6.222
REMARK  Name = 
REMARK  3 active torsions:
REMARK  status: ('A' for Active; 'I' for Inactive)
REMARK    1  A    between atoms: N_2  and  C_4
REMARK    2  A    between atoms: C_9  and  C_10
REMARK    3  A    between atoms: N_11  and  N_12
REMARK                            x       y       z     vdW  Elec       q    Type
REMARK                         _______ _______ _______ _____ _____    ______ ____
ROOT
ATOM      1  C   UNL     1       3.837   4.358  17.345  0.00  0.00    +0.000 A 
ATOM      2  C   UNL     1       4.791   4.114  16.344  0.00  0.00    +0.000 A 
ATOM      3  C   UNL     1       5.460   5.191  15.760  0.00  0.00    +0.000 A 
ATOM      4  C   UNL     1       5.171   6.493  16.162  0.00  0.00    +0.000 A 
ATOM      5  C   UNL     1       4.212   6.724  17.150  0.00  0.00    +0.000 A 
ATOM      6  C   UNL     1       3.534   5.654  17.759  0.00  0.00    +0.000 A 
ENDROOT
BRANCH   1   8
ATOM      7  O   UNL     1       2.270   2.696  17.211  0.00  0.00    +0.000 OA
ATOM      8  N   UNL     1       3.149   3.220  17.905  0.00  0.00    +0.000 N 
ATOM      9  O   UNL     1       3.506   2.842  19.029  0.00  0.00    +0.000 OA
ENDBRANCH   1   8
BRANCH   6  10
ATOM     10  C   UNL     1       2.532   5.976  18.799  0.00  0.00    +0.000 C 
ATOM     11  N   UNL     1       2.797   6.918  19.643  0.00  0.00    +0.000 NA
BRANCH  11  12
ATOM     12  N   UNL     1       1.904   7.124  20.648  0.00  0.00    +0.000 N 
ATOM     13  C   UNL     1       1.311   8.340  20.813  0.00  0.00    +0.000 A 
ATOM     14  N   UNL     1       0.920   8.791  21.986  0.00  0.00    +0.000 NA
ATOM     15  C   UNL     1       0.449  10.085  21.866  0.00  0.00    +0.000 A 
ATOM     16  C   UNL     1       0.433  10.600  20.590  0.00  0.00    +0.000 A 
ATOM     17  S   UNL     1       1.048   9.438  19.498  0.00  0.00    +0.000 S 
ATOM     18  H   UNL     1       2.020   6.616  21.523  0.00  0.00    +0.000 HD
ENDBRANCH  11  12
ENDBRANCH   6  10
TORSDOF 3
ENDMDL
