MODEL 1
REMARK VINA RESULT:      -8.5      0.000      0.000
REMARK  Name = 
REMARK  7 active torsions:
REMARK  status: ('A' for Active; 'I' for Inactive)
REMARK    1  A    between atoms: C_1  and  C_2
REMARK    2  A    between atoms: C_9  and  O_10
REMARK    3  A    between atoms: O_10  and  C_11
REMARK    4  A    between atoms: C_11  and  C_12
REMARK    5  A    between atoms: N_14  and  N_15
REMARK    6  A    between atoms: C_16  and  C_17
REMARK    7  A    between atoms: C_20  and  N_21
REMARK                            x       y       z     vdW  Elec       q    Type
REMARK                         _______ _______ _______ _____ _____    ______ ____
ROOT
ATOM      1  C   UNL     1       1.686   4.098  20.745  0.00  0.00    +0.000 C 
ATOM      2  O   UNL     1       0.590   3.948  20.202  0.00  0.00    +0.000 OA
ATOM      3  N   UNL     1       2.242   5.331  21.077  0.00  0.00    +0.000 N 
ATOM      4  H   UNL     1       3.170   5.399  21.477  0.00  0.00    +0.000 HD
ENDROOT
BRANCH   3   5
ATOM      5  N   UNL     1       1.537   6.466  20.795  0.00  0.00    +0.000 NA
ATOM      6  C   UNL     1       2.105   7.352  20.042  0.00  0.00    +0.000 C 
BRANCH   6   7
ATOM      7  C   UNL     1       1.391   8.601  19.686  0.00  0.00    +0.000 A 
ATOM      8  C   UNL     1       1.556   9.169  18.414  0.00  0.00    +0.000 A 
ATOM      9  C   UNL     1       0.887  10.348  18.073  0.00  0.00    +0.000 A 
ATOM     10  C   UNL     1       0.047  10.960  19.013  0.00  0.00    +0.000 A 
ATOM     11  C   UNL     1      -0.122  10.398  20.288  0.00  0.00    +0.000 A 
ATOM     12  C   UNL     1       0.552   9.216  20.622  0.00  0.00    +0.000 A 
BRANCH  10  13
ATOM     13  N   UNL     1      -0.657  12.199  18.658  0.00  0.00    +0.000 N 
ATOM     14  O   UNL     1      -0.233  13.262  19.131  0.00  0.00    +0.000 OA
ATOM     15  O   UNL     1      -1.637  12.106  17.903  0.00  0.00    +0.000 OA
ENDBRANCH  10  13
ENDBRANCH   6   7
ENDBRANCH   3   5
BRANCH   1  16
ATOM     16  C   UNL     1       2.551   2.901  21.133  0.00  0.00    +0.000 C 
BRANCH  16  17
ATOM     17  O   UNL     1       3.058   2.273  19.960  0.00  0.00    +0.000 OA
BRANCH  17  26
ATOM     18  C   UNL     1       5.919   5.241  14.829  0.00  0.00    +0.000 C 
ATOM     19  C   UNL     1       6.157   5.316  16.309  0.00  0.00    +0.000 A 
ATOM     20  C   UNL     1       7.103   6.118  16.820  0.00  0.00    +0.000 A 
ATOM     21  C   UNL     1       7.383   6.233  18.261  0.00  0.00    +0.000 A 
ATOM     22  O   UNL     1       8.250   6.994  18.673  0.00  0.00    +0.000 OA
ATOM     23  O   UNL     1       6.619   5.450  19.109  0.00  0.00    +0.000 OA
ATOM     24  C   UNL     1       5.611   4.597  18.608  0.00  0.00    +0.000 A 
ATOM     25  C   UNL     1       4.893   3.869  19.565  0.00  0.00    +0.000 A 
ATOM     26  C   UNL     1       3.871   3.021  19.150  0.00  0.00    +0.000 A 
ATOM     27  C   UNL     1       3.604   2.907  17.783  0.00  0.00    +0.000 A 
ATOM     28  C   UNL     1       4.335   3.640  16.835  0.00  0.00    +0.000 A 
ATOM     29  C   UNL     1       5.355   4.506  17.238  0.00  0.00    +0.000 A 
ENDBRANCH  17  26
ENDBRANCH  16  17
ENDBRANCH   1  16
TORSDOF 6
ENDMDL
MODEL 2
REMARK VINA RESULT:      -8.5      4.648      7.320
REMARK  Name = 
REMARK  7 active torsions:
REMARK  status: ('A' for Active; 'I' for Inactive)
REMARK    1  A    between atoms: C_1  and  C_2
REMARK    2  A    between atoms: C_9  and  O_10
REMARK    3  A    between atoms: O_10  and  C_11
REMARK    4  A    between atoms: C_11  and  C_12
REMARK    5  A    between atoms: N_14  and  N_15
REMARK    6  A    between atoms: C_16  and  C_17
REMARK    7  A    between atoms: C_20  and  N_21
REMARK                            x       y       z     vdW  Elec       q    Type
REMARK                         _______ _______ _______ _____ _____    ______ ____
ROOT
ATOM      1  C   UNL     1       7.464   5.788  17.420  0.00  0.00    +0.000 C 
ATOM      2  O   UNL     1       7.780   5.384  18.540  0.00  0.00    +0.000 OA
ATOM      3  N   UNL     1       7.561   7.113  17.001  0.00  0.00    +0.000 N 
ATOM      4  H   UNL     1       7.239   7.399  16.083  0.00  0.00    +0.000 HD
ENDROOT
BRANCH   3   5
ATOM      5  N   UNL     1       8.043   8.043  17.875  0.00  0.00    +0.000 NA
ATOM      6  C   UNL     1       8.244   9.240  17.425  0.00  0.00    +0.000 C 
BRANCH   6   7
ATOM      7  C   UNL     1       8.753  10.303  18.323  0.00  0.00    +0.000 A 
ATOM      8  C   UNL     1       9.183   9.985  19.618  0.00  0.00    +0.000 A 
ATOM      9  C   UNL     1       9.662  10.985  20.471  0.00  0.00    +0.000 A 
ATOM     10  C   UNL     1       9.709  12.310  20.020  0.00  0.00    +0.000 A 
ATOM     11  C   UNL     1       9.279  12.637  18.724  0.00  0.00    +0.000 A 
ATOM     12  C   UNL     1       8.800  11.629  17.876  0.00  0.00    +0.000 A 
BRANCH  10  13
ATOM     13  N   UNL     1      10.212  13.363  20.912  0.00  0.00    +0.000 N 
ATOM     14  O   UNL     1      11.087  14.123  20.475  0.00  0.00    +0.000 OA
ATOM     15  O   UNL     1       9.730  13.428  22.053  0.00  0.00    +0.000 OA
ENDBRANCH  10  13
ENDBRANCH   6   7
ENDBRANCH   3   5
BRANCH   1  16
ATOM     16  C   UNL     1       6.939   4.833  16.349  0.00  0.00    +0.000 C 
BRANCH  16  17
ATOM     17  O   UNL     1       5.626   5.221  15.961  0.00  0.00    +0.000 OA
BRANCH  17  26
ATOM     18  C   UNL     1       0.953   2.908  19.977  0.00  0.00    +0.000 C 
ATOM     19  C   UNL     1       1.558   4.269  19.800  0.00  0.00    +0.000 A 
ATOM     20  C   UNL     1       1.168   5.306  20.557  0.00  0.00    +0.000 A 
ATOM     21  C   UNL     1       1.724   6.663  20.430  0.00  0.00    +0.000 A 
ATOM     22  O   UNL     1       1.340   7.570  21.159  0.00  0.00    +0.000 OA
ATOM     23  O   UNL     1       2.693   6.851  19.460  0.00  0.00    +0.000 OA
ATOM     24  C   UNL     1       3.133   5.782  18.648  0.00  0.00    +0.000 A 
ATOM     25  C   UNL     1       4.132   6.092  17.715  0.00  0.00    +0.000 A 
ATOM     26  C   UNL     1       4.630   5.088  16.892  0.00  0.00    +0.000 A 
ATOM     27  C   UNL     1       4.103   3.798  17.008  0.00  0.00    +0.000 A 
ATOM     28  C   UNL     1       3.099   3.503  17.944  0.00  0.00    +0.000 A 
ATOM     29  C   UNL     1       2.600   4.500  18.788  0.00  0.00    +0.000 A 
ENDBRANCH  17  26
ENDBRANCH  16  17
ENDBRANCH   1  16
TORSDOF 6
ENDMDL
MODEL 3
REMARK VINA RESULT:      -8.5      4.903      7.442
REMARK  Name = 
REMARK  7 active torsions:
REMARK  status: ('A' for Active; 'I' for Inactive)
REMARK    1  A    between atoms: C_1  and  C_2
REMARK    2  A    between atoms: C_9  and  O_10
REMARK    3  A    between atoms: O_10  and  C_11
REMARK    4  A    between atoms: C_11  and  C_12
REMARK    5  A    between atoms: N_14  and  N_15
REMARK    6  A    between atoms: C_16  and  C_17
REMARK    7  A    between atoms: C_20  and  N_21
REMARK                            x       y       z     vdW  Elec       q    Type
REMARK                         _______ _______ _______ _____ _____    ______ ____
ROOT
ATOM      1  C   UNL     1       7.448   6.411  17.473  0.00  0.00    +0.000 C 
ATOM      2  O   UNL     1       7.760   6.024  18.601  0.00  0.00    +0.000 OA
ATOM      3  N   UNL     1       7.476   7.740  17.057  0.00  0.00    +0.000 N 
ATOM      4  H   UNL     1       7.161   8.008  16.132  0.00  0.00    +0.000 HD
ENDROOT
BRANCH   3   5
ATOM      5  N   UNL     1       7.879   8.697  17.943  0.00  0.00    +0.000 NA
ATOM      6  C   UNL     1       8.552   9.699  17.477  0.00  0.00    +0.000 C 
BRANCH   6   7
ATOM      7  C   UNL     1       9.009  10.781  18.381  0.00  0.00    +0.000 A 
ATOM      8  C   UNL     1       9.041  12.108  17.933  0.00  0.00    +0.000 A 
ATOM      9  C   UNL     1       9.473  13.133  18.780  0.00  0.00    +0.000 A 
ATOM     10  C   UNL     1       9.875  12.822  20.086  0.00  0.00    +0.000 A 
ATOM     11  C   UNL     1       9.847  11.495  20.543  0.00  0.00    +0.000 A 
ATOM     12  C   UNL     1       9.412  10.474  19.686  0.00  0.00    +0.000 A 
BRANCH  10  13
ATOM     13  N   UNL     1      10.329  13.895  20.980  0.00  0.00    +0.000 N 
ATOM     14  O   UNL     1      11.192  14.676  20.555  0.00  0.00    +0.000 OA
ATOM     15  O   UNL     1       9.822  13.956  22.110  0.00  0.00    +0.000 OA
ENDBRANCH  10  13
ENDBRANCH   6   7
ENDBRANCH   3   5
BRANCH   1  16
ATOM     16  C   UNL     1       7.009   5.428  16.389  0.00  0.00    +0.000 C 
BRANCH  16  17
ATOM     17  O   UNL     1       5.670   5.713  15.997  0.00  0.00    +0.000 OA
BRANCH  17  26
ATOM     18  C   UNL     1       1.150   2.944  19.898  0.00  0.00    +0.000 C 
ATOM     19  C   UNL     1       1.664   4.348  19.776  0.00  0.00    +0.000 A 
ATOM     20  C   UNL     1       1.203   5.327  20.568  0.00  0.00    +0.000 A 
ATOM     21  C   UNL     1       1.666   6.723  20.494  0.00  0.00    +0.000 A 
ATOM     22  O   UNL     1       1.220   7.574  21.254  0.00  0.00    +0.000 OA
ATOM     23  O   UNL     1       2.624   7.011  19.537  0.00  0.00    +0.000 OA
ATOM     24  C   UNL     1       3.137   6.005  18.689  0.00  0.00    +0.000 A 
ATOM     25  C   UNL     1       4.116   6.416  17.774  0.00  0.00    +0.000 A 
ATOM     26  C   UNL     1       4.683   5.478  16.917  0.00  0.00    +0.000 A 
ATOM     27  C   UNL     1       4.243   4.153  16.982  0.00  0.00    +0.000 A 
ATOM     28  C   UNL     1       3.258   3.757  17.901  0.00  0.00    +0.000 A 
ATOM     29  C   UNL     1       2.690   4.686  18.778  0.00  0.00    +0.000 A 
ENDBRANCH  17  26
ENDBRANCH  16  17
ENDBRANCH   1  16
TORSDOF 6
ENDMDL
MODEL 4
REMARK VINA RESULT:      -8.3      0.405      1.003
REMARK  Name = 
REMARK  7 active torsions:
REMARK  status: ('A' for Active; 'I' for Inactive)
REMARK    1  A    between atoms: C_1  and  C_2
REMARK    2  A    between atoms: C_9  and  O_10
REMARK    3  A    between atoms: O_10  and  C_11
REMARK    4  A    between atoms: C_11  and  C_12
REMARK    5  A    between atoms: N_14  and  N_15
REMARK    6  A    between atoms: C_16  and  C_17
REMARK    7  A    between atoms: C_20  and  N_21
REMARK                            x       y       z     vdW  Elec       q    Type
REMARK                         _______ _______ _______ _____ _____    ______ ____
ROOT
ATOM      1  C   UNL     1       1.687   4.149  20.704  0.00  0.00    +0.000 C 
ATOM      2  O   UNL     1       0.667   3.882  20.067  0.00  0.00    +0.000 OA
ATOM      3  N   UNL     1       2.102   5.440  21.026  0.00  0.00    +0.000 N 
ATOM      4  H   UNL     1       2.977   5.605  21.509  0.00  0.00    +0.000 HD
ENDROOT
BRANCH   3   5
ATOM      5  N   UNL     1       1.338   6.495  20.621  0.00  0.00    +0.000 NA
ATOM      6  C   UNL     1       1.872   7.673  20.662  0.00  0.00    +0.000 C 
BRANCH   6   7
ATOM      7  C   UNL     1       1.103   8.861  20.224  0.00  0.00    +0.000 A 
ATOM      8  C   UNL     1       0.188   9.469  21.095  0.00  0.00    +0.000 A 
ATOM      9  C   UNL     1      -0.542  10.589  20.687  0.00  0.00    +0.000 A 
ATOM     10  C   UNL     1      -0.352  11.102  19.396  0.00  0.00    +0.000 A 
ATOM     11  C   UNL     1       0.561  10.498  18.518  0.00  0.00    +0.000 A 
ATOM     12  C   UNL     1       1.290   9.376  18.936  0.00  0.00    +0.000 A 
BRANCH  10  13
ATOM     13  N   UNL     1      -1.117  12.279  18.964  0.00  0.00    +0.000 N 
ATOM     14  O   UNL     1      -1.052  13.300  19.662  0.00  0.00    +0.000 OA
ATOM     15  O   UNL     1      -1.784  12.179  17.923  0.00  0.00    +0.000 OA
ENDBRANCH  10  13
ENDBRANCH   6   7
ENDBRANCH   3   5
BRANCH   1  16
ATOM     16  C   UNL     1       2.605   3.050  21.233  0.00  0.00    +0.000 C 
BRANCH  16  17
ATOM     17  O   UNL     1       3.193   2.349  20.143  0.00  0.00    +0.000 OA
BRANCH  17  26
ATOM     18  C   UNL     1       5.955   5.069  14.824  0.00  0.00    +0.000 C 
ATOM     19  C   UNL     1       6.187   5.251  16.295  0.00  0.00    +0.000 A 
ATOM     20  C   UNL     1       7.102   6.119  16.751  0.00  0.00    +0.000 A 
ATOM     21  C   UNL     1       7.376   6.340  18.181  0.00  0.00    +0.000 A 
ATOM     22  O   UNL     1       8.214   7.158  18.540  0.00  0.00    +0.000 OA
ATOM     23  O   UNL     1       6.639   5.588  19.079  0.00  0.00    +0.000 OA
ATOM     24  C   UNL     1       5.664   4.667  18.637  0.00  0.00    +0.000 A 
ATOM     25  C   UNL     1       4.970   3.979  19.642  0.00  0.00    +0.000 A 
ATOM     26  C   UNL     1       3.980   3.069  19.284  0.00  0.00    +0.000 A 
ATOM     27  C   UNL     1       3.720   2.855  17.928  0.00  0.00    +0.000 A 
ATOM     28  C   UNL     1       4.426   3.549  16.932  0.00  0.00    +0.000 A 
ATOM     29  C   UNL     1       5.413   4.476  17.277  0.00  0.00    +0.000 A 
ENDBRANCH  17  26
ENDBRANCH  16  17
ENDBRANCH   1  16
TORSDOF 6
ENDMDL
MODEL 5
REMARK VINA RESULT:      -8.3      4.371      7.149
REMARK  Name = 
REMARK  7 active torsions:
REMARK  status: ('A' for Active; 'I' for Inactive)
REMARK    1  A    between atoms: C_1  and  C_2
REMARK    2  A    between atoms: C_9  and  O_10
REMARK    3  A    between atoms: O_10  and  C_11
REMARK    4  A    between atoms: C_11  and  C_12
REMARK    5  A    between atoms: N_14  and  N_15
REMARK    6  A    between atoms: C_16  and  C_17
REMARK    7  A    between atoms: C_20  and  N_21
REMARK                            x       y       z     vdW  Elec       q    Type
REMARK                         _______ _______ _______ _____ _____    ______ ____
ROOT
ATOM      1  C   UNL     1       7.316   5.122  17.036  0.00  0.00    +0.000 C 
ATOM      2  O   UNL     1       7.850   4.791  18.096  0.00  0.00    +0.000 OA
ATOM      3  N   UNL     1       7.377   6.400  16.485  0.00  0.00    +0.000 N 
ATOM      4  H   UNL     1       6.877   6.630  15.634  0.00  0.00    +0.000 HD
ENDROOT
BRANCH   3   5
ATOM      5  N   UNL     1       8.078   7.367  17.146  0.00  0.00    +0.000 NA
ATOM      6  C   UNL     1       7.521   8.528  17.275  0.00  0.00    +0.000 C 
BRANCH   6   7
ATOM      7  C   UNL     1       8.219   9.619  17.993  0.00  0.00    +0.000 A 
ATOM      8  C   UNL     1       8.156  10.934  17.512  0.00  0.00    +0.000 A 
ATOM      9  C   UNL     1       8.815  11.967  18.184  0.00  0.00    +0.000 A 
ATOM     10  C   UNL     1       9.542  11.678  19.347  0.00  0.00    +0.000 A 
ATOM     11  C   UNL     1       9.611  10.364  19.835  0.00  0.00    +0.000 A 
ATOM     12  C   UNL     1       8.947   9.334  19.155  0.00  0.00    +0.000 A 
BRANCH  10  13
ATOM     13  N   UNL     1      10.235  12.761  20.057  0.00  0.00    +0.000 N 
ATOM     14  O   UNL     1      10.448  13.814  19.440  0.00  0.00    +0.000 OA
ATOM     15  O   UNL     1      10.567  12.556  21.234  0.00  0.00    +0.000 OA
ENDBRANCH  10  13
ENDBRANCH   6   7
ENDBRANCH   3   5
BRANCH   1  16
ATOM     16  C   UNL     1       6.530   4.118  16.195  0.00  0.00    +0.000 C 
BRANCH  16  17
ATOM     17  O   UNL     1       5.231   4.632  15.922  0.00  0.00    +0.000 OA
BRANCH  17  26
ATOM     18  C   UNL     1       1.143   3.345  20.916  0.00  0.00    +0.000 C 
ATOM     19  C   UNL     1       1.682   4.624  20.348  0.00  0.00    +0.000 A 
ATOM     20  C   UNL     1       1.353   5.812  20.878  0.00  0.00    +0.000 A 
ATOM     21  C   UNL     1       1.848   7.100  20.364  0.00  0.00    +0.000 A 
ATOM     22  O   UNL     1       1.526   8.154  20.898  0.00  0.00    +0.000 OA
ATOM     23  O   UNL     1       2.689   7.050  19.266  0.00  0.00    +0.000 OA
ATOM     24  C   UNL     1       3.061   5.819  18.683  0.00  0.00    +0.000 A 
ATOM     25  C   UNL     1       3.932   5.897  17.588  0.00  0.00    +0.000 A 
ATOM     26  C   UNL     1       4.359   4.725  16.973  0.00  0.00    +0.000 A 
ATOM     27  C   UNL     1       3.889   3.500  17.456  0.00  0.00    +0.000 A 
ATOM     28  C   UNL     1       3.013   3.438  18.552  0.00  0.00    +0.000 A 
ATOM     29  C   UNL     1       2.587   4.607  19.189  0.00  0.00    +0.000 A 
ENDBRANCH  17  26
ENDBRANCH  16  17
ENDBRANCH   1  16
TORSDOF 6
ENDMDL
MODEL 6
REMARK VINA RESULT:      -8.1      4.345      6.954
REMARK  Name = 
REMARK  7 active torsions:
REMARK  status: ('A' for Active; 'I' for Inactive)
REMARK    1  A    between atoms: C_1  and  C_2
REMARK    2  A    between atoms: C_9  and  O_10
REMARK    3  A    between atoms: O_10  and  C_11
REMARK    4  A    between atoms: C_11  and  C_12
REMARK    5  A    between atoms: N_14  and  N_15
REMARK    6  A    between atoms: C_16  and  C_17
REMARK    7  A    between atoms: C_20  and  N_21
REMARK                            x       y       z     vdW  Elec       q    Type
REMARK                         _______ _______ _______ _____ _____    ______ ____
ROOT
ATOM      1  C   UNL     1       6.507   5.678  15.902  0.00  0.00    +0.000 C 
ATOM      2  O   UNL     1       5.840   6.450  15.211  0.00  0.00    +0.000 OA
ATOM      3  N   UNL     1       7.540   6.069  16.750  0.00  0.00    +0.000 N 
ATOM      4  H   UNL     1       8.090   5.387  17.259  0.00  0.00    +0.000 HD
ENDROOT
BRANCH   3   5
ATOM      5  N   UNL     1       7.848   7.396  16.842  0.00  0.00    +0.000 NA
ATOM      6  C   UNL     1       8.042   7.886  18.024  0.00  0.00    +0.000 C 
BRANCH   6   7
ATOM      7  C   UNL     1       8.393   9.315  18.195  0.00  0.00    +0.000 A 
ATOM      8  C   UNL     1       7.792  10.290  17.386  0.00  0.00    +0.000 A 
ATOM      9  C   UNL     1       8.121  11.640  17.541  0.00  0.00    +0.000 A 
ATOM     10  C   UNL     1       9.058  12.013  18.514  0.00  0.00    +0.000 A 
ATOM     11  C   UNL     1       9.665  11.043  19.327  0.00  0.00    +0.000 A 
ATOM     12  C   UNL     1       9.330   9.691  19.165  0.00  0.00    +0.000 A 
BRANCH  10  13
ATOM     13  N   UNL     1       9.407  13.431  18.680  0.00  0.00    +0.000 N 
ATOM     14  O   UNL     1      10.593  13.714  18.894  0.00  0.00    +0.000 OA
ATOM     15  O   UNL     1       8.489  14.261  18.597  0.00  0.00    +0.000 OA
ENDBRANCH  10  13
ENDBRANCH   6   7
ENDBRANCH   3   5
BRANCH   1  16
ATOM     16  C   UNL     1       6.235   4.176  15.904  0.00  0.00    +0.000 C 
BRANCH  16  17
ATOM     17  O   UNL     1       4.835   3.940  15.794  0.00  0.00    +0.000 OA
BRANCH  17  26
ATOM     18  C   UNL     1       1.489   2.810  21.348  0.00  0.00    +0.000 C 
ATOM     19  C   UNL     1       1.843   4.069  20.613  0.00  0.00    +0.000 A 
ATOM     20  C   UNL     1       1.475   5.272  21.080  0.00  0.00    +0.000 A 
ATOM     21  C   UNL     1       1.791   6.541  20.403  0.00  0.00    +0.000 A 
ATOM     22  O   UNL     1       1.442   7.612  20.883  0.00  0.00    +0.000 OA
ATOM     23  O   UNL     1       2.498   6.455  19.216  0.00  0.00    +0.000 OA
ATOM     24  C   UNL     1       2.907   5.207  18.696  0.00  0.00    +0.000 A 
ATOM     25  C   UNL     1       3.634   5.250  17.499  0.00  0.00    +0.000 A 
ATOM     26  C   UNL     1       4.087   4.062  16.934  0.00  0.00    +0.000 A 
ATOM     27  C   UNL     1       3.786   2.855  17.573  0.00  0.00    +0.000 A 
ATOM     28  C   UNL     1       3.054   2.827  18.770  0.00  0.00    +0.000 A 
ATOM     29  C   UNL     1       2.604   4.014  19.356  0.00  0.00    +0.000 A 
ENDBRANCH  17  26
ENDBRANCH  16  17
ENDBRANCH   1  16
TORSDOF 6
ENDMDL
MODEL 7
REMARK VINA RESULT:      -8.1      5.405      7.673
REMARK  Name = 
REMARK  7 active torsions:
REMARK  status: ('A' for Active; 'I' for Inactive)
REMARK    1  A    between atoms: C_1  and  C_2
REMARK    2  A    between atoms: C_9  and  O_10
REMARK    3  A    between atoms: O_10  and  C_11
REMARK    4  A    between atoms: C_11  and  C_12
REMARK    5  A    between atoms: N_14  and  N_15
REMARK    6  A    between atoms: C_16  and  C_17
REMARK    7  A    between atoms: C_20  and  N_21
REMARK                            x       y       z     vdW  Elec       q    Type
REMARK                         _______ _______ _______ _____ _____    ______ ____
ROOT
ATOM      1  C   UNL     1       7.948   7.269  18.136  0.00  0.00    +0.000 C 
ATOM      2  O   UNL     1       7.421   7.558  17.061  0.00  0.00    +0.000 OA
ATOM      3  N   UNL     1       8.644   8.167  18.943  0.00  0.00    +0.000 N 
ATOM      4  H   UNL     1       9.100   7.863  19.795  0.00  0.00    +0.000 HD
ENDROOT
BRANCH   3   5
ATOM      5  N   UNL     1       8.757   9.464  18.534  0.00  0.00    +0.000 NA
ATOM      6  C   UNL     1       9.485  10.257  19.253  0.00  0.00    +0.000 C 
BRANCH   6   7
ATOM      7  C   UNL     1       9.662  11.675  18.859  0.00  0.00    +0.000 A 
ATOM      8  C   UNL     1      10.647  12.459  19.475  0.00  0.00    +0.000 A 
ATOM      9  C   UNL     1      10.817  13.798  19.109  0.00  0.00    +0.000 A 
ATOM     10  C   UNL     1       9.995  14.351  18.119  0.00  0.00    +0.000 A 
ATOM     11  C   UNL     1       9.006  13.573  17.498  0.00  0.00    +0.000 A 
ATOM     12  C   UNL     1       8.842  12.231  17.871  0.00  0.00    +0.000 A 
BRANCH  10  13
ATOM     13  N   UNL     1      10.171  15.757  17.732  0.00  0.00    +0.000 N 
ATOM     14  O   UNL     1      10.916  16.004  16.773  0.00  0.00    +0.000 OA
ATOM     15  O   UNL     1       9.563  16.615  18.389  0.00  0.00    +0.000 OA
ENDBRANCH  10  13
ENDBRANCH   6   7
ENDBRANCH   3   5
BRANCH   1  16
ATOM     16  C   UNL     1       7.862   5.856  18.709  0.00  0.00    +0.000 C 
BRANCH  16  17
ATOM     17  O   UNL     1       7.177   5.007  17.794  0.00  0.00    +0.000 OA
BRANCH  17  26
ATOM     18  C   UNL     1       0.705   3.833  17.561  0.00  0.00    +0.000 C 
ATOM     19  C   UNL     1       1.735   3.642  18.635  0.00  0.00    +0.000 A 
ATOM     20  C   UNL     1       1.404   3.125  19.828  0.00  0.00    +0.000 A 
ATOM     21  C   UNL     1       2.369   2.916  20.921  0.00  0.00    +0.000 A 
ATOM     22  O   UNL     1       2.014   2.426  21.986  0.00  0.00    +0.000 OA
ATOM     23  O   UNL     1       3.679   3.290  20.676  0.00  0.00    +0.000 OA
ATOM     24  C   UNL     1       4.065   3.832  19.431  0.00  0.00    +0.000 A 
ATOM     25  C   UNL     1       5.422   4.155  19.297  0.00  0.00    +0.000 A 
ATOM     26  C   UNL     1       5.882   4.677  18.092  0.00  0.00    +0.000 A 
ATOM     27  C   UNL     1       4.969   4.880  17.053  0.00  0.00    +0.000 A 
ATOM     28  C   UNL     1       3.611   4.555  17.203  0.00  0.00    +0.000 A 
ATOM     29  C   UNL     1       3.137   4.018  18.404  0.00  0.00    +0.000 A 
ENDBRANCH  17  26
ENDBRANCH  16  17
ENDBRANCH   1  16
TORSDOF 6
ENDMDL
MODEL 8
REMARK VINA RESULT:      -8.0      5.162      7.482
REMARK  Name = 
REMARK  7 active torsions:
REMARK  status: ('A' for Active; 'I' for Inactive)
REMARK    1  A    between atoms: C_1  and  C_2
REMARK    2  A    between atoms: C_9  and  O_10
REMARK    3  A    between atoms: O_10  and  C_11
REMARK    4  A    between atoms: C_11  and  C_12
REMARK    5  A    between atoms: N_14  and  N_15
REMARK    6  A    between atoms: C_16  and  C_17
REMARK    7  A    between atoms: C_20  and  N_21
REMARK                            x       y       z     vdW  Elec       q    Type
REMARK                         _______ _______ _______ _____ _____    ______ ____
ROOT
ATOM      1  C   UNL     1       7.519   7.022  17.628  0.00  0.00    +0.000 C 
ATOM      2  O   UNL     1       6.915   7.537  16.687  0.00  0.00    +0.000 OA
ATOM      3  N   UNL     1       8.303   7.723  18.543  0.00  0.00    +0.000 N 
ATOM      4  H   UNL     1       8.819   7.242  19.270  0.00  0.00    +0.000 HD
ENDROOT
BRANCH   3   5
ATOM      5  N   UNL     1       8.418   9.076  18.407  0.00  0.00    +0.000 NA
ATOM      6  C   UNL     1       9.322   9.674  19.114  0.00  0.00    +0.000 C 
BRANCH   6   7
ATOM      7  C   UNL     1       9.510  11.140  19.006  0.00  0.00    +0.000 A 
ATOM      8  C   UNL     1       9.431  11.771  17.756  0.00  0.00    +0.000 A 
ATOM      9  C   UNL     1       9.610  13.153  17.647  0.00  0.00    +0.000 A 
ATOM     10  C   UNL     1       9.870  13.906  18.800  0.00  0.00    +0.000 A 
ATOM     11  C   UNL     1       9.952  13.282  20.054  0.00  0.00    +0.000 A 
ATOM     12  C   UNL     1       9.772  11.896  20.155  0.00  0.00    +0.000 A 
BRANCH  10  13
ATOM     13  N   UNL     1      10.059  15.359  18.690  0.00  0.00    +0.000 N 
ATOM     14  O   UNL     1       9.480  16.081  19.513  0.00  0.00    +0.000 OA
ATOM     15  O   UNL     1      10.787  15.776  17.777  0.00  0.00    +0.000 OA
ENDBRANCH  10  13
ENDBRANCH   6   7
ENDBRANCH   3   5
BRANCH   1  16
ATOM     16  C   UNL     1       7.442   5.521  17.897  0.00  0.00    +0.000 C 
BRANCH  16  17
ATOM     17  O   UNL     1       6.481   4.927  17.030  0.00  0.00    +0.000 OA
BRANCH  17  26
ATOM     18  C   UNL     1       0.535   2.321  18.115  0.00  0.00    +0.000 C 
ATOM     19  C   UNL     1       1.606   2.828  19.036  0.00  0.00    +0.000 A 
ATOM     20  C   UNL     1       1.452   2.788  20.368  0.00  0.00    +0.000 A 
ATOM     21  C   UNL     1       2.465   3.271  21.321  0.00  0.00    +0.000 A 
ATOM     22  O   UNL     1       2.277   3.196  22.529  0.00  0.00    +0.000 OA
ATOM     23  O   UNL     1       3.625   3.800  20.782  0.00  0.00    +0.000 OA
ATOM     24  C   UNL     1       3.825   3.854  19.385  0.00  0.00    +0.000 A 
ATOM     25  C   UNL     1       5.047   4.393  18.961  0.00  0.00    +0.000 A 
ATOM     26  C   UNL     1       5.325   4.463  17.599  0.00  0.00    +0.000 A 
ATOM     27  C   UNL     1       4.364   4.008  16.692  0.00  0.00    +0.000 A 
ATOM     28  C   UNL     1       3.143   3.474  17.131  0.00  0.00    +0.000 A 
ATOM     29  C   UNL     1       2.856   3.385  18.496  0.00  0.00    +0.000 A 
ENDBRANCH  17  26
ENDBRANCH  16  17
ENDBRANCH   1  16
TORSDOF 6
ENDMDL
MODEL 9
REMARK VINA RESULT:      -7.9      3.035      9.513
REMARK  Name = 
REMARK  7 active torsions:
REMARK  status: ('A' for Active; 'I' for Inactive)
REMARK    1  A    between atoms: C_1  and  C_2
REMARK    2  A    between atoms: C_9  and  O_10
REMARK    3  A    between atoms: O_10  and  C_11
REMARK    4  A    between atoms: C_11  and  C_12
REMARK    5  A    between atoms: N_14  and  N_15
REMARK    6  A    between atoms: C_16  and  C_17
REMARK    7  A    between atoms: C_20  and  N_21
REMARK                            x       y       z     vdW  Elec       q    Type
REMARK                         _______ _______ _______ _____ _____    ______ ____
ROOT
ATOM      1  C   UNL     1       1.003   9.762  21.801  0.00  0.00    +0.000 C 
ATOM      2  O   UNL     1       1.400   9.391  22.906  0.00  0.00    +0.000 OA
ATOM      3  N   UNL     1       1.042   8.985  20.645  0.00  0.00    +0.000 N 
ATOM      4  H   UNL     1       0.747   9.359  19.751  0.00  0.00    +0.000 HD
ENDROOT
BRANCH   3   5
ATOM      5  N   UNL     1       1.548   7.720  20.722  0.00  0.00    +0.000 NA
ATOM      6  C   UNL     1       2.101   7.230  19.659  0.00  0.00    +0.000 C 
BRANCH   6   7
ATOM      7  C   UNL     1       2.683   5.868  19.676  0.00  0.00    +0.000 A 
ATOM      8  C   UNL     1       1.939   4.790  20.177  0.00  0.00    +0.000 A 
ATOM      9  C   UNL     1       2.484   3.502  20.198  0.00  0.00    +0.000 A 
ATOM     10  C   UNL     1       3.782   3.296  19.713  0.00  0.00    +0.000 A 
ATOM     11  C   UNL     1       4.534   4.370  19.212  0.00  0.00    +0.000 A 
ATOM     12  C   UNL     1       3.980   5.658  19.194  0.00  0.00    +0.000 A 
BRANCH  10  13
ATOM     13  N   UNL     1       4.358   1.945  19.734  0.00  0.00    +0.000 N 
ATOM     14  O   UNL     1       3.936   1.124  18.908  0.00  0.00    +0.000 OA
ATOM     15  O   UNL     1       5.234   1.706  20.578  0.00  0.00    +0.000 OA
ENDBRANCH  10  13
ENDBRANCH   6   7
ENDBRANCH   3   5
BRANCH   1  16
ATOM     16  C   UNL     1       0.391  11.146  21.600  0.00  0.00    +0.000 C 
BRANCH  16  17
ATOM     17  O   UNL     1       0.485  11.519  20.229  0.00  0.00    +0.000 OA
BRANCH  17  26
ATOM     18  C   UNL     1      -5.676  12.281  18.041  0.00  0.00    +0.000 C 
ATOM     19  C   UNL     1      -4.443  11.689  17.423  0.00  0.00    +0.000 A 
ATOM     20  C   UNL     1      -4.463  11.192  16.177  0.00  0.00    +0.000 A 
ATOM     21  C   UNL     1      -3.288  10.597  15.518  0.00  0.00    +0.000 A 
ATOM     22  O   UNL     1      -3.359  10.172  14.372  0.00  0.00    +0.000 OA
ATOM     23  O   UNL     1      -2.116  10.554  16.254  0.00  0.00    +0.000 OA
ATOM     24  C   UNL     1      -2.057  11.072  17.567  0.00  0.00    +0.000 A 
ATOM     25  C   UNL     1      -0.810  10.988  18.203  0.00  0.00    +0.000 A 
ATOM     26  C   UNL     1      -0.668  11.494  19.491  0.00  0.00    +0.000 A 
ATOM     27  C   UNL     1      -1.782  12.056  20.121  0.00  0.00    +0.000 A 
ATOM     28  C   UNL     1      -3.025  12.130  19.473  0.00  0.00    +0.000 A 
ATOM     29  C   UNL     1      -3.179  11.638  18.173  0.00  0.00    +0.000 A 
ENDBRANCH  17  26
ENDBRANCH  16  17
ENDBRANCH   1  16
TORSDOF 6
ENDMDL
