MODEL 1
REMARK VINA RESULT:      -8.3      0.000      0.000
REMARK  Name = 
REMARK  3 active torsions:
REMARK  status: ('A' for Active; 'I' for Inactive)
REMARK    1  A    between atoms: C_1  and  C_2
REMARK    2  A    between atoms: N_10  and  C_11
REMARK    3  A    between atoms: C_11  and  C_12
REMARK                            x       y       z     vdW  Elec       q    Type
REMARK                         _______ _______ _______ _____ _____    ______ ____
ROOT
ATOM      1  C   UNL     1       5.862   3.634  16.189  0.00  0.00    +0.000 C 
ATOM      2  C   UNL     1       5.250   4.380  17.370  0.00  0.00    +0.000 C 
ATOM      3  C   UNL     1       4.368   3.468  18.232  0.00  0.00    +0.000 C 
ATOM      4  C   UNL     1       3.872   4.224  19.470  0.00  0.00    +0.000 C 
ATOM      5  C   UNL     1       3.298   5.581  19.147  0.00  0.00    +0.000 A 
ATOM      6  N   UNL     1       2.524   6.161  20.106  0.00  0.00    +0.000 NA
ATOM      7  C   UNL     1       2.037   7.398  19.859  0.00  0.00    +0.000 A 
ATOM      8  N   UNL     1       1.220   7.938  20.861  0.00  0.00    +0.000 NA
ATOM      9  C   UNL     1       0.746   9.120  20.661  0.00  0.00    +0.000 A 
ATOM     10  N   UNL     1       0.982   9.892  19.548  0.00  0.00    +0.000 N 
ATOM     11  C   UNL     1       1.743   9.409  18.501  0.00  0.00    +0.000 A 
ATOM     12  O   UNL     1       1.944  10.007  17.449  0.00  0.00    +0.000 OA
ATOM     13  C   UNL     1       2.310   8.075  18.692  0.00  0.00    +0.000 A 
ATOM     14  C   UNL     1       3.093   7.484  17.709  0.00  0.00    +0.000 A 
ATOM     15  C   UNL     1       3.612   6.216  17.940  0.00  0.00    +0.000 A 
ATOM     16  C   UNL     1       4.416   5.556  16.859  0.00  0.00    +0.000 C 
ENDROOT
BRANCH  10  17
ATOM     17  C   UNL     1       0.357  11.191  19.389  0.00  0.00    +0.000 C 
BRANCH  17  18
ATOM     18  C   UNL     1      -1.093  11.122  18.956  0.00  0.00    +0.000 A 
ATOM     19  C   UNL     1      -2.059  11.955  19.544  0.00  0.00    +0.000 A 
ATOM     20  C   UNL     1      -3.364  11.995  19.043  0.00  0.00    +0.000 A 
ATOM     21  C   UNL     1      -3.714  11.190  17.963  0.00  0.00    +0.000 A 
ATOM     22 CL   UNL     1      -5.294  11.296  17.290  0.00  0.00    +0.000 Cl
ATOM     23  C   UNL     1      -2.782  10.315  17.407  0.00  0.00    +0.000 A 
ATOM     24  C   UNL     1      -1.478  10.274  17.908  0.00  0.00    +0.000 A 
ENDBRANCH  17  18
ENDBRANCH  10  17
TORSDOF 2
ENDMDL
MODEL 2
REMARK VINA RESULT:      -8.2      0.460      1.085
REMARK  Name = 
REMARK  3 active torsions:
REMARK  status: ('A' for Active; 'I' for Inactive)
REMARK    1  A    between atoms: C_1  and  C_2
REMARK    2  A    between atoms: N_10  and  C_11
REMARK    3  A    between atoms: C_11  and  C_12
REMARK                            x       y       z     vdW  Elec       q    Type
REMARK                         _______ _______ _______ _____ _____    ______ ____
ROOT
ATOM      1  C   UNL     1       6.153   4.030  15.557  0.00  0.00    +0.000 C 
ATOM      2  C   UNL     1       5.510   4.641  16.798  0.00  0.00    +0.000 C 
ATOM      3  C   UNL     1       4.611   3.638  17.534  0.00  0.00    +0.000 C 
ATOM      4  C   UNL     1       4.084   4.251  18.835  0.00  0.00    +0.000 C 
ATOM      5  C   UNL     1       3.513   5.636  18.651  0.00  0.00    +0.000 A 
ATOM      6  N   UNL     1       2.714   6.105  19.649  0.00  0.00    +0.000 NA
ATOM      7  C   UNL     1       2.229   7.362  19.529  0.00  0.00    +0.000 A 
ATOM      8  N   UNL     1       1.387   7.787  20.564  0.00  0.00    +0.000 NA
ATOM      9  C   UNL     1       0.914   8.983  20.486  0.00  0.00    +0.000 A 
ATOM     10  N   UNL     1       1.173   9.874  19.471  0.00  0.00    +0.000 N 
ATOM     11  C   UNL     1       1.960   9.510  18.395  0.00  0.00    +0.000 A 
ATOM     12  O   UNL     1       2.183  10.221  17.420  0.00  0.00    +0.000 OA
ATOM     13  C   UNL     1       2.527   8.164  18.450  0.00  0.00    +0.000 A 
ATOM     14  C   UNL     1       3.335   7.686  17.427  0.00  0.00    +0.000 A 
ATOM     15  C   UNL     1       3.853   6.401  17.529  0.00  0.00    +0.000 A 
ATOM     16  C   UNL     1       4.684   5.865  16.401  0.00  0.00    +0.000 C 
ENDROOT
BRANCH  10  17
ATOM     17  C   UNL     1       0.547  11.182  19.441  0.00  0.00    +0.000 C 
BRANCH  17  18
ATOM     18  C   UNL     1      -0.866  11.170  18.894  0.00  0.00    +0.000 A 
ATOM     19  C   UNL     1      -1.269  10.197  17.965  0.00  0.00    +0.000 A 
ATOM     20  C   UNL     1      -2.607  10.097  17.574  0.00  0.00    +0.000 A 
ATOM     21  C   UNL     1      -3.547  10.980  18.098  0.00  0.00    +0.000 A 
ATOM     22 CL   UNL     1      -5.209  10.809  17.685  0.00  0.00    +0.000 Cl
ATOM     23  C   UNL     1      -3.153  11.987  18.977  0.00  0.00    +0.000 A 
ATOM     24  C   UNL     1      -1.814  12.089  19.366  0.00  0.00    +0.000 A 
ENDBRANCH  17  18
ENDBRANCH  10  17
TORSDOF 2
ENDMDL
MODEL 3
REMARK VINA RESULT:      -7.8      1.307      1.803
REMARK  Name = 
REMARK  3 active torsions:
REMARK  status: ('A' for Active; 'I' for Inactive)
REMARK    1  A    between atoms: C_1  and  C_2
REMARK    2  A    between atoms: N_10  and  C_11
REMARK    3  A    between atoms: C_11  and  C_12
REMARK                            x       y       z     vdW  Elec       q    Type
REMARK                         _______ _______ _______ _____ _____    ______ ____
ROOT
ATOM      1  C   UNL     1       3.800   1.721  17.770  0.00  0.00    +0.000 C 
ATOM      2  C   UNL     1       3.554   2.876  18.735  0.00  0.00    +0.000 C 
ATOM      3  C   UNL     1       2.552   2.504  19.836  0.00  0.00    +0.000 C 
ATOM      4  C   UNL     1       2.426   3.647  20.848  0.00  0.00    +0.000 C 
ATOM      5  C   UNL     1       2.221   4.995  20.201  0.00  0.00    +0.000 A 
ATOM      6  N   UNL     1       1.749   5.991  21.000  0.00  0.00    +0.000 NA
ATOM      7  C   UNL     1       1.603   7.219  20.455  0.00  0.00    +0.000 A 
ATOM      8  N   UNL     1       1.083   8.202  21.308  0.00  0.00    +0.000 NA
ATOM      9  C   UNL     1       0.939   9.387  20.822  0.00  0.00    +0.000 A 
ATOM     10  N   UNL     1       1.258   9.763  19.538  0.00  0.00    +0.000 N 
ATOM     11  C   UNL     1       1.734   8.838  18.629  0.00  0.00    +0.000 A 
ATOM     12  O   UNL     1       1.977   9.078  17.450  0.00  0.00    +0.000 OA
ATOM     13  C   UNL     1       1.924   7.483  19.142  0.00  0.00    +0.000 A 
ATOM     14  C   UNL     1       2.398   6.468  18.322  0.00  0.00    +0.000 A 
ATOM     15  C   UNL     1       2.565   5.197  18.860  0.00  0.00    +0.000 A 
ATOM     16  C   UNL     1       3.030   4.089  17.962  0.00  0.00    +0.000 C 
ENDROOT
BRANCH  10  17
ATOM     17  C   UNL     1       1.006  11.111  19.066  0.00  0.00    +0.000 C 
BRANCH  17  18
ATOM     18  C   UNL     1      -0.466  11.449  18.939  0.00  0.00    +0.000 A 
ATOM     19  C   UNL     1      -1.286  10.758  18.032  0.00  0.00    +0.000 A 
ATOM     20  C   UNL     1      -2.668  10.967  18.020  0.00  0.00    +0.000 A 
ATOM     21  C   UNL     1      -3.235  11.881  18.904  0.00  0.00    +0.000 A 
ATOM     22 CL   UNL     1      -4.943  12.082  18.951  0.00  0.00    +0.000 Cl
ATOM     23  C   UNL     1      -2.427  12.616  19.769  0.00  0.00    +0.000 A 
ATOM     24  C   UNL     1      -1.045  12.409  19.780  0.00  0.00    +0.000 A 
ENDBRANCH  17  18
ENDBRANCH  10  17
TORSDOF 2
ENDMDL
MODEL 4
REMARK VINA RESULT:      -7.7      3.638      8.359
REMARK  Name = 
REMARK  3 active torsions:
REMARK  status: ('A' for Active; 'I' for Inactive)
REMARK    1  A    between atoms: C_1  and  C_2
REMARK    2  A    between atoms: N_10  and  C_11
REMARK    3  A    between atoms: C_11  and  C_12
REMARK                            x       y       z     vdW  Elec       q    Type
REMARK                         _______ _______ _______ _____ _____    ______ ____
ROOT
ATOM      1  C   UNL     1      -1.814  11.509  23.086  0.00  0.00    +0.000 C 
ATOM      2  C   UNL     1      -0.748  11.248  22.027  0.00  0.00    +0.000 C 
ATOM      3  C   UNL     1      -1.189  11.724  20.637  0.00  0.00    +0.000 C 
ATOM      4  C   UNL     1      -0.046  11.556  19.630  0.00  0.00    +0.000 C 
ATOM      5  C   UNL     1       0.598  10.192  19.685  0.00  0.00    +0.000 A 
ATOM      6  N   UNL     1       1.358   9.832  18.614  0.00  0.00    +0.000 NA
ATOM      7  C   UNL     1       1.984   8.635  18.661  0.00  0.00    +0.000 A 
ATOM      8  N   UNL     1       2.728   8.296  17.522  0.00  0.00    +0.000 NA
ATOM      9  C   UNL     1       3.345   7.164  17.537  0.00  0.00    +0.000 A 
ATOM     10  N   UNL     1       3.335   6.268  18.581  0.00  0.00    +0.000 N 
ATOM     11  C   UNL     1       2.590   6.516  19.717  0.00  0.00    +0.000 A 
ATOM     12  O   UNL     1       2.475   5.740  20.661  0.00  0.00    +0.000 OA
ATOM     13  C   UNL     1       1.883   7.795  19.747  0.00  0.00    +0.000 A 
ATOM     14  C   UNL     1       1.102   8.155  20.837  0.00  0.00    +0.000 A 
ATOM     15  C   UNL     1       0.454   9.384  20.818  0.00  0.00    +0.000 A 
ATOM     16  C   UNL     1      -0.430   9.752  21.973  0.00  0.00    +0.000 C 
ENDROOT
BRANCH  10  17
ATOM     17  C   UNL     1       4.016   4.992  18.481  0.00  0.00    +0.000 C 
BRANCH  17  18
ATOM     18  C   UNL     1       4.989   4.907  17.323  0.00  0.00    +0.000 A 
ATOM     19  C   UNL     1       4.654   4.205  16.153  0.00  0.00    +0.000 A 
ATOM     20  C   UNL     1       5.487   4.251  15.032  0.00  0.00    +0.000 A 
ATOM     21  C   UNL     1       6.669   4.984  15.080  0.00  0.00    +0.000 A 
ATOM     22 CL   UNL     1       7.658   5.112  13.678  0.00  0.00    +0.000 Cl
ATOM     23  C   UNL     1       7.044   5.638  16.253  0.00  0.00    +0.000 A 
ATOM     24  C   UNL     1       6.211   5.591  17.374  0.00  0.00    +0.000 A 
ENDBRANCH  17  18
ENDBRANCH  10  17
TORSDOF 2
ENDMDL
MODEL 5
REMARK VINA RESULT:      -7.6      3.834      8.420
REMARK  Name = 
REMARK  3 active torsions:
REMARK  status: ('A' for Active; 'I' for Inactive)
REMARK    1  A    between atoms: C_1  and  C_2
REMARK    2  A    between atoms: N_10  and  C_11
REMARK    3  A    between atoms: C_11  and  C_12
REMARK                            x       y       z     vdW  Elec       q    Type
REMARK                         _______ _______ _______ _____ _____    ______ ____
ROOT
ATOM      1  C   UNL     1      -1.129  10.221  23.131  0.00  0.00    +0.000 C 
ATOM      2  C   UNL     1      -0.106  10.129  22.002  0.00  0.00    +0.000 C 
ATOM      3  C   UNL     1      -0.667  10.653  20.673  0.00  0.00    +0.000 C 
ATOM      4  C   UNL     1       0.427  10.655  19.600  0.00  0.00    +0.000 C 
ATOM      5  C   UNL     1       1.190   9.356  19.526  0.00  0.00    +0.000 A 
ATOM      6  N   UNL     1       1.916   9.138  18.395  0.00  0.00    +0.000 NA
ATOM      7  C   UNL     1       2.647   8.002  18.325  0.00  0.00    +0.000 A 
ATOM      8  N   UNL     1       3.351   7.808  17.129  0.00  0.00    +0.000 NA
ATOM      9  C   UNL     1       4.065   6.739  17.033  0.00  0.00    +0.000 A 
ATOM     10  N   UNL     1       4.194   5.780  18.010  0.00  0.00    +0.000 N 
ATOM     11  C   UNL     1       3.495   5.883  19.198  0.00  0.00    +0.000 A 
ATOM     12  O   UNL     1       3.504   5.039  20.089  0.00  0.00    +0.000 OA
ATOM     13  C   UNL     1       2.682   7.087  19.353  0.00  0.00    +0.000 A 
ATOM     14  C   UNL     1       1.937   7.302  20.505  0.00  0.00    +0.000 A 
ATOM     15  C   UNL     1       1.183   8.465  20.605  0.00  0.00    +0.000 A 
ATOM     16  C   UNL     1       0.338   8.675  21.827  0.00  0.00    +0.000 C 
ENDROOT
BRANCH  10  17
ATOM     17  C   UNL     1       4.977   4.580  17.786  0.00  0.00    +0.000 C 
BRANCH  17  18
ATOM     18  C   UNL     1       5.681   4.551  16.445  0.00  0.00    +0.000 A 
ATOM     19  C   UNL     1       5.074   3.953  15.328  0.00  0.00    +0.000 A 
ATOM     20  C   UNL     1       5.657   4.056  14.062  0.00  0.00    +0.000 A 
ATOM     21  C   UNL     1       6.857   4.743  13.908  0.00  0.00    +0.000 A 
ATOM     22 CL   UNL     1       7.536   4.945  12.340  0.00  0.00    +0.000 Cl
ATOM     23  C   UNL     1       7.501   5.291  15.016  0.00  0.00    +0.000 A 
ATOM     24  C   UNL     1       6.920   5.187  16.283  0.00  0.00    +0.000 A 
ENDBRANCH  17  18
ENDBRANCH  10  17
TORSDOF 2
ENDMDL
MODEL 6
REMARK VINA RESULT:      -7.5      1.710      2.624
REMARK  Name = 
REMARK  3 active torsions:
REMARK  status: ('A' for Active; 'I' for Inactive)
REMARK    1  A    between atoms: C_1  and  C_2
REMARK    2  A    between atoms: N_10  and  C_11
REMARK    3  A    between atoms: C_11  and  C_12
REMARK                            x       y       z     vdW  Elec       q    Type
REMARK                         _______ _______ _______ _____ _____    ______ ____
ROOT
ATOM      1  C   UNL     1       2.835   2.402  21.413  0.00  0.00    +0.000 C 
ATOM      2  C   UNL     1       2.579   3.491  20.375  0.00  0.00    +0.000 C 
ATOM      3  C   UNL     1       3.784   3.696  19.447  0.00  0.00    +0.000 C 
ATOM      4  C   UNL     1       3.443   4.709  18.349  0.00  0.00    +0.000 C 
ATOM      5  C   UNL     1       2.798   5.966  18.879  0.00  0.00    +0.000 A 
ATOM      6  N   UNL     1       2.789   7.045  18.048  0.00  0.00    +0.000 NA
ATOM      7  C   UNL     1       2.175   8.168  18.482  0.00  0.00    +0.000 A 
ATOM      8  N   UNL     1       2.221   9.260  17.606  0.00  0.00    +0.000 NA
ATOM      9  C   UNL     1       1.637  10.346  17.985  0.00  0.00    +0.000 A 
ATOM     10  N   UNL     1       0.972  10.514  19.176  0.00  0.00    +0.000 N 
ATOM     11  C   UNL     1       0.922   9.495  20.108  0.00  0.00    +0.000 A 
ATOM     12  O   UNL     1       0.408   9.588  21.218  0.00  0.00    +0.000 OA
ATOM     13  C   UNL     1       1.562   8.242  19.713  0.00  0.00    +0.000 A 
ATOM     14  C   UNL     1       1.576   7.146  20.566  0.00  0.00    +0.000 A 
ATOM     15  C   UNL     1       2.194   5.976  20.141  0.00  0.00    +0.000 A 
ATOM     16  C   UNL     1       2.253   4.809  21.081  0.00  0.00    +0.000 C 
ENDROOT
BRANCH  10  17
ATOM     17  C   UNL     1       0.394  11.794  19.539  0.00  0.00    +0.000 C 
BRANCH  17  18
ATOM     18  C   UNL     1      -1.116  11.838  19.425  0.00  0.00    +0.000 A 
ATOM     19  C   UNL     1      -1.893  12.471  20.410  0.00  0.00    +0.000 A 
ATOM     20  C   UNL     1      -3.269  12.639  20.231  0.00  0.00    +0.000 A 
ATOM     21  C   UNL     1      -3.878  12.161  19.074  0.00  0.00    +0.000 A 
ATOM     22 CL   UNL     1      -5.556  12.438  18.810  0.00  0.00    +0.000 Cl
ATOM     23  C   UNL     1      -3.130  11.479  18.116  0.00  0.00    +0.000 A 
ATOM     24  C   UNL     1      -1.755  11.309  18.295  0.00  0.00    +0.000 A 
ENDBRANCH  17  18
ENDBRANCH  10  17
TORSDOF 2
ENDMDL
MODEL 7
REMARK VINA RESULT:      -7.4      1.484      2.655
REMARK  Name = 
REMARK  3 active torsions:
REMARK  status: ('A' for Active; 'I' for Inactive)
REMARK    1  A    between atoms: C_1  and  C_2
REMARK    2  A    between atoms: N_10  and  C_11
REMARK    3  A    between atoms: C_11  and  C_12
REMARK                            x       y       z     vdW  Elec       q    Type
REMARK                         _______ _______ _______ _____ _____    ______ ____
ROOT
ATOM      1  C   UNL     1       3.235   1.894  21.400  0.00  0.00    +0.000 C 
ATOM      2  C   UNL     1       2.991   2.967  20.344  0.00  0.00    +0.000 C 
ATOM      3  C   UNL     1       4.238   3.227  19.488  0.00  0.00    +0.000 C 
ATOM      4  C   UNL     1       3.915   4.220  18.366  0.00  0.00    +0.000 C 
ATOM      5  C   UNL     1       3.181   5.446  18.850  0.00  0.00    +0.000 A 
ATOM      6  N   UNL     1       3.171   6.521  18.015  0.00  0.00    +0.000 NA
ATOM      7  C   UNL     1       2.479   7.615  18.405  0.00  0.00    +0.000 A 
ATOM      8  N   UNL     1       2.526   8.706  17.527  0.00  0.00    +0.000 NA
ATOM      9  C   UNL     1       1.870   9.763  17.865  0.00  0.00    +0.000 A 
ATOM     10  N   UNL     1       1.127   9.903  19.014  0.00  0.00    +0.000 N 
ATOM     11  C   UNL     1       1.071   8.885  19.947  0.00  0.00    +0.000 A 
ATOM     12  O   UNL     1       0.487   8.956  21.024  0.00  0.00    +0.000 OA
ATOM     13  C   UNL     1       1.791   7.663  19.597  0.00  0.00    +0.000 A 
ATOM     14  C   UNL     1       1.806   6.571  20.455  0.00  0.00    +0.000 A 
ATOM     15  C   UNL     1       2.503   5.431  20.074  0.00  0.00    +0.000 A 
ATOM     16  C   UNL     1       2.561   4.269  21.022  0.00  0.00    +0.000 C 
ENDROOT
BRANCH  10  17
ATOM     17  C   UNL     1       0.469  11.155  19.336  0.00  0.00    +0.000 C 
BRANCH  17  18
ATOM     18  C   UNL     1      -0.963  11.235  18.848  0.00  0.00    +0.000 A 
ATOM     19  C   UNL     1      -1.449  10.326  17.894  0.00  0.00    +0.000 A 
ATOM     20  C   UNL     1      -2.805  10.308  17.555  0.00  0.00    +0.000 A 
ATOM     21  C   UNL     1      -3.679  11.209  18.156  0.00  0.00    +0.000 A 
ATOM     22 CL   UNL     1      -5.362  11.136  17.805  0.00  0.00    +0.000 Cl
ATOM     23  C   UNL     1      -3.201  12.155  19.061  0.00  0.00    +0.000 A 
ATOM     24  C   UNL     1      -1.845  12.175  19.399  0.00  0.00    +0.000 A 
ENDBRANCH  17  18
ENDBRANCH  10  17
TORSDOF 2
ENDMDL
MODEL 8
REMARK VINA RESULT:      -7.4      1.242      1.418
REMARK  Name = 
REMARK  3 active torsions:
REMARK  status: ('A' for Active; 'I' for Inactive)
REMARK    1  A    between atoms: C_1  and  C_2
REMARK    2  A    between atoms: N_10  and  C_11
REMARK    3  A    between atoms: C_11  and  C_12
REMARK                            x       y       z     vdW  Elec       q    Type
REMARK                         _______ _______ _______ _____ _____    ______ ____
ROOT
ATOM      1  C   UNL     1       3.969   1.730  17.716  0.00  0.00    +0.000 C 
ATOM      2  C   UNL     1       3.702   2.877  18.686  0.00  0.00    +0.000 C 
ATOM      3  C   UNL     1       2.773   2.457  19.832  0.00  0.00    +0.000 C 
ATOM      4  C   UNL     1       2.629   3.597  20.845  0.00  0.00    +0.000 C 
ATOM      5  C   UNL     1       2.322   4.928  20.202  0.00  0.00    +0.000 A 
ATOM      6  N   UNL     1       1.832   5.902  21.018  0.00  0.00    +0.000 NA
ATOM      7  C   UNL     1       1.595   7.117  20.475  0.00  0.00    +0.000 A 
ATOM      8  N   UNL     1       1.061   8.075  21.347  0.00  0.00    +0.000 NA
ATOM      9  C   UNL     1       0.831   9.248  20.864  0.00  0.00    +0.000 A 
ATOM     10  N   UNL     1       1.071   9.633  19.566  0.00  0.00    +0.000 N 
ATOM     11  C   UNL     1       1.556   8.729  18.639  0.00  0.00    +0.000 A 
ATOM     12  O   UNL     1       1.733   8.975  17.450  0.00  0.00    +0.000 OA
ATOM     13  C   UNL     1       1.843   7.390  19.149  0.00  0.00    +0.000 A 
ATOM     14  C   UNL     1       2.335   6.397  18.312  0.00  0.00    +0.000 A 
ATOM     15  C   UNL     1       2.595   5.141  18.846  0.00  0.00    +0.000 A 
ATOM     16  C   UNL     1       3.079   4.054  17.933  0.00  0.00    +0.000 C 
ENDROOT
BRANCH  10  17
ATOM     17  C   UNL     1       0.724  10.962  19.100  0.00  0.00    +0.000 C 
BRANCH  17  18
ATOM     18  C   UNL     1      -0.766  11.187  18.950  0.00  0.00    +0.000 A 
ATOM     19  C   UNL     1      -1.447  12.078  19.797  0.00  0.00    +0.000 A 
ATOM     20  C   UNL     1      -2.788  12.396  19.565  0.00  0.00    +0.000 A 
ATOM     21  C   UNL     1      -3.461  11.813  18.495  0.00  0.00    +0.000 A 
ATOM     22 CL   UNL     1      -5.086  12.264  18.154  0.00  0.00    +0.000 Cl
ATOM     23  C   UNL     1      -2.815  10.884  17.680  0.00  0.00    +0.000 A 
ATOM     24  C   UNL     1      -1.475  10.564  17.913  0.00  0.00    +0.000 A 
ENDBRANCH  17  18
ENDBRANCH  10  17
TORSDOF 2
ENDMDL
MODEL 9
REMARK VINA RESULT:      -7.4      1.088      1.568
REMARK  Name = 
REMARK  3 active torsions:
REMARK  status: ('A' for Active; 'I' for Inactive)
REMARK    1  A    between atoms: C_1  and  C_2
REMARK    2  A    between atoms: N_10  and  C_11
REMARK    3  A    between atoms: C_11  and  C_12
REMARK                            x       y       z     vdW  Elec       q    Type
REMARK                         _______ _______ _______ _____ _____    ______ ____
ROOT
ATOM      1  C   UNL     1       4.538   3.548  17.109  0.00  0.00    +0.000 C 
ATOM      2  C   UNL     1       4.065   4.464  18.233  0.00  0.00    +0.000 C 
ATOM      3  C   UNL     1       3.106   3.748  19.194  0.00  0.00    +0.000 C 
ATOM      4  C   UNL     1       2.752   4.662  20.372  0.00  0.00    +0.000 C 
ATOM      5  C   UNL     1       2.341   6.050  19.944  0.00  0.00    +0.000 A 
ATOM      6  N   UNL     1       1.679   6.802  20.866  0.00  0.00    +0.000 NA
ATOM      7  C   UNL     1       1.342   8.065  20.523  0.00  0.00    +0.000 A 
ATOM      8  N   UNL     1       0.634   8.788  21.493  0.00  0.00    +0.000 NA
ATOM      9  C   UNL     1       0.305   9.999  21.201  0.00  0.00    +0.000 A 
ATOM     10  N   UNL     1       0.597  10.639  20.019  0.00  0.00    +0.000 N 
ATOM     11  C   UNL     1       1.254   9.975  19.001  0.00  0.00    +0.000 A 
ATOM     12  O   UNL     1       1.491  10.452  17.895  0.00  0.00    +0.000 OA
ATOM     13  C   UNL     1       1.657   8.602  19.294  0.00  0.00    +0.000 A 
ATOM     14  C   UNL     1       2.325   7.835  18.349  0.00  0.00    +0.000 A 
ATOM     15  C   UNL     1       2.689   6.535  18.679  0.00  0.00    +0.000 A 
ATOM     16  C   UNL     1       3.367   5.689  17.641  0.00  0.00    +0.000 C 
ENDROOT
BRANCH  10  17
ATOM     17  C   UNL     1       0.133  11.988  19.761  0.00  0.00    +0.000 C 
BRANCH  17  18
ATOM     18  C   UNL     1      -1.339  12.072  19.412  0.00  0.00    +0.000 A 
ATOM     19  C   UNL     1      -1.819  11.564  18.193  0.00  0.00    +0.000 A 
ATOM     20  C   UNL     1      -3.191  11.509  17.937  0.00  0.00    +0.000 A 
ATOM     21  C   UNL     1      -4.092  11.976  18.890  0.00  0.00    +0.000 A 
ATOM     22 CL   UNL     1      -5.784  11.834  18.615  0.00  0.00    +0.000 Cl
ATOM     23  C   UNL     1      -3.628  12.536  20.079  0.00  0.00    +0.000 A 
ATOM     24  C   UNL     1      -2.256  12.594  20.336  0.00  0.00    +0.000 A 
ENDBRANCH  17  18
ENDBRANCH  10  17
TORSDOF 2
ENDMDL
