MODEL 1
REMARK VINA RESULT:      -7.2      0.000      0.000
REMARK  Name = 
REMARK  13 active torsions:
REMARK  status: ('A' for Active; 'I' for Inactive)
REMARK    1  A    between atoms: C_1  and  C_2
REMARK    2  A    between atoms: C_4  and  C_5
REMARK    3  A    between atoms: N_6  and  C_7
REMARK    4  A    between atoms: C_7  and  C_8
REMARK    5  A    between atoms: C_12  and  C_13
REMARK    6  A    between atoms: N_15  and  C_16
REMARK    7  A    between atoms: C_16  and  C_17
REMARK    8  A    between atoms: C_17  and  S_18
REMARK    9  A    between atoms: S_18  and  C_19
REMARK   10  A    between atoms: C_19  and  C_20
REMARK   11  A    between atoms: C_20  and  C_21
REMARK   12  A    between atoms: C_20  and  C_22
REMARK   13  A    between atoms: C_20  and  O_23
REMARK                            x       y       z     vdW  Elec       q    Type
REMARK                         _______ _______ _______ _____ _____    ______ ____
ROOT
ATOM      1  C   UNL     1       3.790   4.426  19.504  0.00  0.00    +0.000 A 
ATOM      2  C   UNL     1       2.929   3.849  20.448  0.00  0.00    +0.000 A 
ATOM      3  C   UNL     1       1.836   4.570  20.938  0.00  0.00    +0.000 A 
ATOM      4  C   UNL     1       1.598   5.874  20.500  0.00  0.00    +0.000 A 
ATOM      5  C   UNL     1       2.455   6.468  19.566  0.00  0.00    +0.000 A 
ATOM      6  C   UNL     1       3.540   5.737  19.065  0.00  0.00    +0.000 A 
ENDROOT
BRANCH   5   7
ATOM      7  C   UNL     1       2.164   7.848  19.102  0.00  0.00    +0.000 C 
ATOM      8  O   UNL     1       2.626   8.243  18.026  0.00  0.00    +0.000 OA
ATOM      9  N   UNL     1       1.369   8.633  19.901  0.00  0.00    +0.000 N 
ATOM     10  H   UNL     1       0.834   8.218  20.659  0.00  0.00    +0.000 HD
BRANCH   9  11
ATOM     11  C   UNL     1       1.012   9.989  19.505  0.00  0.00    +0.000 C 
BRANCH  11  12
ATOM     12  C   UNL     1      -0.498  10.198  19.314  0.00  0.00    +0.000 C 
BRANCH  12  13
ATOM     13  S   UNL     1      -0.889   9.664  17.613  0.00  0.00    +0.000 S 
BRANCH  13  14
ATOM     14  C   UNL     1      -2.712   9.828  17.577  0.00  0.00    +0.000 C 
BRANCH  14  15
ATOM     15  C   UNL     1      -3.120  10.827  16.460  0.00  0.00    +0.000 C 
ATOM     16  C   UNL     1      -3.284  10.144  15.095  0.00  0.00    +0.000 C 
ATOM     17  C   UNL     1      -4.411  11.563  16.837  0.00  0.00    +0.000 C 
BRANCH  15  18
ATOM     18  O   UNL     1      -2.113  11.844  16.326  0.00  0.00    +0.000 OA
ATOM     19  H   UNL     1      -2.280  12.298  15.480  0.00  0.00    +0.000 HD
ENDBRANCH  15  18
ENDBRANCH  14  15
ENDBRANCH  13  14
ENDBRANCH  12  13
ENDBRANCH  11  12
ENDBRANCH   9  11
ENDBRANCH   5   7
BRANCH   1  20
ATOM     20  C   UNL     1       4.965   3.673  18.929  0.00  0.00    +0.000 C 
BRANCH  20  26
ATOM     21  C   UNL     1       5.688   4.359  14.163  0.00  0.00    +0.000 C 
ATOM     22  C   UNL     1       5.868   4.531  15.629  0.00  0.00    +0.000 A 
ATOM     23  C   UNL     1       6.806   5.345  16.295  0.00  0.00    +0.000 A 
ATOM     24  C   UNL     1       6.575   5.147  17.639  0.00  0.00    +0.000 A 
ATOM     25  C   UNL     1       7.255   5.713  18.829  0.00  0.00    +0.000 C 
ATOM     26  N   UNL     1       5.519   4.267  17.712  0.00  0.00    +0.000 N 
ATOM     27  N   UNL     1       5.100   3.852  16.493  0.00  0.00    +0.000 NA
ENDBRANCH  20  26
ENDBRANCH   1  20
TORSDOF 9
ENDMDL
MODEL 2
REMARK VINA RESULT:      -7.1      2.836      9.174
REMARK  Name = 
REMARK  13 active torsions:
REMARK  status: ('A' for Active; 'I' for Inactive)
REMARK    1  A    between atoms: C_1  and  C_2
REMARK    2  A    between atoms: C_4  and  C_5
REMARK    3  A    between atoms: N_6  and  C_7
REMARK    4  A    between atoms: C_7  and  C_8
REMARK    5  A    between atoms: C_12  and  C_13
REMARK    6  A    between atoms: N_15  and  C_16
REMARK    7  A    between atoms: C_16  and  C_17
REMARK    8  A    between atoms: C_17  and  S_18
REMARK    9  A    between atoms: S_18  and  C_19
REMARK   10  A    between atoms: C_19  and  C_20
REMARK   11  A    between atoms: C_20  and  C_21
REMARK   12  A    between atoms: C_20  and  C_22
REMARK   13  A    between atoms: C_20  and  O_23
REMARK                            x       y       z     vdW  Elec       q    Type
REMARK                         _______ _______ _______ _____ _____    ______ ____
ROOT
ATOM      1  C   UNL     1      -0.689  11.056  19.404  0.00  0.00    +0.000 A 
ATOM      2  C   UNL     1      -0.772  10.796  20.779  0.00  0.00    +0.000 A 
ATOM      3  C   UNL     1       0.040   9.818  21.362  0.00  0.00    +0.000 A 
ATOM      4  C   UNL     1       0.933   9.086  20.578  0.00  0.00    +0.000 A 
ATOM      5  C   UNL     1       1.020   9.327  19.202  0.00  0.00    +0.000 A 
ATOM      6  C   UNL     1       0.217  10.318  18.624  0.00  0.00    +0.000 A 
ENDROOT
BRANCH   5   7
ATOM      7  C   UNL     1       1.996   8.548  18.398  0.00  0.00    +0.000 C 
ATOM      8  O   UNL     1       2.435   9.019  17.343  0.00  0.00    +0.000 OA
ATOM      9  N   UNL     1       2.381   7.321  18.881  0.00  0.00    +0.000 N 
ATOM     10  H   UNL     1       2.176   7.059  19.841  0.00  0.00    +0.000 HD
BRANCH   9  11
ATOM     11  C   UNL     1       3.357   6.506  18.168  0.00  0.00    +0.000 C 
BRANCH  11  12
ATOM     12  C   UNL     1       3.007   5.011  18.139  0.00  0.00    +0.000 C 
BRANCH  12  13
ATOM     13  S   UNL     1       4.257   4.202  17.082  0.00  0.00    +0.000 S 
BRANCH  13  14
ATOM     14  C   UNL     1       5.797   4.501  18.026  0.00  0.00    +0.000 C 
BRANCH  14  15
ATOM     15  C   UNL     1       6.929   4.925  17.051  0.00  0.00    +0.000 C 
ATOM     16  C   UNL     1       6.537   4.732  15.579  0.00  0.00    +0.000 C 
ATOM     17  C   UNL     1       7.338   6.381  17.297  0.00  0.00    +0.000 C 
BRANCH  15  18
ATOM     18  O   UNL     1       8.106   4.139  17.301  0.00  0.00    +0.000 OA
ATOM     19  H   UNL     1       8.690   4.676  17.867  0.00  0.00    +0.000 HD
ENDBRANCH  15  18
ENDBRANCH  14  15
ENDBRANCH  13  14
ENDBRANCH  12  13
ENDBRANCH  11  12
ENDBRANCH   9  11
ENDBRANCH   5   7
BRANCH   1  20
ATOM     20  C   UNL     1      -1.527  12.123  18.741  0.00  0.00    +0.000 C 
BRANCH  20  26
ATOM     21  C   UNL     1      -3.434  10.295  14.651  0.00  0.00    +0.000 C 
ATOM     22  C   UNL     1      -3.390  10.848  16.031  0.00  0.00    +0.000 A 
ATOM     23  C   UNL     1      -4.476  11.134  16.883  0.00  0.00    +0.000 A 
ATOM     24  C   UNL     1      -3.914  11.635  18.038  0.00  0.00    +0.000 A 
ATOM     25  C   UNL     1      -4.548  12.127  19.284  0.00  0.00    +0.000 C 
ATOM     26  N   UNL     1      -2.552  11.602  17.837  0.00  0.00    +0.000 N 
ATOM     27  N   UNL     1      -2.218  11.159  16.602  0.00  0.00    +0.000 NA
ENDBRANCH  20  26
ENDBRANCH   1  20
TORSDOF 9
ENDMDL
MODEL 3
REMARK VINA RESULT:      -6.9      2.471      3.670
REMARK  Name = 
REMARK  13 active torsions:
REMARK  status: ('A' for Active; 'I' for Inactive)
REMARK    1  A    between atoms: C_1  and  C_2
REMARK    2  A    between atoms: C_4  and  C_5
REMARK    3  A    between atoms: N_6  and  C_7
REMARK    4  A    between atoms: C_7  and  C_8
REMARK    5  A    between atoms: C_12  and  C_13
REMARK    6  A    between atoms: N_15  and  C_16
REMARK    7  A    between atoms: C_16  and  C_17
REMARK    8  A    between atoms: C_17  and  S_18
REMARK    9  A    between atoms: S_18  and  C_19
REMARK   10  A    between atoms: C_19  and  C_20
REMARK   11  A    between atoms: C_20  and  C_21
REMARK   12  A    between atoms: C_20  and  C_22
REMARK   13  A    between atoms: C_20  and  O_23
REMARK                            x       y       z     vdW  Elec       q    Type
REMARK                         _______ _______ _______ _____ _____    ______ ____
ROOT
ATOM      1  C   UNL     1       2.176   7.137  19.742  0.00  0.00    +0.000 A 
ATOM      2  C   UNL     1       2.219   7.771  18.493  0.00  0.00    +0.000 A 
ATOM      3  C   UNL     1       1.705   9.062  18.340  0.00  0.00    +0.000 A 
ATOM      4  C   UNL     1       1.134   9.726  19.427  0.00  0.00    +0.000 A 
ATOM      5  C   UNL     1       1.075   9.103  20.678  0.00  0.00    +0.000 A 
ATOM      6  C   UNL     1       1.606   7.816  20.832  0.00  0.00    +0.000 A 
ENDROOT
BRANCH   5   7
ATOM      7  C   UNL     1       0.482   9.843  21.821  0.00  0.00    +0.000 C 
ATOM      8  O   UNL     1       0.882   9.619  22.969  0.00  0.00    +0.000 OA
ATOM      9  N   UNL     1      -0.493  10.769  21.541  0.00  0.00    +0.000 N 
ATOM     10  H   UNL     1      -0.644  11.083  20.587  0.00  0.00    +0.000 HD
BRANCH   9  11
ATOM     11  C   UNL     1      -1.104  11.559  22.603  0.00  0.00    +0.000 C 
BRANCH  11  12
ATOM     12  C   UNL     1      -2.367  12.313  22.160  0.00  0.00    +0.000 C 
BRANCH  12  13
ATOM     13  S   UNL     1      -2.009  13.008  20.510  0.00  0.00    +0.000 S 
BRANCH  13  14
ATOM     14  C   UNL     1      -3.153  12.055  19.445  0.00  0.00    +0.000 C 
BRANCH  14  15
ATOM     15  C   UNL     1      -2.418  11.630  18.144  0.00  0.00    +0.000 C 
ATOM     16  C   UNL     1      -1.065  12.338  17.979  0.00  0.00    +0.000 C 
ATOM     17  C   UNL     1      -2.223  10.111  18.104  0.00  0.00    +0.000 C 
BRANCH  15  18
ATOM     18  O   UNL     1      -3.227  11.953  17.001  0.00  0.00    +0.000 OA
ATOM     19  H   UNL     1      -2.744  12.632  16.495  0.00  0.00    +0.000 HD
ENDBRANCH  15  18
ENDBRANCH  14  15
ENDBRANCH  13  14
ENDBRANCH  12  13
ENDBRANCH  11  12
ENDBRANCH   9  11
ENDBRANCH   5   7
BRANCH   1  20
ATOM     20  C   UNL     1       2.746   5.756  19.957  0.00  0.00    +0.000 C 
BRANCH  20  26
ATOM     21  C   UNL     1       6.791   5.372  17.273  0.00  0.00    +0.000 C 
ATOM     22  C   UNL     1       5.375   5.167  17.680  0.00  0.00    +0.000 A 
ATOM     23  C   UNL     1       4.369   4.466  16.986  0.00  0.00    +0.000 A 
ATOM     24  C   UNL     1       3.239   4.574  17.768  0.00  0.00    +0.000 A 
ATOM     25  C   UNL     1       1.865   4.060  17.555  0.00  0.00    +0.000 C 
ATOM     26  N   UNL     1       3.620   5.295  18.878  0.00  0.00    +0.000 N 
ATOM     27  N   UNL     1       4.912   5.696  18.821  0.00  0.00    +0.000 NA
ENDBRANCH  20  26
ENDBRANCH   1  20
TORSDOF 9
ENDMDL
MODEL 4
REMARK VINA RESULT:      -6.9      2.042      3.129
REMARK  Name = 
REMARK  13 active torsions:
REMARK  status: ('A' for Active; 'I' for Inactive)
REMARK    1  A    between atoms: C_1  and  C_2
REMARK    2  A    between atoms: C_4  and  C_5
REMARK    3  A    between atoms: N_6  and  C_7
REMARK    4  A    between atoms: C_7  and  C_8
REMARK    5  A    between atoms: C_12  and  C_13
REMARK    6  A    between atoms: N_15  and  C_16
REMARK    7  A    between atoms: C_16  and  C_17
REMARK    8  A    between atoms: C_17  and  S_18
REMARK    9  A    between atoms: S_18  and  C_19
REMARK   10  A    between atoms: C_19  and  C_20
REMARK   11  A    between atoms: C_20  and  C_21
REMARK   12  A    between atoms: C_20  and  C_22
REMARK   13  A    between atoms: C_20  and  O_23
REMARK                            x       y       z     vdW  Elec       q    Type
REMARK                         _______ _______ _______ _____ _____    ______ ____
ROOT
ATOM      1  C   UNL     1       2.547   6.576  19.425  0.00  0.00    +0.000 A 
ATOM      2  C   UNL     1       2.665   7.129  18.142  0.00  0.00    +0.000 A 
ATOM      3  C   UNL     1       2.162   8.406  17.877  0.00  0.00    +0.000 A 
ATOM      4  C   UNL     1       1.529   9.137  18.883  0.00  0.00    +0.000 A 
ATOM      5  C   UNL     1       1.395   8.594  20.167  0.00  0.00    +0.000 A 
ATOM      6  C   UNL     1       1.914   7.321  20.434  0.00  0.00    +0.000 A 
ENDROOT
BRANCH   5   7
ATOM      7  C   UNL     1       0.737   9.405  21.223  0.00  0.00    +0.000 C 
ATOM      8  O   UNL     1       0.893   9.104  22.412  0.00  0.00    +0.000 OA
ATOM      9  N   UNL     1      -0.019  10.479  20.822  0.00  0.00    +0.000 N 
ATOM     10  H   UNL     1       0.048  10.827  19.869  0.00  0.00    +0.000 HD
BRANCH   9  11
ATOM     11  C   UNL     1      -0.673  11.343  21.796  0.00  0.00    +0.000 C 
BRANCH  11  12
ATOM     12  C   UNL     1      -1.214  12.649  21.197  0.00  0.00    +0.000 C 
BRANCH  12  13
ATOM     13  S   UNL     1      -1.154  12.456  19.383  0.00  0.00    +0.000 S 
BRANCH  13  14
ATOM     14  C   UNL     1      -2.879  11.975  18.999  0.00  0.00    +0.000 C 
BRANCH  14  15
ATOM     15  C   UNL     1      -2.898  11.085  17.726  0.00  0.00    +0.000 C 
ATOM     16  C   UNL     1      -1.637  10.218  17.600  0.00  0.00    +0.000 C 
ATOM     17  C   UNL     1      -4.148  10.199  17.704  0.00  0.00    +0.000 C 
BRANCH  15  18
ATOM     18  O   UNL     1      -2.983  11.914  16.555  0.00  0.00    +0.000 OA
ATOM     19  H   UNL     1      -2.750  12.819  16.832  0.00  0.00    +0.000 HD
ENDBRANCH  15  18
ENDBRANCH  14  15
ENDBRANCH  13  14
ENDBRANCH  12  13
ENDBRANCH  11  12
ENDBRANCH   9  11
ENDBRANCH   5   7
BRANCH   1  20
ATOM     20  C   UNL     1       3.101   5.212  19.760  0.00  0.00    +0.000 C 
BRANCH  20  26
ATOM     21  C   UNL     1       7.440   4.745  17.601  0.00  0.00    +0.000 C 
ATOM     22  C   UNL     1       5.985   4.556  17.837  0.00  0.00    +0.000 A 
ATOM     23  C   UNL     1       5.066   3.839  17.043  0.00  0.00    +0.000 A 
ATOM     24  C   UNL     1       3.850   3.972  17.679  0.00  0.00    +0.000 A 
ATOM     25  C   UNL     1       2.509   3.457  17.313  0.00  0.00    +0.000 C 
ATOM     26  N   UNL     1       4.097   4.720  18.808  0.00  0.00    +0.000 N 
ATOM     27  N   UNL     1       5.389   5.116  18.899  0.00  0.00    +0.000 NA
ENDBRANCH  20  26
ENDBRANCH   1  20
TORSDOF 9
ENDMDL
MODEL 5
REMARK VINA RESULT:      -6.9      3.369      8.776
REMARK  Name = 
REMARK  13 active torsions:
REMARK  status: ('A' for Active; 'I' for Inactive)
REMARK    1  A    between atoms: C_1  and  C_2
REMARK    2  A    between atoms: C_4  and  C_5
REMARK    3  A    between atoms: N_6  and  C_7
REMARK    4  A    between atoms: C_7  and  C_8
REMARK    5  A    between atoms: C_12  and  C_13
REMARK    6  A    between atoms: N_15  and  C_16
REMARK    7  A    between atoms: C_16  and  C_17
REMARK    8  A    between atoms: C_17  and  S_18
REMARK    9  A    between atoms: S_18  and  C_19
REMARK   10  A    between atoms: C_19  and  C_20
REMARK   11  A    between atoms: C_20  and  C_21
REMARK   12  A    between atoms: C_20  and  C_22
REMARK   13  A    between atoms: C_20  and  O_23
REMARK                            x       y       z     vdW  Elec       q    Type
REMARK                         _______ _______ _______ _____ _____    ______ ____
ROOT
ATOM      1  C   UNL     1       0.905   9.505  19.966  0.00  0.00    +0.000 A 
ATOM      2  C   UNL     1       1.168  10.006  18.684  0.00  0.00    +0.000 A 
ATOM      3  C   UNL     1       1.934   9.264  17.781  0.00  0.00    +0.000 A 
ATOM      4  C   UNL     1       2.453   8.022  18.151  0.00  0.00    +0.000 A 
ATOM      5  C   UNL     1       2.209   7.512  19.432  0.00  0.00    +0.000 A 
ATOM      6  C   UNL     1       1.427   8.251  20.329  0.00  0.00    +0.000 A 
ENDROOT
BRANCH   5   7
ATOM      7  C   UNL     1       2.756   6.179  19.790  0.00  0.00    +0.000 C 
ATOM      8  O   UNL     1       2.164   5.477  20.617  0.00  0.00    +0.000 OA
ATOM      9  N   UNL     1       3.909   5.776  19.162  0.00  0.00    +0.000 N 
ATOM     10  H   UNL     1       4.246   6.270  18.340  0.00  0.00    +0.000 HD
BRANCH   9  11
ATOM     11  C   UNL     1       4.494   4.469  19.434  0.00  0.00    +0.000 C 
BRANCH  11  12
ATOM     12  C   UNL     1       4.034   3.373  18.462  0.00  0.00    +0.000 C 
BRANCH  12  13
ATOM     13  S   UNL     1       4.504   3.928  16.788  0.00  0.00    +0.000 S 
BRANCH  13  14
ATOM     14  C   UNL     1       6.266   4.371  17.020  0.00  0.00    +0.000 C 
BRANCH  14  15
ATOM     15  C   UNL     1       6.524   5.788  16.439  0.00  0.00    +0.000 C 
ATOM     16  C   UNL     1       5.245   6.440  15.895  0.00  0.00    +0.000 C 
ATOM     17  C   UNL     1       7.167   6.696  17.493  0.00  0.00    +0.000 C 
BRANCH  15  18
ATOM     18  O   UNL     1       7.471   5.706  15.361  0.00  0.00    +0.000 OA
ATOM     19  H   UNL     1       7.095   5.095  14.700  0.00  0.00    +0.000 HD
ENDBRANCH  15  18
ENDBRANCH  14  15
ENDBRANCH  13  14
ENDBRANCH  12  13
ENDBRANCH  11  12
ENDBRANCH   9  11
ENDBRANCH   5   7
BRANCH   1  20
ATOM     20  C   UNL     1       0.059  10.261  20.961  0.00  0.00    +0.000 C 
BRANCH  20  26
ATOM     21  C   UNL     1       1.938  14.705  21.611  0.00  0.00    +0.000 C 
ATOM     22  C   UNL     1       0.969  13.661  21.185  0.00  0.00    +0.000 A 
ATOM     23  C   UNL     1      -0.292  13.847  20.582  0.00  0.00    +0.000 A 
ATOM     24  C   UNL     1      -0.799  12.579  20.394  0.00  0.00    +0.000 A 
ATOM     25  C   UNL     1      -2.092  12.131  19.823  0.00  0.00    +0.000 C 
ATOM     26  N   UNL     1       0.169  11.716  20.857  0.00  0.00    +0.000 N 
ATOM     27  N   UNL     1       1.239  12.363  21.378  0.00  0.00    +0.000 NA
ENDBRANCH  20  26
ENDBRANCH   1  20
TORSDOF 9
ENDMDL
MODEL 6
REMARK VINA RESULT:      -6.8      5.053      8.313
REMARK  Name = 
REMARK  13 active torsions:
REMARK  status: ('A' for Active; 'I' for Inactive)
REMARK    1  A    between atoms: C_1  and  C_2
REMARK    2  A    between atoms: C_4  and  C_5
REMARK    3  A    between atoms: N_6  and  C_7
REMARK    4  A    between atoms: C_7  and  C_8
REMARK    5  A    between atoms: C_12  and  C_13
REMARK    6  A    between atoms: N_15  and  C_16
REMARK    7  A    between atoms: C_16  and  C_17
REMARK    8  A    between atoms: C_17  and  S_18
REMARK    9  A    between atoms: S_18  and  C_19
REMARK   10  A    between atoms: C_19  and  C_20
REMARK   11  A    between atoms: C_20  and  C_21
REMARK   12  A    between atoms: C_20  and  C_22
REMARK   13  A    between atoms: C_20  and  O_23
REMARK                            x       y       z     vdW  Elec       q    Type
REMARK                         _______ _______ _______ _____ _____    ______ ____
ROOT
ATOM      1  C   UNL     1       4.653   4.342  16.635  0.00  0.00    +0.000 A 
ATOM      2  C   UNL     1       5.196   3.938  15.407  0.00  0.00    +0.000 A 
ATOM      3  C   UNL     1       6.456   4.394  15.011  0.00  0.00    +0.000 A 
ATOM      4  C   UNL     1       7.181   5.261  15.829  0.00  0.00    +0.000 A 
ATOM      5  C   UNL     1       6.649   5.681  17.053  0.00  0.00    +0.000 A 
ATOM      6  C   UNL     1       5.392   5.211  17.455  0.00  0.00    +0.000 A 
ENDROOT
BRANCH   5   7
ATOM      7  C   UNL     1       7.453   6.587  17.912  0.00  0.00    +0.000 C 
ATOM      8  O   UNL     1       7.901   6.173  18.987  0.00  0.00    +0.000 OA
ATOM      9  N   UNL     1       7.675   7.863  17.457  0.00  0.00    +0.000 N 
ATOM     10  H   UNL     1       7.484   8.104  16.487  0.00  0.00    +0.000 HD
BRANCH   9  11
ATOM     11  C   UNL     1       8.479   8.806  18.225  0.00  0.00    +0.000 C 
BRANCH  11  12
ATOM     12  C   UNL     1       8.172  10.277  17.911  0.00  0.00    +0.000 C 
BRANCH  12  13
ATOM     13  S   UNL     1       9.707  11.212  18.229  0.00  0.00    +0.000 S 
BRANCH  13  14
ATOM     14  C   UNL     1       9.126  12.943  18.105  0.00  0.00    +0.000 C 
BRANCH  14  15
ATOM     15  C   UNL     1      10.333  13.875  17.809  0.00  0.00    +0.000 C 
ATOM     16  C   UNL     1      11.057  14.319  19.088  0.00  0.00    +0.000 C 
ATOM     17  C   UNL     1      11.321  13.195  16.856  0.00  0.00    +0.000 C 
BRANCH  15  18
ATOM     18  O   UNL     1       9.879  15.056  17.126  0.00  0.00    +0.000 OA
ATOM     19  H   UNL     1      10.463  15.785  17.404  0.00  0.00    +0.000 HD
ENDBRANCH  15  18
ENDBRANCH  14  15
ENDBRANCH  13  14
ENDBRANCH  12  13
ENDBRANCH  11  12
ENDBRANCH   9  11
ENDBRANCH   5   7
BRANCH   1  20
ATOM     20  C   UNL     1       3.307   3.851  17.113  0.00  0.00    +0.000 C 
BRANCH  20  26
ATOM     21  C   UNL     1       1.633   6.928  20.494  0.00  0.00    +0.000 C 
ATOM     22  C   UNL     1       2.244   5.700  19.923  0.00  0.00    +0.000 A 
ATOM     23  C   UNL     1       2.771   4.592  20.618  0.00  0.00    +0.000 A 
ATOM     24  C   UNL     1       3.225   3.729  19.645  0.00  0.00    +0.000 A 
ATOM     25  C   UNL     1       3.893   2.410  19.759  0.00  0.00    +0.000 C 
ATOM     26  N   UNL     1       2.932   4.334  18.443  0.00  0.00    +0.000 N 
ATOM     27  N   UNL     1       2.368   5.554  18.596  0.00  0.00    +0.000 NA
ENDBRANCH  20  26
ENDBRANCH   1  20
TORSDOF 9
ENDMDL
MODEL 7
REMARK VINA RESULT:      -6.8      1.476      2.404
REMARK  Name = 
REMARK  13 active torsions:
REMARK  status: ('A' for Active; 'I' for Inactive)
REMARK    1  A    between atoms: C_1  and  C_2
REMARK    2  A    between atoms: C_4  and  C_5
REMARK    3  A    between atoms: N_6  and  C_7
REMARK    4  A    between atoms: C_7  and  C_8
REMARK    5  A    between atoms: C_12  and  C_13
REMARK    6  A    between atoms: N_15  and  C_16
REMARK    7  A    between atoms: C_16  and  C_17
REMARK    8  A    between atoms: C_17  and  S_18
REMARK    9  A    between atoms: S_18  and  C_19
REMARK   10  A    between atoms: C_19  and  C_20
REMARK   11  A    between atoms: C_20  and  C_21
REMARK   12  A    between atoms: C_20  and  C_22
REMARK   13  A    between atoms: C_20  and  O_23
REMARK                            x       y       z     vdW  Elec       q    Type
REMARK                         _______ _______ _______ _____ _____    ______ ____
ROOT
ATOM      1  C   UNL     1       3.081   5.618  18.524  0.00  0.00    +0.000 A 
ATOM      2  C   UNL     1       2.646   4.472  19.203  0.00  0.00    +0.000 A 
ATOM      3  C   UNL     1       1.831   4.589  20.333  0.00  0.00    +0.000 A 
ATOM      4  C   UNL     1       1.451   5.848  20.800  0.00  0.00    +0.000 A 
ATOM      5  C   UNL     1       1.885   7.003  20.139  0.00  0.00    +0.000 A 
ATOM      6  C   UNL     1       2.688   6.882  18.998  0.00  0.00    +0.000 A 
ENDROOT
BRANCH   5   7
ATOM      7  C   UNL     1       1.446   8.327  20.647  0.00  0.00    +0.000 C 
ATOM      8  O   UNL     1       1.259   8.487  21.858  0.00  0.00    +0.000 OA
ATOM      9  N   UNL     1       1.280   9.336  19.730  0.00  0.00    +0.000 N 
ATOM     10  H   UNL     1       1.646   9.239  18.786  0.00  0.00    +0.000 HD
BRANCH   9  11
ATOM     11  C   UNL     1       0.880  10.674  20.149  0.00  0.00    +0.000 C 
BRANCH  11  12
ATOM     12  C   UNL     1       0.150  11.469  19.057  0.00  0.00    +0.000 C 
BRANCH  12  13
ATOM     13  S   UNL     1      -1.471  10.665  18.820  0.00  0.00    +0.000 S 
BRANCH  13  14
ATOM     14  C   UNL     1      -2.064  11.460  17.281  0.00  0.00    +0.000 C 
BRANCH  14  15
ATOM     15  C   UNL     1      -3.285  10.675  16.728  0.00  0.00    +0.000 C 
ATOM     16  C   UNL     1      -4.606  11.430  16.930  0.00  0.00    +0.000 C 
ATOM     17  C   UNL     1      -3.090  10.345  15.245  0.00  0.00    +0.000 C 
BRANCH  15  18
ATOM     18  O   UNL     1      -3.393   9.409  17.402  0.00  0.00    +0.000 OA
ATOM     19  H   UNL     1      -2.599   9.318  17.960  0.00  0.00    +0.000 HD
ENDBRANCH  15  18
ENDBRANCH  14  15
ENDBRANCH  13  14
ENDBRANCH  12  13
ENDBRANCH  11  12
ENDBRANCH   9  11
ENDBRANCH   5   7
BRANCH   1  20
ATOM     20  C   UNL     1       3.938   5.535  17.284  0.00  0.00    +0.000 C 
BRANCH  20  26
ATOM     21  C   UNL     1       8.242   5.690  19.554  0.00  0.00    +0.000 C 
ATOM     22  C   UNL     1       7.237   5.339  18.516  0.00  0.00    +0.000 A 
ATOM     23  C   UNL     1       7.441   4.612  17.325  0.00  0.00    +0.000 A 
ATOM     24  C   UNL     1       6.210   4.568  16.707  0.00  0.00    +0.000 A 
ATOM     25  C   UNL     1       5.798   3.961  15.419  0.00  0.00    +0.000 C 
ATOM     26  N   UNL     1       5.344   5.231  17.548  0.00  0.00    +0.000 N 
ATOM     27  N   UNL     1       5.964   5.740  18.639  0.00  0.00    +0.000 NA
ENDBRANCH  20  26
ENDBRANCH   1  20
TORSDOF 9
ENDMDL
MODEL 8
REMARK VINA RESULT:      -6.7      4.720      8.370
REMARK  Name = 
REMARK  13 active torsions:
REMARK  status: ('A' for Active; 'I' for Inactive)
REMARK    1  A    between atoms: C_1  and  C_2
REMARK    2  A    between atoms: C_4  and  C_5
REMARK    3  A    between atoms: N_6  and  C_7
REMARK    4  A    between atoms: C_7  and  C_8
REMARK    5  A    between atoms: C_12  and  C_13
REMARK    6  A    between atoms: N_15  and  C_16
REMARK    7  A    between atoms: C_16  and  C_17
REMARK    8  A    between atoms: C_17  and  S_18
REMARK    9  A    between atoms: S_18  and  C_19
REMARK   10  A    between atoms: C_19  and  C_20
REMARK   11  A    between atoms: C_20  and  C_21
REMARK   12  A    between atoms: C_20  and  C_22
REMARK   13  A    between atoms: C_20  and  O_23
REMARK                            x       y       z     vdW  Elec       q    Type
REMARK                         _______ _______ _______ _____ _____    ______ ____
ROOT
ATOM      1  C   UNL     1       4.592   4.366  16.864  0.00  0.00    +0.000 A 
ATOM      2  C   UNL     1       5.012   4.033  15.569  0.00  0.00    +0.000 A 
ATOM      3  C   UNL     1       6.216   4.534  15.067  0.00  0.00    +0.000 A 
ATOM      4  C   UNL     1       7.007   5.379  15.848  0.00  0.00    +0.000 A 
ATOM      5  C   UNL     1       6.597   5.730  17.139  0.00  0.00    +0.000 A 
ATOM      6  C   UNL     1       5.397   5.213  17.645  0.00  0.00    +0.000 A 
ENDROOT
BRANCH   5   7
ATOM      7  C   UNL     1       7.469   6.613  17.954  0.00  0.00    +0.000 C 
ATOM      8  O   UNL     1       7.951   6.190  19.012  0.00  0.00    +0.000 OA
ATOM      9  N   UNL     1       7.716   7.877  17.478  0.00  0.00    +0.000 N 
ATOM     10  H   UNL     1       7.490   8.117  16.517  0.00  0.00    +0.000 HD
BRANCH   9  11
ATOM     11  C   UNL     1       8.586   8.795  18.202  0.00  0.00    +0.000 C 
BRANCH  11  12
ATOM     12  C   UNL     1       8.173  10.269  18.070  0.00  0.00    +0.000 C 
BRANCH  12  13
ATOM     13  S   UNL     1       9.713  11.248  18.105  0.00  0.00    +0.000 S 
BRANCH  13  14
ATOM     14  C   UNL     1       9.293  12.566  19.304  0.00  0.00    +0.000 C 
BRANCH  14  15
ATOM     15  C   UNL     1      10.199  12.433  20.559  0.00  0.00    +0.000 C 
ATOM     16  C   UNL     1      11.656  12.114  20.197  0.00  0.00    +0.000 C 
ATOM     17  C   UNL     1      10.137  13.706  21.410  0.00  0.00    +0.000 C 
BRANCH  15  18
ATOM     18  O   UNL     1       9.711  11.374  21.400  0.00  0.00    +0.000 OA
ATOM     19  H   UNL     1       9.379  10.674  20.808  0.00  0.00    +0.000 HD
ENDBRANCH  15  18
ENDBRANCH  14  15
ENDBRANCH  13  14
ENDBRANCH  12  13
ENDBRANCH  11  12
ENDBRANCH   9  11
ENDBRANCH   5   7
BRANCH   1  20
ATOM     20  C   UNL     1       3.312   3.824  17.453  0.00  0.00    +0.000 C 
BRANCH  20  26
ATOM     21  C   UNL     1       1.839   7.619  20.123  0.00  0.00    +0.000 C 
ATOM     22  C   UNL     1       2.242   6.224  19.806  0.00  0.00    +0.000 A 
ATOM     23  C   UNL     1       2.379   5.140  20.697  0.00  0.00    +0.000 A 
ATOM     24  C   UNL     1       2.781   4.075  19.920  0.00  0.00    +0.000 A 
ATOM     25  C   UNL     1       3.103   2.676  20.292  0.00  0.00    +0.000 C 
ATOM     26  N   UNL     1       2.839   4.553  18.630  0.00  0.00    +0.000 N 
ATOM     27  N   UNL     1       2.549   5.874  18.550  0.00  0.00    +0.000 NA
ENDBRANCH  20  26
ENDBRANCH   1  20
TORSDOF 9
ENDMDL
MODEL 9
REMARK VINA RESULT:      -6.7      2.558      3.192
REMARK  Name = 
REMARK  13 active torsions:
REMARK  status: ('A' for Active; 'I' for Inactive)
REMARK    1  A    between atoms: C_1  and  C_2
REMARK    2  A    between atoms: C_4  and  C_5
REMARK    3  A    between atoms: N_6  and  C_7
REMARK    4  A    between atoms: C_7  and  C_8
REMARK    5  A    between atoms: C_12  and  C_13
REMARK    6  A    between atoms: N_15  and  C_16
REMARK    7  A    between atoms: C_16  and  C_17
REMARK    8  A    between atoms: C_17  and  S_18
REMARK    9  A    between atoms: S_18  and  C_19
REMARK   10  A    between atoms: C_19  and  C_20
REMARK   11  A    between atoms: C_20  and  C_21
REMARK   12  A    between atoms: C_20  and  C_22
REMARK   13  A    between atoms: C_20  and  O_23
REMARK                            x       y       z     vdW  Elec       q    Type
REMARK                         _______ _______ _______ _____ _____    ______ ____
ROOT
ATOM      1  C   UNL     1       3.602   3.855  19.640  0.00  0.00    +0.000 A 
ATOM      2  C   UNL     1       2.565   3.006  20.049  0.00  0.00    +0.000 A 
ATOM      3  C   UNL     1       1.354   3.539  20.501  0.00  0.00    +0.000 A 
ATOM      4  C   UNL     1       1.171   4.921  20.559  0.00  0.00    +0.000 A 
ATOM      5  C   UNL     1       2.201   5.783  20.164  0.00  0.00    +0.000 A 
ATOM      6  C   UNL     1       3.407   5.246  19.696  0.00  0.00    +0.000 A 
ENDROOT
BRANCH   5   7
ATOM      7  C   UNL     1       1.970   7.249  20.216  0.00  0.00    +0.000 C 
ATOM      8  O   UNL     1       2.170   7.937  19.208  0.00  0.00    +0.000 OA
ATOM      9  N   UNL     1       1.522   7.780  21.401  0.00  0.00    +0.000 N 
ATOM     10  H   UNL     1       1.163   7.173  22.133  0.00  0.00    +0.000 HD
BRANCH   9  11
ATOM     11  C   UNL     1       1.242   9.205  21.527  0.00  0.00    +0.000 C 
BRANCH  11  12
ATOM     12  C   UNL     1      -0.231   9.567  21.286  0.00  0.00    +0.000 C 
BRANCH  12  13
ATOM     13  S   UNL     1      -0.276  11.353  20.911  0.00  0.00    +0.000 S 
BRANCH  13  14
ATOM     14  C   UNL     1       0.854  11.464  19.474  0.00  0.00    +0.000 C 
BRANCH  14  15
ATOM     15  C   UNL     1       0.730  12.869  18.825  0.00  0.00    +0.000 C 
ATOM     16  C   UNL     1       0.334  13.950  19.841  0.00  0.00    +0.000 C 
ATOM     17  C   UNL     1       2.037  13.260  18.127  0.00  0.00    +0.000 C 
BRANCH  15  18
ATOM     18  O   UNL     1      -0.273  12.842  17.796  0.00  0.00    +0.000 OA
ATOM     19  H   UNL     1      -0.206  13.687  17.314  0.00  0.00    +0.000 HD
ENDBRANCH  15  18
ENDBRANCH  14  15
ENDBRANCH  13  14
ENDBRANCH  12  13
ENDBRANCH  11  12
ENDBRANCH   9  11
ENDBRANCH   5   7
BRANCH   1  20
ATOM     20  C   UNL     1       4.914   3.320  19.119  0.00  0.00    +0.000 C 
BRANCH  20  26
ATOM     21  C   UNL     1       8.132   6.947  18.673  0.00  0.00    +0.000 C 
ATOM     22  C   UNL     1       7.117   5.939  18.266  0.00  0.00    +0.000 A 
ATOM     23  C   UNL     1       6.563   5.739  16.985  0.00  0.00    +0.000 A 
ATOM     24  C   UNL     1       5.668   4.701  17.130  0.00  0.00    +0.000 A 
ATOM     25  C   UNL     1       4.772   4.055  16.142  0.00  0.00    +0.000 C 
ATOM     26  N   UNL     1       5.746   4.322  18.452  0.00  0.00    +0.000 N 
ATOM     27  N   UNL     1       6.599   5.093  19.167  0.00  0.00    +0.000 NA
ENDBRANCH  20  26
ENDBRANCH   1  20
TORSDOF 9
ENDMDL
