MODEL 1
REMARK VINA RESULT:      -8.9      0.000      0.000
REMARK  Name = 
REMARK  7 active torsions:
REMARK  status: ('A' for Active; 'I' for Inactive)
REMARK    1  A    between atoms: C_1  and  N_2
REMARK    2  A    between atoms: C_3  and  C_5
REMARK    3  A    between atoms: C_9  and  C_10
REMARK    4  A    between atoms: C_11  and  C_12
REMARK    5  A    between atoms: C_17  and  C_18
REMARK    6  A    between atoms: C_18  and  C_19
REMARK    7  A    between atoms: C_22  and  C_23
REMARK                            x       y       z     vdW  Elec       q    Type
REMARK                         _______ _______ _______ _____ _____    ______ ____
ROOT
ATOM      1  C   UNL     1       1.820   6.781  19.946  0.00  0.00    +0.000 A 
ATOM      2  C   UNL     1       1.384   5.932  20.965  0.00  0.00    +0.000 A 
ATOM      3  C   UNL     1       1.938   4.659  21.077  0.00  0.00    +0.000 A 
ATOM      4  C   UNL     1       2.921   4.238  20.174  0.00  0.00    +0.000 A 
ATOM      5  F   UNL     1       3.531   3.070  20.418  0.00  0.00    +0.000 F 
ATOM      6  C   UNL     1       3.303   5.013  19.069  0.00  0.00    +0.000 A 
ATOM      7  C   UNL     1       2.724   6.301  18.978  0.00  0.00    +0.000 A 
ENDROOT
BRANCH   6   8
ATOM      8  C   UNL     1       4.310   4.490  18.016  0.00  0.00    +0.000 C 
ATOM      9  C   UNL     1       5.760   4.384  18.537  0.00  0.00    +0.000 C 
ATOM     10  C   UNL     1       6.384   5.765  18.619  0.00  0.00    +0.000 C 
ATOM     11  O   UNL     1       6.272   6.427  17.342  0.00  0.00    +0.000 OA
ATOM     12  C   UNL     1       5.234   6.132  16.541  0.00  0.00    +0.000 C 
ATOM     13  N   UNL     1       5.295   6.843  15.400  0.00  0.00    +0.000 N 
ATOM     14  N   UNL     1       4.290   5.317  16.798  0.00  0.00    +0.000 NA
ATOM     15  H   UNL     1       5.847   7.689  15.431  0.00  0.00    +0.000 HD
ATOM     16  H   UNL     1       4.428   6.891  14.883  0.00  0.00    +0.000 HD
BRANCH  10  17
ATOM     17  C   UNL     1       7.859   5.733  19.049  0.00  0.00    +0.000 C 
ATOM     18  F   UNL     1       8.524   6.868  18.742  0.00  0.00    +0.000 F 
ATOM     19  F   UNL     1       8.006   5.529  20.379  0.00  0.00    +0.000 F 
ATOM     20  F   UNL     1       8.502   4.715  18.425  0.00  0.00    +0.000 F 
ENDBRANCH  10  17
BRANCH   8  21
ATOM     21  C   UNL     1       3.903   3.061  17.534  0.00  0.00    +0.000 C 
ATOM     22  F   UNL     1       2.629   3.088  17.036  0.00  0.00    +0.000 F 
ENDBRANCH   8  21
ENDBRANCH   6   8
BRANCH   1  24
ATOM     23  C   UNL     1       1.024   9.299  19.915  0.00  0.00    +0.000 C 
ATOM     24  C   UNL     1       1.451   8.166  19.960  0.00  0.00    +0.000 C 
BRANCH  23  29
ATOM     25  C   UNL     1      -1.335  12.160  19.684  0.00  0.00    +0.000 A 
ATOM     26  C   UNL     1      -0.425  13.163  19.349  0.00  0.00    +0.000 A 
ATOM     27  C   UNL     1       0.910  12.817  19.261  0.00  0.00    +0.000 A 
ATOM     28  N   UNL     1       1.377  11.567  19.457  0.00  0.00    +0.000 NA
ATOM     29  C   UNL     1       0.481  10.616  19.791  0.00  0.00    +0.000 A 
ATOM     30  C   UNL     1      -0.878  10.864  19.940  0.00  0.00    +0.000 A 
BRANCH  25  33
ATOM     31  C   UNL     1      -5.006  12.204  18.764  0.00  0.00    +0.000 C 
ATOM     32  N   UNL     1      -3.577  12.016  18.744  0.00  0.00    +0.000 N 
ATOM     33  C   UNL     1      -2.790  12.448  19.792  0.00  0.00    +0.000 C 
ATOM     34  O   UNL     1      -3.230  13.011  20.787  0.00  0.00    +0.000 OA
ATOM     35  H   UNL     1      -3.195  11.379  18.057  0.00  0.00    +0.000 HD
ENDBRANCH  25  33
ENDBRANCH  23  29
ENDBRANCH   1  24
TORSDOF 6
ENDMDL
MODEL 2
REMARK VINA RESULT:      -8.9      1.470      1.727
REMARK  Name = 
REMARK  7 active torsions:
REMARK  status: ('A' for Active; 'I' for Inactive)
REMARK    1  A    between atoms: C_1  and  N_2
REMARK    2  A    between atoms: C_3  and  C_5
REMARK    3  A    between atoms: C_9  and  C_10
REMARK    4  A    between atoms: C_11  and  C_12
REMARK    5  A    between atoms: C_17  and  C_18
REMARK    6  A    between atoms: C_18  and  C_19
REMARK    7  A    between atoms: C_22  and  C_23
REMARK                            x       y       z     vdW  Elec       q    Type
REMARK                         _______ _______ _______ _____ _____    ______ ____
ROOT
ATOM      1  C   UNL     1       1.860   6.486  20.128  0.00  0.00    +0.000 A 
ATOM      2  C   UNL     1       1.399   5.531  21.035  0.00  0.00    +0.000 A 
ATOM      3  C   UNL     1       1.925   4.242  20.995  0.00  0.00    +0.000 A 
ATOM      4  C   UNL     1       2.904   3.910  20.051  0.00  0.00    +0.000 A 
ATOM      5  F   UNL     1       3.488   2.709  20.155  0.00  0.00    +0.000 F 
ATOM      6  C   UNL     1       3.310   4.804  19.050  0.00  0.00    +0.000 A 
ATOM      7  C   UNL     1       2.760   6.106  19.112  0.00  0.00    +0.000 A 
ENDROOT
BRANCH   6   8
ATOM      8  C   UNL     1       4.313   4.390  17.945  0.00  0.00    +0.000 C 
ATOM      9  C   UNL     1       5.774   4.290  18.434  0.00  0.00    +0.000 C 
ATOM     10  C   UNL     1       6.360   5.679  18.607  0.00  0.00    +0.000 C 
ATOM     11  O   UNL     1       6.206   6.429  17.383  0.00  0.00    +0.000 OA
ATOM     12  C   UNL     1       5.162   6.162  16.580  0.00  0.00    +0.000 C 
ATOM     13  N   UNL     1       5.182   6.957  15.494  0.00  0.00    +0.000 N 
ATOM     14  N   UNL     1       4.247   5.303  16.791  0.00  0.00    +0.000 NA
ATOM     15  H   UNL     1       5.709   7.814  15.578  0.00  0.00    +0.000 HD
ATOM     16  H   UNL     1       4.304   7.016  14.996  0.00  0.00    +0.000 HD
BRANCH  10  17
ATOM     17  C   UNL     1       7.842   5.660  19.009  0.00  0.00    +0.000 C 
ATOM     18  F   UNL     1       8.027   5.501  20.339  0.00  0.00    +0.000 F 
ATOM     19  F   UNL     1       8.535   4.678  18.388  0.00  0.00    +0.000 F 
ATOM     20  F   UNL     1       8.432   6.832  18.664  0.00  0.00    +0.000 F 
ENDBRANCH  10  17
BRANCH   8  21
ATOM     21  C   UNL     1       3.938   2.989  17.366  0.00  0.00    +0.000 C 
ATOM     22  F   UNL     1       2.631   2.991  16.963  0.00  0.00    +0.000 F 
ENDBRANCH   8  21
ENDBRANCH   6   8
BRANCH   1  24
ATOM     23  C   UNL     1       1.112   9.003  20.416  0.00  0.00    +0.000 C 
ATOM     24  C   UNL     1       1.521   7.868  20.308  0.00  0.00    +0.000 C 
BRANCH  23  29
ATOM     25  C   UNL     1      -0.669  12.067  21.528  0.00  0.00    +0.000 A 
ATOM     26  C   UNL     1      -0.531  12.830  20.369  0.00  0.00    +0.000 A 
ATOM     27  C   UNL     1       0.175  12.279  19.317  0.00  0.00    +0.000 A 
ATOM     28  N   UNL     1       0.716  11.043  19.340  0.00  0.00    +0.000 NA
ATOM     29  C   UNL     1       0.580  10.329  20.476  0.00  0.00    +0.000 A 
ATOM     30  C   UNL     1      -0.080  10.802  21.603  0.00  0.00    +0.000 A 
BRANCH  25  33
ATOM     31  C   UNL     1      -3.577  12.678  23.872  0.00  0.00    +0.000 C 
ATOM     32  N   UNL     1      -2.762  12.265  22.757  0.00  0.00    +0.000 N 
ATOM     33  C   UNL     1      -1.421  12.585  22.703  0.00  0.00    +0.000 C 
ATOM     34  O   UNL     1      -0.838  13.228  23.568  0.00  0.00    +0.000 OA
ATOM     35  H   UNL     1      -3.138  11.565  22.133  0.00  0.00    +0.000 HD
ENDBRANCH  25  33
ENDBRANCH  23  29
ENDBRANCH   1  24
TORSDOF 6
ENDMDL
MODEL 3
REMARK VINA RESULT:      -8.8      1.695      2.880
REMARK  Name = 
REMARK  7 active torsions:
REMARK  status: ('A' for Active; 'I' for Inactive)
REMARK    1  A    between atoms: C_1  and  N_2
REMARK    2  A    between atoms: C_3  and  C_5
REMARK    3  A    between atoms: C_9  and  C_10
REMARK    4  A    between atoms: C_11  and  C_12
REMARK    5  A    between atoms: C_17  and  C_18
REMARK    6  A    between atoms: C_18  and  C_19
REMARK    7  A    between atoms: C_22  and  C_23
REMARK                            x       y       z     vdW  Elec       q    Type
REMARK                         _______ _______ _______ _____ _____    ______ ____
ROOT
ATOM      1  C   UNL     1       1.890   7.279  19.370  0.00  0.00    +0.000 A 
ATOM      2  C   UNL     1       1.338   6.655  20.490  0.00  0.00    +0.000 A 
ATOM      3  C   UNL     1       1.782   5.384  20.851  0.00  0.00    +0.000 A 
ATOM      4  C   UNL     1       2.769   4.742  20.095  0.00  0.00    +0.000 A 
ATOM      5  F   UNL     1       3.270   3.595  20.571  0.00  0.00    +0.000 F 
ATOM      6  C   UNL     1       3.265   5.283  18.900  0.00  0.00    +0.000 A 
ATOM      7  C   UNL     1       2.797   6.573  18.555  0.00  0.00    +0.000 A 
ENDROOT
BRANCH   6   8
ATOM      8  C   UNL     1       4.276   4.514  18.015  0.00  0.00    +0.000 C 
ATOM      9  C   UNL     1       5.687   4.402  18.631  0.00  0.00    +0.000 C 
ATOM     10  C   UNL     1       6.413   5.729  18.510  0.00  0.00    +0.000 C 
ATOM     11  O   UNL     1       6.412   6.161  17.132  0.00  0.00    +0.000 OA
ATOM     12  C   UNL     1       5.393   5.800  16.335  0.00  0.00    +0.000 C 
ATOM     13  N   UNL     1       5.562   6.293  15.094  0.00  0.00    +0.000 N 
ATOM     14  N   UNL     1       4.376   5.111  16.673  0.00  0.00    +0.000 NA
ATOM     15  H   UNL     1       6.176   7.091  15.011  0.00  0.00    +0.000 HD
ATOM     16  H   UNL     1       4.725   6.308  14.526  0.00  0.00    +0.000 HD
BRANCH  10  17
ATOM     17  C   UNL     1       7.859   5.672  19.025  0.00  0.00    +0.000 C 
ATOM     18  F   UNL     1       8.574   4.662  18.482  0.00  0.00    +0.000 F 
ATOM     19  F   UNL     1       8.539   6.818  18.787  0.00  0.00    +0.000 F 
ATOM     20  F   UNL     1       7.866   5.486  20.369  0.00  0.00    +0.000 F 
ENDBRANCH  10  17
BRANCH   8  21
ATOM     21  C   UNL     1       3.781   3.054  17.764  0.00  0.00    +0.000 C 
ATOM     22  F   UNL     1       2.581   3.080  17.106  0.00  0.00    +0.000 F 
ENDBRANCH   8  21
ENDBRANCH   6   8
BRANCH   1  24
ATOM     23  C   UNL     1       1.296   9.821  18.971  0.00  0.00    +0.000 C 
ATOM     24  C   UNL     1       1.634   8.668  19.126  0.00  0.00    +0.000 C 
BRANCH  23  29
ATOM     25  C   UNL     1       1.131  13.511  18.573  0.00  0.00    +0.000 A 
ATOM     26  C   UNL     1      -0.255  13.667  18.576  0.00  0.00    +0.000 A 
ATOM     27  C   UNL     1      -1.030  12.527  18.674  0.00  0.00    +0.000 A 
ATOM     28  N   UNL     1      -0.524  11.282  18.790  0.00  0.00    +0.000 NA
ATOM     29  C   UNL     1       0.819  11.155  18.773  0.00  0.00    +0.000 A 
ATOM     30  C   UNL     1       1.688  12.231  18.643  0.00  0.00    +0.000 A 
BRANCH  25  33
ATOM     31  C   UNL     1       4.161  15.570  17.622  0.00  0.00    +0.000 C 
ATOM     32  N   UNL     1       3.229  14.488  17.811  0.00  0.00    +0.000 N 
ATOM     33  C   UNL     1       2.036  14.688  18.477  0.00  0.00    +0.000 C 
ATOM     34  O   UNL     1       1.691  15.765  18.947  0.00  0.00    +0.000 OA
ATOM     35  H   UNL     1       3.366  13.646  17.268  0.00  0.00    +0.000 HD
ENDBRANCH  25  33
ENDBRANCH  23  29
ENDBRANCH   1  24
TORSDOF 6
ENDMDL
MODEL 4
REMARK VINA RESULT:      -8.8      1.919      2.357
REMARK  Name = 
REMARK  7 active torsions:
REMARK  status: ('A' for Active; 'I' for Inactive)
REMARK    1  A    between atoms: C_1  and  N_2
REMARK    2  A    between atoms: C_3  and  C_5
REMARK    3  A    between atoms: C_9  and  C_10
REMARK    4  A    between atoms: C_11  and  C_12
REMARK    5  A    between atoms: C_17  and  C_18
REMARK    6  A    between atoms: C_18  and  C_19
REMARK    7  A    between atoms: C_22  and  C_23
REMARK                            x       y       z     vdW  Elec       q    Type
REMARK                         _______ _______ _______ _____ _____    ______ ____
ROOT
ATOM      1  C   UNL     1       1.841   5.908  20.369  0.00  0.00    +0.000 A 
ATOM      2  C   UNL     1       1.448   4.803  21.126  0.00  0.00    +0.000 A 
ATOM      3  C   UNL     1       2.045   3.567  20.889  0.00  0.00    +0.000 A 
ATOM      4  C   UNL     1       3.026   3.437  19.900  0.00  0.00    +0.000 A 
ATOM      5  F   UNL     1       3.678   2.270  19.818  0.00  0.00    +0.000 F 
ATOM      6  C   UNL     1       3.366   4.493  19.041  0.00  0.00    +0.000 A 
ATOM      7  C   UNL     1       2.744   5.737  19.302  0.00  0.00    +0.000 A 
ENDROOT
BRANCH   6   8
ATOM      8  C   UNL     1       4.373   4.307  17.880  0.00  0.00    +0.000 C 
ATOM      9  C   UNL     1       5.846   4.238  18.336  0.00  0.00    +0.000 C 
ATOM     10  C   UNL     1       6.343   5.625  18.699  0.00  0.00    +0.000 C 
ATOM     11  O   UNL     1       6.118   6.528  17.596  0.00  0.00    +0.000 OA
ATOM     12  C   UNL     1       5.079   6.306  16.772  0.00  0.00    +0.000 C 
ATOM     13  N   UNL     1       5.027   7.245  15.809  0.00  0.00    +0.000 N 
ATOM     14  N   UNL     1       4.226   5.366  16.867  0.00  0.00    +0.000 NA
ATOM     15  H   UNL     1       5.499   8.116  16.009  0.00  0.00    +0.000 HD
ATOM     16  H   UNL     1       4.138   7.315  15.332  0.00  0.00    +0.000 HD
BRANCH  10  17
ATOM     17  C   UNL     1       7.831   5.650  19.082  0.00  0.00    +0.000 C 
ATOM     18  F   UNL     1       8.037   5.521  20.411  0.00  0.00    +0.000 F 
ATOM     19  F   UNL     1       8.539   4.673  18.469  0.00  0.00    +0.000 F 
ATOM     20  F   UNL     1       8.387   6.829  18.707  0.00  0.00    +0.000 F 
ENDBRANCH  10  17
BRANCH   8  21
ATOM     21  C   UNL     1       4.081   2.979  17.111  0.00  0.00    +0.000 C 
ATOM     22  F   UNL     1       2.740   2.880  16.855  0.00  0.00    +0.000 F 
ENDBRANCH   8  21
ENDBRANCH   6   8
BRANCH   1  24
ATOM     23  C   UNL     1       0.969   8.280  21.138  0.00  0.00    +0.000 C 
ATOM     24  C   UNL     1       1.427   7.225  20.756  0.00  0.00    +0.000 C 
BRANCH  23  29
ATOM     25  C   UNL     1       0.117  11.867  21.588  0.00  0.00    +0.000 A 
ATOM     26  C   UNL     1      -0.788  11.744  22.642  0.00  0.00    +0.000 A 
ATOM     27  C   UNL     1      -1.073  10.471  23.099  0.00  0.00    +0.000 A 
ATOM     28  N   UNL     1      -0.511   9.351  22.601  0.00  0.00    +0.000 NA
ATOM     29  C   UNL     1       0.353   9.494  21.575  0.00  0.00    +0.000 A 
ATOM     30  C   UNL     1       0.681  10.724  21.018  0.00  0.00    +0.000 A 
BRANCH  25  33
ATOM     31  C   UNL     1      -0.115  15.014  19.497  0.00  0.00    +0.000 C 
ATOM     32  N   UNL     1      -0.350  13.710  20.065  0.00  0.00    +0.000 N 
ATOM     33  C   UNL     1       0.482  13.202  21.043  0.00  0.00    +0.000 C 
ATOM     34  O   UNL     1       1.455  13.799  21.486  0.00  0.00    +0.000 OA
ATOM     35  H   UNL     1      -1.245  13.274  19.890  0.00  0.00    +0.000 HD
ENDBRANCH  25  33
ENDBRANCH  23  29
ENDBRANCH   1  24
TORSDOF 6
ENDMDL
MODEL 5
REMARK VINA RESULT:      -8.7      1.452      2.135
REMARK  Name = 
REMARK  7 active torsions:
REMARK  status: ('A' for Active; 'I' for Inactive)
REMARK    1  A    between atoms: C_1  and  N_2
REMARK    2  A    between atoms: C_3  and  C_5
REMARK    3  A    between atoms: C_9  and  C_10
REMARK    4  A    between atoms: C_11  and  C_12
REMARK    5  A    between atoms: C_17  and  C_18
REMARK    6  A    between atoms: C_18  and  C_19
REMARK    7  A    between atoms: C_22  and  C_23
REMARK                            x       y       z     vdW  Elec       q    Type
REMARK                         _______ _______ _______ _____ _____    ______ ____
ROOT
ATOM      1  C   UNL     1       1.828   5.641  20.499  0.00  0.00    +0.000 A 
ATOM      2  C   UNL     1       1.571   4.504  21.268  0.00  0.00    +0.000 A 
ATOM      3  C   UNL     1       2.269   3.329  21.001  0.00  0.00    +0.000 A 
ATOM      4  C   UNL     1       3.215   3.290  19.971  0.00  0.00    +0.000 A 
ATOM      5  F   UNL     1       3.968   2.188  19.857  0.00  0.00    +0.000 F 
ATOM      6  C   UNL     1       3.419   4.372  19.102  0.00  0.00    +0.000 A 
ATOM      7  C   UNL     1       2.697   5.554  19.394  0.00  0.00    +0.000 A 
ENDROOT
BRANCH   6   8
ATOM      8  C   UNL     1       4.389   4.280  17.899  0.00  0.00    +0.000 C 
ATOM      9  C   UNL     1       5.879   4.239  18.300  0.00  0.00    +0.000 C 
ATOM     10  C   UNL     1       6.344   5.622  18.717  0.00  0.00    +0.000 C 
ATOM     11  O   UNL     1       6.049   6.571  17.671  0.00  0.00    +0.000 OA
ATOM     12  C   UNL     1       4.990   6.357  16.873  0.00  0.00    +0.000 C 
ATOM     13  N   UNL     1       4.872   7.341  15.963  0.00  0.00    +0.000 N 
ATOM     14  N   UNL     1       4.171   5.384  16.949  0.00  0.00    +0.000 NA
ATOM     15  H   UNL     1       5.322   8.216  16.191  0.00  0.00    +0.000 HD
ATOM     16  H   UNL     1       3.965   7.404  15.521  0.00  0.00    +0.000 HD
BRANCH  10  17
ATOM     17  C   UNL     1       7.843   5.678  19.049  0.00  0.00    +0.000 C 
ATOM     18  F   UNL     1       8.556   4.704  18.440  0.00  0.00    +0.000 F 
ATOM     19  F   UNL     1       8.405   6.861  18.706  0.00  0.00    +0.000 F 
ATOM     20  F   UNL     1       8.029   5.530  20.384  0.00  0.00    +0.000 F 
ENDBRANCH  10  17
BRANCH   8  21
ATOM     21  C   UNL     1       4.112   2.984  17.073  0.00  0.00    +0.000 C 
ATOM     22  F   UNL     1       2.768   2.860  16.847  0.00  0.00    +0.000 F 
ENDBRANCH   8  21
ENDBRANCH   6   8
BRANCH   1  24
ATOM     23  C   UNL     1       0.764   7.959  21.186  0.00  0.00    +0.000 C 
ATOM     24  C   UNL     1       1.311   6.914  20.909  0.00  0.00    +0.000 C 
BRANCH  23  29
ATOM     25  C   UNL     1      -0.701  11.350  20.799  0.00  0.00    +0.000 A 
ATOM     26  C   UNL     1      -1.088  11.571  22.121  0.00  0.00    +0.000 A 
ATOM     27  C   UNL     1      -0.864  10.558  23.034  0.00  0.00    +0.000 A 
ATOM     28  N   UNL     1      -0.275   9.384  22.725  0.00  0.00    +0.000 NA
ATOM     29  C   UNL     1       0.080   9.189  21.439  0.00  0.00    +0.000 A 
ATOM     30  C   UNL     1      -0.131  10.128  20.436  0.00  0.00    +0.000 A 
BRANCH  25  33
ATOM     31  C   UNL     1      -0.104  14.510  18.802  0.00  0.00    +0.000 C 
ATOM     32  N   UNL     1      -0.029  13.463  19.790  0.00  0.00    +0.000 N 
ATOM     33  C   UNL     1      -0.901  12.393  19.757  0.00  0.00    +0.000 C 
ATOM     34  O   UNL     1      -1.780  12.256  18.915  0.00  0.00    +0.000 OA
ATOM     35  H   UNL     1       0.798  13.420  20.369  0.00  0.00    +0.000 HD
ENDBRANCH  25  33
ENDBRANCH  23  29
ENDBRANCH   1  24
TORSDOF 6
ENDMDL
MODEL 6
REMARK VINA RESULT:      -8.6      1.614      2.022
REMARK  Name = 
REMARK  7 active torsions:
REMARK  status: ('A' for Active; 'I' for Inactive)
REMARK    1  A    between atoms: C_1  and  N_2
REMARK    2  A    between atoms: C_3  and  C_5
REMARK    3  A    between atoms: C_9  and  C_10
REMARK    4  A    between atoms: C_11  and  C_12
REMARK    5  A    between atoms: C_17  and  C_18
REMARK    6  A    between atoms: C_18  and  C_19
REMARK    7  A    between atoms: C_22  and  C_23
REMARK                            x       y       z     vdW  Elec       q    Type
REMARK                         _______ _______ _______ _____ _____    ______ ____
ROOT
ATOM      1  C   UNL     1       1.814   6.852  19.838  0.00  0.00    +0.000 A 
ATOM      2  C   UNL     1       1.371   6.024  20.870  0.00  0.00    +0.000 A 
ATOM      3  C   UNL     1       1.924   4.753  21.010  0.00  0.00    +0.000 A 
ATOM      4  C   UNL     1       2.911   4.313  20.121  0.00  0.00    +0.000 A 
ATOM      5  F   UNL     1       3.519   3.151  20.391  0.00  0.00    +0.000 F 
ATOM      6  C   UNL     1       3.301   5.067  19.004  0.00  0.00    +0.000 A 
ATOM      7  C   UNL     1       2.723   6.353  18.884  0.00  0.00    +0.000 A 
ENDROOT
BRANCH   6   8
ATOM      8  C   UNL     1       4.314   4.523  17.967  0.00  0.00    +0.000 C 
ATOM      9  C   UNL     1       5.757   4.412  18.504  0.00  0.00    +0.000 C 
ATOM     10  C   UNL     1       6.392   5.788  18.576  0.00  0.00    +0.000 C 
ATOM     11  O   UNL     1       6.298   6.436  17.289  0.00  0.00    +0.000 OA
ATOM     12  C   UNL     1       5.266   6.140  16.482  0.00  0.00    +0.000 C 
ATOM     13  N   UNL     1       5.344   6.838  15.334  0.00  0.00    +0.000 N 
ATOM     14  N   UNL     1       4.312   5.336  16.739  0.00  0.00    +0.000 NA
ATOM     15  H   UNL     1       5.902   7.679  15.360  0.00  0.00    +0.000 HD
ATOM     16  H   UNL     1       4.482   6.886  14.808  0.00  0.00    +0.000 HD
BRANCH  10  17
ATOM     17  C   UNL     1       7.862   5.748  19.020  0.00  0.00    +0.000 C 
ATOM     18  F   UNL     1       8.559   4.739  18.454  0.00  0.00    +0.000 F 
ATOM     19  F   UNL     1       8.519   6.898  18.737  0.00  0.00    +0.000 F 
ATOM     20  F   UNL     1       7.937   5.577  20.364  0.00  0.00    +0.000 F 
ENDBRANCH  10  17
BRANCH   8  21
ATOM     21  C   UNL     1       3.899   3.093  17.497  0.00  0.00    +0.000 C 
ATOM     22  F   UNL     1       2.644   3.131  16.953  0.00  0.00    +0.000 F 
ENDBRANCH   8  21
ENDBRANCH   6   8
BRANCH   1  24
ATOM     23  C   UNL     1       1.155   9.408  19.943  0.00  0.00    +0.000 C 
ATOM     24  C   UNL     1       1.445   8.238  19.823  0.00  0.00    +0.000 C 
BRANCH  23  29
ATOM     25  C   UNL     1      -0.175  12.526  21.461  0.00  0.00    +0.000 A 
ATOM     26  C   UNL     1      -0.046  13.374  20.361  0.00  0.00    +0.000 A 
ATOM     27  C   UNL     1       0.509  12.852  19.208  0.00  0.00    +0.000 A 
ATOM     28  N   UNL     1       0.908  11.569  19.081  0.00  0.00    +0.000 NA
ATOM     29  C   UNL     1       0.783  10.771  20.160  0.00  0.00    +0.000 A 
ATOM     30  C   UNL     1       0.271  11.205  21.377  0.00  0.00    +0.000 A 
BRANCH  25  33
ATOM     31  C   UNL     1      -1.317  14.955  24.131  0.00  0.00    +0.000 C 
ATOM     32  N   UNL     1      -0.733  14.373  22.948  0.00  0.00    +0.000 N 
ATOM     33  C   UNL     1      -0.768  13.009  22.737  0.00  0.00    +0.000 C 
ATOM     34  O   UNL     1      -1.278  12.213  23.515  0.00  0.00    +0.000 OA
ATOM     35  H   UNL     1      -0.492  14.993  22.187  0.00  0.00    +0.000 HD
ENDBRANCH  25  33
ENDBRANCH  23  29
ENDBRANCH   1  24
TORSDOF 6
ENDMDL
MODEL 7
REMARK VINA RESULT:      -8.5      1.431      2.323
REMARK  Name = 
REMARK  7 active torsions:
REMARK  status: ('A' for Active; 'I' for Inactive)
REMARK    1  A    between atoms: C_1  and  N_2
REMARK    2  A    between atoms: C_3  and  C_5
REMARK    3  A    between atoms: C_9  and  C_10
REMARK    4  A    between atoms: C_11  and  C_12
REMARK    5  A    between atoms: C_17  and  C_18
REMARK    6  A    between atoms: C_18  and  C_19
REMARK    7  A    between atoms: C_22  and  C_23
REMARK                            x       y       z     vdW  Elec       q    Type
REMARK                         _______ _______ _______ _____ _____    ______ ____
ROOT
ATOM      1  C   UNL     1       1.856   6.811  19.923  0.00  0.00    +0.000 A 
ATOM      2  C   UNL     1       1.372   5.956  20.915  0.00  0.00    +0.000 A 
ATOM      3  C   UNL     1       1.882   4.664  21.009  0.00  0.00    +0.000 A 
ATOM      4  C   UNL     1       2.867   4.229  20.116  0.00  0.00    +0.000 A 
ATOM      5  F   UNL     1       3.433   3.037  20.346  0.00  0.00    +0.000 F 
ATOM      6  C   UNL     1       3.296   5.013  19.036  0.00  0.00    +0.000 A 
ATOM      7  C   UNL     1       2.762   6.322  18.962  0.00  0.00    +0.000 A 
ENDROOT
BRANCH   6   8
ATOM      8  C   UNL     1       4.306   4.480  17.991  0.00  0.00    +0.000 C 
ATOM      9  C   UNL     1       5.752   4.371  18.519  0.00  0.00    +0.000 C 
ATOM     10  C   UNL     1       6.382   5.749  18.596  0.00  0.00    +0.000 C 
ATOM     11  O   UNL     1       6.279   6.404  17.313  0.00  0.00    +0.000 OA
ATOM     12  C   UNL     1       5.244   6.108  16.510  0.00  0.00    +0.000 C 
ATOM     13  N   UNL     1       5.313   6.812  15.365  0.00  0.00    +0.000 N 
ATOM     14  N   UNL     1       4.295   5.299  16.767  0.00  0.00    +0.000 NA
ATOM     15  H   UNL     1       5.868   7.656  15.393  0.00  0.00    +0.000 HD
ATOM     16  H   UNL     1       4.448   6.861  14.844  0.00  0.00    +0.000 HD
BRANCH  10  17
ATOM     17  C   UNL     1       7.855   5.713  19.032  0.00  0.00    +0.000 C 
ATOM     18  F   UNL     1       8.516   6.860  18.758  0.00  0.00    +0.000 F 
ATOM     19  F   UNL     1       7.996   5.476  20.358  0.00  0.00    +0.000 F 
ATOM     20  F   UNL     1       8.507   4.715  18.386  0.00  0.00    +0.000 F 
ENDBRANCH  10  17
BRANCH   8  21
ATOM     21  C   UNL     1       3.895   3.050  17.515  0.00  0.00    +0.000 C 
ATOM     22  F   UNL     1       2.621   3.079  17.016  0.00  0.00    +0.000 F 
ENDBRANCH   8  21
ENDBRANCH   6   8
BRANCH   1  24
ATOM     23  C   UNL     1       1.143   9.355  19.934  0.00  0.00    +0.000 C 
ATOM     24  C   UNL     1       1.532   8.208  19.961  0.00  0.00    +0.000 C 
BRANCH  23  29
ATOM     25  C   UNL     1       0.443  12.944  20.589  0.00  0.00    +0.000 A 
ATOM     26  C   UNL     1      -0.537  13.153  19.618  0.00  0.00    +0.000 A 
ATOM     27  C   UNL     1      -0.864  12.092  18.795  0.00  0.00    +0.000 A 
ATOM     28  N   UNL     1      -0.309  10.866  18.893  0.00  0.00    +0.000 NA
ATOM     29  C   UNL     1       0.643  10.691  19.831  0.00  0.00    +0.000 A 
ATOM     30  C   UNL     1       1.071  11.700  20.686  0.00  0.00    +0.000 A 
BRANCH  25  33
ATOM     31  C   UNL     1       2.249  16.020  21.854  0.00  0.00    +0.000 C 
ATOM     32  N   UNL     1       1.813  14.903  21.054  0.00  0.00    +0.000 N 
ATOM     33  C   UNL     1       0.847  14.032  21.518  0.00  0.00    +0.000 C 
ATOM     34  O   UNL     1       0.307  14.135  22.612  0.00  0.00    +0.000 OA
ATOM     35  H   UNL     1       2.069  14.895  20.076  0.00  0.00    +0.000 HD
ENDBRANCH  25  33
ENDBRANCH  23  29
ENDBRANCH   1  24
TORSDOF 6
ENDMDL
MODEL 8
REMARK VINA RESULT:      -8.5      0.832      1.082
REMARK  Name = 
REMARK  7 active torsions:
REMARK  status: ('A' for Active; 'I' for Inactive)
REMARK    1  A    between atoms: C_1  and  N_2
REMARK    2  A    between atoms: C_3  and  C_5
REMARK    3  A    between atoms: C_9  and  C_10
REMARK    4  A    between atoms: C_11  and  C_12
REMARK    5  A    between atoms: C_17  and  C_18
REMARK    6  A    between atoms: C_18  and  C_19
REMARK    7  A    between atoms: C_22  and  C_23
REMARK                            x       y       z     vdW  Elec       q    Type
REMARK                         _______ _______ _______ _____ _____    ______ ____
ROOT
ATOM      1  C   UNL     1       1.827   7.242  19.488  0.00  0.00    +0.000 A 
ATOM      2  C   UNL     1       1.354   6.585  20.625  0.00  0.00    +0.000 A 
ATOM      3  C   UNL     1       1.865   5.331  20.950  0.00  0.00    +0.000 A 
ATOM      4  C   UNL     1       2.842   4.738  20.143  0.00  0.00    +0.000 A 
ATOM      5  F   UNL     1       3.412   3.608  20.582  0.00  0.00    +0.000 F 
ATOM      6  C   UNL     1       3.260   5.310  18.933  0.00  0.00    +0.000 A 
ATOM      7  C   UNL     1       2.724   6.583  18.624  0.00  0.00    +0.000 A 
ENDROOT
BRANCH   6   8
ATOM      8  C   UNL     1       4.260   4.593  17.994  0.00  0.00    +0.000 C 
ATOM      9  C   UNL     1       5.675   4.437  18.590  0.00  0.00    +0.000 C 
ATOM     10  C   UNL     1       6.407   5.766  18.544  0.00  0.00    +0.000 C 
ATOM     11  O   UNL     1       6.397   6.281  17.196  0.00  0.00    +0.000 OA
ATOM     12  C   UNL     1       5.369   5.975  16.387  0.00  0.00    +0.000 C 
ATOM     13  N   UNL     1       5.531   6.542  15.176  0.00  0.00    +0.000 N 
ATOM     14  N   UNL     1       4.353   5.271  16.690  0.00  0.00    +0.000 NA
ATOM     15  H   UNL     1       6.148   7.341  15.137  0.00  0.00    +0.000 HD
ATOM     16  H   UNL     1       4.690   6.595  14.618  0.00  0.00    +0.000 HD
BRANCH  10  17
ATOM     17  C   UNL     1       7.857   5.671  19.043  0.00  0.00    +0.000 C 
ATOM     18  F   UNL     1       7.945   5.469  20.376  0.00  0.00    +0.000 F 
ATOM     19  F   UNL     1       8.548   4.675  18.440  0.00  0.00    +0.000 F 
ATOM     20  F   UNL     1       8.518   6.824  18.771  0.00  0.00    +0.000 F 
ENDBRANCH  10  17
BRANCH   8  21
ATOM     21  C   UNL     1       3.756   3.153  17.658  0.00  0.00    +0.000 C 
ATOM     22  F   UNL     1       2.440   3.201  17.282  0.00  0.00    +0.000 F 
ENDBRANCH   8  21
ENDBRANCH   6   8
BRANCH   1  24
ATOM     23  C   UNL     1       1.245   9.805  19.220  0.00  0.00    +0.000 C 
ATOM     24  C   UNL     1       1.503   8.622  19.271  0.00  0.00    +0.000 C 
BRANCH  23  29
ATOM     25  C   UNL     1      -0.586  13.008  19.652  0.00  0.00    +0.000 A 
ATOM     26  C   UNL     1       0.324  13.863  19.031  0.00  0.00    +0.000 A 
ATOM     27  C   UNL     1       1.496  13.312  18.547  0.00  0.00    +0.000 A 
ATOM     28  N   UNL     1       1.796  11.999  18.621  0.00  0.00    +0.000 NA
ATOM     29  C   UNL     1       0.906  11.194  19.235  0.00  0.00    +0.000 A 
ATOM     30  C   UNL     1      -0.286  11.650  19.787  0.00  0.00    +0.000 A 
BRANCH  25  33
ATOM     31  C   UNL     1      -4.301  13.187  20.358  0.00  0.00    +0.000 C 
ATOM     32  N   UNL     1      -3.005  12.805  19.854  0.00  0.00    +0.000 N 
ATOM     33  C   UNL     1      -1.874  13.520  20.193  0.00  0.00    +0.000 C 
ATOM     34  O   UNL     1      -1.883  14.505  20.920  0.00  0.00    +0.000 OA
ATOM     35  H   UNL     1      -2.915  11.892  19.430  0.00  0.00    +0.000 HD
ENDBRANCH  25  33
ENDBRANCH  23  29
ENDBRANCH   1  24
TORSDOF 6
ENDMDL
MODEL 9
REMARK VINA RESULT:      -8.4      2.580      4.399
REMARK  Name = 
REMARK  7 active torsions:
REMARK  status: ('A' for Active; 'I' for Inactive)
REMARK    1  A    between atoms: C_1  and  N_2
REMARK    2  A    between atoms: C_3  and  C_5
REMARK    3  A    between atoms: C_9  and  C_10
REMARK    4  A    between atoms: C_11  and  C_12
REMARK    5  A    between atoms: C_17  and  C_18
REMARK    6  A    between atoms: C_18  and  C_19
REMARK    7  A    between atoms: C_22  and  C_23
REMARK                            x       y       z     vdW  Elec       q    Type
REMARK                         _______ _______ _______ _____ _____    ______ ____
ROOT
ATOM      1  C   UNL     1       3.638   7.307  17.729  0.00  0.00    +0.000 A 
ATOM      2  C   UNL     1       4.948   7.592  17.341  0.00  0.00    +0.000 A 
ATOM      3  C   UNL     1       5.819   6.544  17.057  0.00  0.00    +0.000 A 
ATOM      4  C   UNL     1       5.383   5.218  17.162  0.00  0.00    +0.000 A 
ATOM      5  F   UNL     1       6.207   4.255  16.729  0.00  0.00    +0.000 F 
ATOM      6  C   UNL     1       4.114   4.886  17.658  0.00  0.00    +0.000 A 
ATOM      7  C   UNL     1       3.249   5.970  17.941  0.00  0.00    +0.000 A 
ENDROOT
BRANCH   6   8
ATOM      8  C   UNL     1       3.683   3.415  17.874  0.00  0.00    +0.000 C 
ATOM      9  C   UNL     1       2.267   3.260  18.468  0.00  0.00    +0.000 C 
ATOM     10  C   UNL     1       2.286   3.593  19.949  0.00  0.00    +0.000 C 
ATOM     11  O   UNL     1       3.287   2.794  20.615  0.00  0.00    +0.000 OA
ATOM     12  C   UNL     1       4.376   2.407  19.930  0.00  0.00    +0.000 C 
ATOM     13  N   UNL     1       5.194   1.676  20.710  0.00  0.00    +0.000 N 
ATOM     14  N   UNL     1       4.648   2.691  18.719  0.00  0.00    +0.000 NA
ATOM     15  H   UNL     1       5.086   1.799  21.707  0.00  0.00    +0.000 HD
ATOM     16  H   UNL     1       6.141   1.589  20.367  0.00  0.00    +0.000 HD
BRANCH  10  17
ATOM     17  C   UNL     1       0.926   3.378  20.631  0.00  0.00    +0.000 C 
ATOM     18  F   UNL     1       0.108   2.559  19.933  0.00  0.00    +0.000 F 
ATOM     19  F   UNL     1       1.047   2.859  21.875  0.00  0.00    +0.000 F 
ATOM     20  F   UNL     1       0.281   4.564  20.764  0.00  0.00    +0.000 F 
ENDBRANCH  10  17
BRANCH   8  21
ATOM     21  C   UNL     1       3.685   2.641  16.517  0.00  0.00    +0.000 C 
ATOM     22  F   UNL     1       2.590   3.002  15.778  0.00  0.00    +0.000 F 
ENDBRANCH   8  21
ENDBRANCH   6   8
BRANCH   1  24
ATOM     23  C   UNL     1       1.816   9.206  17.959  0.00  0.00    +0.000 C 
ATOM     24  C   UNL     1       2.662   8.357  17.785  0.00  0.00    +0.000 C 
BRANCH  23  29
ATOM     25  C   UNL     1      -1.473  10.930  18.060  0.00  0.00    +0.000 A 
ATOM     26  C   UNL     1      -1.064  12.144  18.611  0.00  0.00    +0.000 A 
ATOM     27  C   UNL     1       0.272  12.283  18.941  0.00  0.00    +0.000 A 
ATOM     28  N   UNL     1       1.199  11.325  18.739  0.00  0.00    +0.000 NA
ATOM     29  C   UNL     1       0.778  10.156  18.215  0.00  0.00    +0.000 A 
ATOM     30  C   UNL     1      -0.546   9.899  17.881  0.00  0.00    +0.000 A 
BRANCH  25  33
ATOM     31  C   UNL     1      -5.017  11.728  16.999  0.00  0.00    +0.000 C 
ATOM     32  N   UNL     1      -3.644  11.832  17.424  0.00  0.00    +0.000 N 
ATOM     33  C   UNL     1      -2.890  10.702  17.671  0.00  0.00    +0.000 C 
ATOM     34  O   UNL     1      -3.318   9.560  17.557  0.00  0.00    +0.000 OA
ATOM     35  H   UNL     1      -3.188  12.730  17.330  0.00  0.00    +0.000 HD
ENDBRANCH  25  33
ENDBRANCH  23  29
ENDBRANCH   1  24
TORSDOF 6
ENDMDL
