MODEL 1
REMARK VINA RESULT:      -7.3      0.000      0.000
REMARK  Name = 
REMARK  4 active torsions:
REMARK  status: ('A' for Active; 'I' for Inactive)
REMARK    1  A    between atoms: C_1  and  N_2
REMARK    2  A    between atoms: C_4  and  S_5
REMARK    3  A    between atoms: S_5  and  N_8
REMARK    4  A    between atoms: C_17  and  C_18
REMARK                            x       y       z     vdW  Elec       q    Type
REMARK                         _______ _______ _______ _____ _____    ______ ____
ROOT
ATOM      1  S   UNL     1       6.657   5.577  17.290  0.00  0.00    +0.000 S 
ATOM      2  O   UNL     1       7.022   6.665  18.168  0.00  0.00    +0.000 OA
ATOM      3  O   UNL     1       7.508   4.416  17.112  0.00  0.00    +0.000 OA
ENDROOT
BRANCH   1   4
ATOM      4  N   UNL     1       6.274   6.200  15.764  0.00  0.00    +0.000 N 
ATOM      5  C   UNL     1       6.412   5.288  14.696  0.00  0.00    +0.000 A 
ATOM      6  C   UNL     1       5.404   4.428  14.285  0.00  0.00    +0.000 A 
ATOM      7  C   UNL     1       5.637   3.628  13.163  0.00  0.00    +0.000 A 
ATOM      8  C   UNL     1       6.861   3.712  12.511  0.00  0.00    +0.000 A 
ATOM      9 CL   UNL     1       7.189   2.749  11.129  0.00  0.00    +0.000 Cl
ATOM     10  C   UNL     1       7.803   4.604  13.003  0.00  0.00    +0.000 A 
ATOM     11  N   UNL     1       7.603   5.403  14.083  0.00  0.00    +0.000 NA
ATOM     12  H   UNL     1       6.863   7.005  15.564  0.00  0.00    +0.000 HD
ENDBRANCH   1   4
BRANCH   1  16
ATOM     13  C   UNL     1       2.701   4.665  20.594  0.00  0.00    +0.000 C 
ATOM     14  N   UNL     1       3.555   4.533  19.430  0.00  0.00    +0.000 N 
ATOM     15  C   UNL     1       4.673   5.296  19.214  0.00  0.00    +0.000 A 
ATOM     16  C   UNL     1       5.225   4.908  18.014  0.00  0.00    +0.000 A 
ATOM     17  C   UNL     1       4.411   3.870  17.493  0.00  0.00    +0.000 A 
ATOM     18  C   UNL     1       3.371   3.637  18.387  0.00  0.00    +0.000 A 
BRANCH  18  19
ATOM     19  C   UNL     1       2.276   2.683  18.319  0.00  0.00    +0.000 C 
ATOM     20  N   UNL     1       2.602   1.378  18.567  0.00  0.00    +0.000 N 
ATOM     21  O   UNL     1       1.116   2.966  18.071  0.00  0.00    +0.000 OA
ATOM     22  H   UNL     1       3.531   1.062  18.789  0.00  0.00    +0.000 HD
ATOM     23  H   UNL     1       1.850   0.705  18.531  0.00  0.00    +0.000 HD
ENDBRANCH  18  19
ENDBRANCH   1  16
TORSDOF 3
ENDMDL
MODEL 2
REMARK VINA RESULT:      -7.3      1.455      1.484
REMARK  Name = 
REMARK  4 active torsions:
REMARK  status: ('A' for Active; 'I' for Inactive)
REMARK    1  A    between atoms: C_1  and  N_2
REMARK    2  A    between atoms: C_4  and  S_5
REMARK    3  A    between atoms: S_5  and  N_8
REMARK    4  A    between atoms: C_17  and  C_18
REMARK                            x       y       z     vdW  Elec       q    Type
REMARK                         _______ _______ _______ _____ _____    ______ ____
ROOT
ATOM      1  S   UNL     1       6.720   5.367  18.369  0.00  0.00    +0.000 S 
ATOM      2  O   UNL     1       7.325   6.241  19.348  0.00  0.00    +0.000 OA
ATOM      3  O   UNL     1       7.299   4.082  18.026  0.00  0.00    +0.000 OA
ENDROOT
BRANCH   1   4
ATOM      4  N   UNL     1       6.454   6.233  16.941  0.00  0.00    +0.000 N 
ATOM      5  C   UNL     1       6.375   5.446  15.771  0.00  0.00    +0.000 A 
ATOM      6  C   UNL     1       5.200   4.873  15.308  0.00  0.00    +0.000 A 
ATOM      7  C   UNL     1       5.238   4.181  14.095  0.00  0.00    +0.000 A 
ATOM      8  C   UNL     1       6.441   4.082  13.406  0.00  0.00    +0.000 A 
ATOM      9 CL   UNL     1       6.532   3.244  11.912  0.00  0.00    +0.000 Cl
ATOM     10  C   UNL     1       7.560   4.691  13.956  0.00  0.00    +0.000 A 
ATOM     11  N   UNL     1       7.554   5.380  15.126  0.00  0.00    +0.000 NA
ATOM     12  H   UNL     1       7.199   6.914  16.808  0.00  0.00    +0.000 HD
ENDBRANCH   1   4
BRANCH   1  16
ATOM     13  C   UNL     1       1.910   5.662  20.413  0.00  0.00    +0.000 C 
ATOM     14  N   UNL     1       3.151   5.079  19.941  0.00  0.00    +0.000 N 
ATOM     15  C   UNL     1       4.189   5.811  19.426  0.00  0.00    +0.000 A 
ATOM     16  C   UNL     1       5.190   4.934  19.072  0.00  0.00    +0.000 A 
ATOM     17  C   UNL     1       4.737   3.628  19.390  0.00  0.00    +0.000 A 
ATOM     18  C   UNL     1       3.462   3.728  19.938  0.00  0.00    +0.000 A 
BRANCH  18  19
ATOM     19  C   UNL     1       2.571   2.687  20.425  0.00  0.00    +0.000 C 
ATOM     20  N   UNL     1       2.563   2.488  21.778  0.00  0.00    +0.000 N 
ATOM     21  O   UNL     1       1.842   2.005  19.723  0.00  0.00    +0.000 OA
ATOM     22  H   UNL     1       3.124   3.013  22.428  0.00  0.00    +0.000 HD
ATOM     23  H   UNL     1       1.942   1.775  22.131  0.00  0.00    +0.000 HD
ENDBRANCH  18  19
ENDBRANCH   1  16
TORSDOF 3
ENDMDL
MODEL 3
REMARK VINA RESULT:      -7.3      1.373      1.851
REMARK  Name = 
REMARK  4 active torsions:
REMARK  status: ('A' for Active; 'I' for Inactive)
REMARK    1  A    between atoms: C_1  and  N_2
REMARK    2  A    between atoms: C_4  and  S_5
REMARK    3  A    between atoms: S_5  and  N_8
REMARK    4  A    between atoms: C_17  and  C_18
REMARK                            x       y       z     vdW  Elec       q    Type
REMARK                         _______ _______ _______ _____ _____    ______ ____
ROOT
ATOM      1  S   UNL     1       7.236   5.615  17.848  0.00  0.00    +0.000 S 
ATOM      2  O   UNL     1       7.724   6.631  18.753  0.00  0.00    +0.000 OA
ATOM      3  O   UNL     1       7.991   4.408  17.570  0.00  0.00    +0.000 OA
ENDROOT
BRANCH   1   4
ATOM      4  N   UNL     1       6.815   6.336  16.377  0.00  0.00    +0.000 N 
ATOM      5  C   UNL     1       6.539   5.434  15.328  0.00  0.00    +0.000 A 
ATOM      6  C   UNL     1       5.286   4.889  15.093  0.00  0.00    +0.000 A 
ATOM      7  C   UNL     1       5.123   4.068  13.974  0.00  0.00    +0.000 A 
ATOM      8  C   UNL     1       6.213   3.821  13.148  0.00  0.00    +0.000 A 
ATOM      9 CL   UNL     1       6.057   2.821  11.762  0.00  0.00    +0.000 Cl
ATOM     10  C   UNL     1       7.424   4.414  13.471  0.00  0.00    +0.000 A 
ATOM     11  N   UNL     1       7.612   5.225  14.545  0.00  0.00    +0.000 NA
ATOM     12  H   UNL     1       7.566   6.951  16.070  0.00  0.00    +0.000 HD
ENDBRANCH   1   4
BRANCH   1  16
ATOM     13  C   UNL     1       3.835   2.473  20.290  0.00  0.00    +0.000 C 
ATOM     14  N   UNL     1       4.370   3.662  19.656  0.00  0.00    +0.000 N 
ATOM     15  C   UNL     1       5.633   3.740  19.127  0.00  0.00    +0.000 A 
ATOM     16  C   UNL     1       5.801   5.011  18.623  0.00  0.00    +0.000 A 
ATOM     17  C   UNL     1       4.594   5.718  18.853  0.00  0.00    +0.000 A 
ATOM     18  C   UNL     1       3.701   4.865  19.495  0.00  0.00    +0.000 A 
BRANCH  18  19
ATOM     19  C   UNL     1       2.339   5.105  19.944  0.00  0.00    +0.000 C 
ATOM     20  N   UNL     1       2.195   5.995  20.972  0.00  0.00    +0.000 N 
ATOM     21  O   UNL     1       1.344   4.585  19.468  0.00  0.00    +0.000 OA
ATOM     22  H   UNL     1       2.961   6.476  21.414  0.00  0.00    +0.000 HD
ATOM     23  H   UNL     1       1.253   6.178  21.289  0.00  0.00    +0.000 HD
ENDBRANCH  18  19
ENDBRANCH   1  16
TORSDOF 3
ENDMDL
MODEL 4
REMARK VINA RESULT:      -7.2      3.333      6.330
REMARK  Name = 
REMARK  4 active torsions:
REMARK  status: ('A' for Active; 'I' for Inactive)
REMARK    1  A    between atoms: C_1  and  N_2
REMARK    2  A    between atoms: C_4  and  S_5
REMARK    3  A    between atoms: S_5  and  N_8
REMARK    4  A    between atoms: C_17  and  C_18
REMARK                            x       y       z     vdW  Elec       q    Type
REMARK                         _______ _______ _______ _____ _____    ______ ____
ROOT
ATOM      1  S   UNL     1       6.291   5.329  16.705  0.00  0.00    +0.000 S 
ATOM      2  O   UNL     1       7.629   5.799  16.980  0.00  0.00    +0.000 OA
ATOM      3  O   UNL     1       5.146   6.219  16.724  0.00  0.00    +0.000 OA
ENDROOT
BRANCH   1   4
ATOM      4  N   UNL     1       5.954   4.001  17.697  0.00  0.00    +0.000 N 
ATOM      5  C   UNL     1       4.633   3.944  18.191  0.00  0.00    +0.000 A 
ATOM      6  C   UNL     1       3.584   3.343  17.511  0.00  0.00    +0.000 A 
ATOM      7  C   UNL     1       2.338   3.284  18.142  0.00  0.00    +0.000 A 
ATOM      8  C   UNL     1       2.191   3.833  19.410  0.00  0.00    +0.000 A 
ATOM      9 CL   UNL     1       0.680   3.781  20.222  0.00  0.00    +0.000 Cl
ATOM     10  C   UNL     1       3.304   4.413  20.003  0.00  0.00    +0.000 A 
ATOM     11  N   UNL     1       4.530   4.476  19.422  0.00  0.00    +0.000 NA
ATOM     12  H   UNL     1       6.585   4.000  18.496  0.00  0.00    +0.000 HD
ENDBRANCH   1   4
BRANCH   1  16
ATOM     13  C   UNL     1       7.748   4.764  11.709  0.00  0.00    +0.000 C 
ATOM     14  N   UNL     1       6.987   4.583  12.930  0.00  0.00    +0.000 N 
ATOM     15  C   UNL     1       7.270   5.226  14.107  0.00  0.00    +0.000 A 
ATOM     16  C   UNL     1       6.356   4.806  15.048  0.00  0.00    +0.000 A 
ATOM     17  C   UNL     1       5.490   3.881  14.410  0.00  0.00    +0.000 A 
ATOM     18  C   UNL     1       5.889   3.750  13.084  0.00  0.00    +0.000 A 
BRANCH  18  19
ATOM     19  C   UNL     1       5.332   2.932  12.018  0.00  0.00    +0.000 C 
ATOM     20  N   UNL     1       6.032   1.801  11.703  0.00  0.00    +0.000 N 
ATOM     21  O   UNL     1       4.304   3.180  11.411  0.00  0.00    +0.000 OA
ATOM     22  H   UNL     1       6.882   1.518  12.161  0.00  0.00    +0.000 HD
ATOM     23  H   UNL     1       5.653   1.218  10.970  0.00  0.00    +0.000 HD
ENDBRANCH  18  19
ENDBRANCH   1  16
TORSDOF 3
ENDMDL
MODEL 5
REMARK VINA RESULT:      -7.2      1.017      1.197
REMARK  Name = 
REMARK  4 active torsions:
REMARK  status: ('A' for Active; 'I' for Inactive)
REMARK    1  A    between atoms: C_1  and  N_2
REMARK    2  A    between atoms: C_4  and  S_5
REMARK    3  A    between atoms: S_5  and  N_8
REMARK    4  A    between atoms: C_17  and  C_18
REMARK                            x       y       z     vdW  Elec       q    Type
REMARK                         _______ _______ _______ _____ _____    ______ ____
ROOT
ATOM      1  S   UNL     1       6.727   5.674  17.204  0.00  0.00    +0.000 S 
ATOM      2  O   UNL     1       6.964   6.814  18.059  0.00  0.00    +0.000 OA
ATOM      3  O   UNL     1       7.716   4.627  17.029  0.00  0.00    +0.000 OA
ENDROOT
BRANCH   1   4
ATOM      4  N   UNL     1       6.243   6.216  15.677  0.00  0.00    +0.000 N 
ATOM      5  C   UNL     1       6.389   5.274  14.636  0.00  0.00    +0.000 A 
ATOM      6  C   UNL     1       5.417   4.343  14.300  0.00  0.00    +0.000 A 
ATOM      7  C   UNL     1       5.649   3.516  13.197  0.00  0.00    +0.000 A 
ATOM      8  C   UNL     1       6.838   3.646  12.489  0.00  0.00    +0.000 A 
ATOM      9 CL   UNL     1       7.163   2.653  11.128  0.00  0.00    +0.000 Cl
ATOM     10  C   UNL     1       7.745   4.608  12.907  0.00  0.00    +0.000 A 
ATOM     11  N   UNL     1       7.545   5.434  13.967  0.00  0.00    +0.000 NA
ATOM     12  H   UNL     1       6.775   7.045  15.422  0.00  0.00    +0.000 HD
ENDBRANCH   1   4
BRANCH   1  16
ATOM     13  C   UNL     1       3.965   2.436  20.252  0.00  0.00    +0.000 C 
ATOM     14  N   UNL     1       4.248   3.457  19.262  0.00  0.00    +0.000 N 
ATOM     15  C   UNL     1       5.514   3.853  18.918  0.00  0.00    +0.000 A 
ATOM     16  C   UNL     1       5.403   4.841  17.964  0.00  0.00    +0.000 A 
ATOM     17  C   UNL     1       4.020   5.041  17.725  0.00  0.00    +0.000 A 
ATOM     18  C   UNL     1       3.303   4.168  18.538  0.00  0.00    +0.000 A 
BRANCH  18  19
ATOM     19  C   UNL     1       1.867   3.979  18.668  0.00  0.00    +0.000 C 
ATOM     20  N   UNL     1       1.289   4.524  19.781  0.00  0.00    +0.000 N 
ATOM     21  O   UNL     1       1.164   3.389  17.865  0.00  0.00    +0.000 OA
ATOM     22  H   UNL     1       1.794   5.035  20.486  0.00  0.00    +0.000 HD
ATOM     23  H   UNL     1       0.291   4.408  19.880  0.00  0.00    +0.000 HD
ENDBRANCH  18  19
ENDBRANCH   1  16
TORSDOF 3
ENDMDL
MODEL 6
REMARK VINA RESULT:      -7.1      1.646      2.116
REMARK  Name = 
REMARK  4 active torsions:
REMARK  status: ('A' for Active; 'I' for Inactive)
REMARK    1  A    between atoms: C_1  and  N_2
REMARK    2  A    between atoms: C_4  and  S_5
REMARK    3  A    between atoms: S_5  and  N_8
REMARK    4  A    between atoms: C_17  and  C_18
REMARK                            x       y       z     vdW  Elec       q    Type
REMARK                         _______ _______ _______ _____ _____    ______ ____
ROOT
ATOM      1  S   UNL     1       6.376   5.134  18.510  0.00  0.00    +0.000 S 
ATOM      2  O   UNL     1       6.660   5.997  19.634  0.00  0.00    +0.000 OA
ATOM      3  O   UNL     1       7.273   4.065  18.117  0.00  0.00    +0.000 OA
ENDROOT
BRANCH   1   4
ATOM      4  N   UNL     1       6.045   6.084  17.150  0.00  0.00    +0.000 N 
ATOM      5  C   UNL     1       6.160   5.415  15.912  0.00  0.00    +0.000 A 
ATOM      6  C   UNL     1       5.121   4.711  15.321  0.00  0.00    +0.000 A 
ATOM      7  C   UNL     1       5.337   4.158  14.056  0.00  0.00    +0.000 A 
ATOM      8  C   UNL     1       6.574   4.321  13.444  0.00  0.00    +0.000 A 
ATOM      9 CL   UNL     1       6.881   3.660  11.891  0.00  0.00    +0.000 Cl
ATOM     10  C   UNL     1       7.546   5.043  14.121  0.00  0.00    +0.000 A 
ATOM     11  N   UNL     1       7.365   5.601  15.346  0.00  0.00    +0.000 NA
ATOM     12  H   UNL     1       6.673   6.884  17.130  0.00  0.00    +0.000 HD
ENDBRANCH   1   4
BRANCH   1  16
ATOM     13  C   UNL     1       2.502   1.619  18.713  0.00  0.00    +0.000 C 
ATOM     14  N   UNL     1       3.296   2.784  19.049  0.00  0.00    +0.000 N 
ATOM     15  C   UNL     1       4.443   3.141  18.388  0.00  0.00    +0.000 A 
ATOM     16  C   UNL     1       4.934   4.284  18.981  0.00  0.00    +0.000 A 
ATOM     17  C   UNL     1       4.047   4.626  20.033  0.00  0.00    +0.000 A 
ATOM     18  C   UNL     1       3.021   3.686  20.066  0.00  0.00    +0.000 A 
BRANCH  18  19
ATOM     19  C   UNL     1       1.871   3.590  20.950  0.00  0.00    +0.000 C 
ATOM     20  N   UNL     1       0.683   4.035  20.438  0.00  0.00    +0.000 N 
ATOM     21  O   UNL     1       1.895   3.141  22.083  0.00  0.00    +0.000 OA
ATOM     22  H   UNL     1       0.574   4.410  19.511  0.00  0.00    +0.000 HD
ATOM     23  H   UNL     1      -0.126   3.967  21.038  0.00  0.00    +0.000 HD
ENDBRANCH  18  19
ENDBRANCH   1  16
TORSDOF 3
ENDMDL
MODEL 7
REMARK VINA RESULT:      -7.1      1.831      2.144
REMARK  Name = 
REMARK  4 active torsions:
REMARK  status: ('A' for Active; 'I' for Inactive)
REMARK    1  A    between atoms: C_1  and  N_2
REMARK    2  A    between atoms: C_4  and  S_5
REMARK    3  A    between atoms: S_5  and  N_8
REMARK    4  A    between atoms: C_17  and  C_18
REMARK                            x       y       z     vdW  Elec       q    Type
REMARK                         _______ _______ _______ _____ _____    ______ ____
ROOT
ATOM      1  S   UNL     1       6.472   5.436  18.717  0.00  0.00    +0.000 S 
ATOM      2  O   UNL     1       6.204   6.593  17.894  0.00  0.00    +0.000 OA
ATOM      3  O   UNL     1       7.214   5.533  19.960  0.00  0.00    +0.000 OA
ENDROOT
BRANCH   1   4
ATOM      4  N   UNL     1       7.176   4.228  17.765  0.00  0.00    +0.000 N 
ATOM      5  C   UNL     1       6.798   4.242  16.406  0.00  0.00    +0.000 A 
ATOM      6  C   UNL     1       7.448   4.990  15.435  0.00  0.00    +0.000 A 
ATOM      7  C   UNL     1       7.027   4.858  14.109  0.00  0.00    +0.000 A 
ATOM      8  C   UNL     1       5.974   4.000  13.813  0.00  0.00    +0.000 A 
ATOM      9 CL   UNL     1       5.426   3.807  12.198  0.00  0.00    +0.000 Cl
ATOM     10  C   UNL     1       5.391   3.298  14.857  0.00  0.00    +0.000 A 
ATOM     11  N   UNL     1       5.784   3.396  16.153  0.00  0.00    +0.000 NA
ATOM     12  H   UNL     1       6.942   3.313  18.143  0.00  0.00    +0.000 HD
ENDBRANCH   1   4
BRANCH   1  16
ATOM     13  C   UNL     1       1.516   5.453  20.403  0.00  0.00    +0.000 C 
ATOM     14  N   UNL     1       2.797   4.939  19.958  0.00  0.00    +0.000 N 
ATOM     15  C   UNL     1       3.862   5.734  19.623  0.00  0.00    +0.000 A 
ATOM     16  C   UNL     1       4.899   4.912  19.239  0.00  0.00    +0.000 A 
ATOM     17  C   UNL     1       4.439   3.575  19.352  0.00  0.00    +0.000 A 
ATOM     18  C   UNL     1       3.124   3.600  19.807  0.00  0.00    +0.000 A 
BRANCH  18  19
ATOM     19  C   UNL     1       2.211   2.503  20.087  0.00  0.00    +0.000 C 
ATOM     20  N   UNL     1       1.842   1.741  19.013  0.00  0.00    +0.000 N 
ATOM     21  O   UNL     1       1.774   2.221  21.190  0.00  0.00    +0.000 OA
ATOM     22  H   UNL     1       2.165   1.899  18.073  0.00  0.00    +0.000 HD
ATOM     23  H   UNL     1       1.215   0.971  19.194  0.00  0.00    +0.000 HD
ENDBRANCH  18  19
ENDBRANCH   1  16
TORSDOF 3
ENDMDL
MODEL 8
REMARK VINA RESULT:      -7.0      1.122      1.768
REMARK  Name = 
REMARK  4 active torsions:
REMARK  status: ('A' for Active; 'I' for Inactive)
REMARK    1  A    between atoms: C_1  and  N_2
REMARK    2  A    between atoms: C_4  and  S_5
REMARK    3  A    between atoms: S_5  and  N_8
REMARK    4  A    between atoms: C_17  and  C_18
REMARK                            x       y       z     vdW  Elec       q    Type
REMARK                         _______ _______ _______ _____ _____    ______ ____
ROOT
ATOM      1  S   UNL     1       6.543   5.492  17.550  0.00  0.00    +0.000 S 
ATOM      2  O   UNL     1       6.951   6.555  18.440  0.00  0.00    +0.000 OA
ATOM      3  O   UNL     1       7.369   4.320  17.325  0.00  0.00    +0.000 OA
ENDROOT
BRANCH   1   4
ATOM      4  N   UNL     1       6.129   6.152  16.049  0.00  0.00    +0.000 N 
ATOM      5  C   UNL     1       6.296   5.284  14.948  0.00  0.00    +0.000 A 
ATOM      6  C   UNL     1       5.320   4.401  14.511  0.00  0.00    +0.000 A 
ATOM      7  C   UNL     1       5.579   3.650  13.361  0.00  0.00    +0.000 A 
ATOM      8  C   UNL     1       6.795   3.803  12.708  0.00  0.00    +0.000 A 
ATOM      9 CL   UNL     1       7.153   2.902  11.292  0.00  0.00    +0.000 Cl
ATOM     10  C   UNL     1       7.705   4.713  13.228  0.00  0.00    +0.000 A 
ATOM     11  N   UNL     1       7.480   5.465  14.336  0.00  0.00    +0.000 NA
ATOM     12  H   UNL     1       6.686   6.985  15.874  0.00  0.00    +0.000 HD
ENDBRANCH   1   4
BRANCH   1  16
ATOM     13  C   UNL     1       2.500   2.368  18.688  0.00  0.00    +0.000 C 
ATOM     14  N   UNL     1       3.407   3.496  18.766  0.00  0.00    +0.000 N 
ATOM     15  C   UNL     1       4.481   3.669  17.931  0.00  0.00    +0.000 A 
ATOM     16  C   UNL     1       5.120   4.832  18.300  0.00  0.00    +0.000 A 
ATOM     17  C   UNL     1       4.400   5.379  19.392  0.00  0.00    +0.000 A 
ATOM     18  C   UNL     1       3.327   4.540  19.675  0.00  0.00    +0.000 A 
BRANCH  18  19
ATOM     19  C   UNL     1       2.295   4.654  20.693  0.00  0.00    +0.000 C 
ATOM     20  N   UNL     1       2.354   3.743  21.711  0.00  0.00    +0.000 N 
ATOM     21  O   UNL     1       1.410   5.493  20.701  0.00  0.00    +0.000 OA
ATOM     22  H   UNL     1       3.056   3.025  21.786  0.00  0.00    +0.000 HD
ATOM     23  H   UNL     1       1.649   3.815  22.430  0.00  0.00    +0.000 HD
ENDBRANCH  18  19
ENDBRANCH   1  16
TORSDOF 3
ENDMDL
MODEL 9
REMARK VINA RESULT:      -6.9      3.403      6.660
REMARK  Name = 
REMARK  4 active torsions:
REMARK  status: ('A' for Active; 'I' for Inactive)
REMARK    1  A    between atoms: C_1  and  N_2
REMARK    2  A    between atoms: C_4  and  S_5
REMARK    3  A    between atoms: S_5  and  N_8
REMARK    4  A    between atoms: C_17  and  C_18
REMARK                            x       y       z     vdW  Elec       q    Type
REMARK                         _______ _______ _______ _____ _____    ______ ____
ROOT
ATOM      1  S   UNL     1       5.376   5.243  17.342  0.00  0.00    +0.000 S 
ATOM      2  O   UNL     1       5.901   4.141  18.116  0.00  0.00    +0.000 OA
ATOM      3  O   UNL     1       5.844   6.603  17.527  0.00  0.00    +0.000 OA
ENDROOT
BRANCH   1   4
ATOM      4  N   UNL     1       3.687   5.238  17.443  0.00  0.00    +0.000 N 
ATOM      5  C   UNL     1       3.161   4.646  18.611  0.00  0.00    +0.000 A 
ATOM      6  C   UNL     1       2.947   5.339  19.793  0.00  0.00    +0.000 A 
ATOM      7  C   UNL     1       2.347   4.658  20.857  0.00  0.00    +0.000 A 
ATOM      8  C   UNL     1       1.999   3.322  20.699  0.00  0.00    +0.000 A 
ATOM      9 CL   UNL     1       1.259   2.450  21.977  0.00  0.00    +0.000 Cl
ATOM     10  C   UNL     1       2.257   2.721  19.475  0.00  0.00    +0.000 A 
ATOM     11  N   UNL     1       2.828   3.358  18.420  0.00  0.00    +0.000 NA
ATOM     12  H   UNL     1       3.297   4.746  16.642  0.00  0.00    +0.000 HD
ENDBRANCH   1   4
BRANCH   1  16
ATOM     13  C   UNL     1       8.002   5.181  12.814  0.00  0.00    +0.000 C 
ATOM     14  N   UNL     1       6.980   4.871  13.794  0.00  0.00    +0.000 N 
ATOM     15  C   UNL     1       6.949   5.404  15.057  0.00  0.00    +0.000 A 
ATOM     16  C   UNL     1       5.854   4.881  15.709  0.00  0.00    +0.000 A 
ATOM     17  C   UNL     1       5.203   4.006  14.803  0.00  0.00    +0.000 A 
ATOM     18  C   UNL     1       5.910   4.009  13.605  0.00  0.00    +0.000 A 
BRANCH  18  19
ATOM     19  C   UNL     1       5.657   3.287  12.369  0.00  0.00    +0.000 C 
ATOM     20  N   UNL     1       6.605   2.372  12.003  0.00  0.00    +0.000 N 
ATOM     21  O   UNL     1       4.674   3.435  11.662  0.00  0.00    +0.000 OA
ATOM     22  H   UNL     1       7.439   2.181  12.534  0.00  0.00    +0.000 HD
ATOM     23  H   UNL     1       6.438   1.856  11.151  0.00  0.00    +0.000 HD
ENDBRANCH  18  19
ENDBRANCH   1  16
TORSDOF 3
ENDMDL
