MODEL 1
REMARK VINA RESULT:      -7.6      0.000      0.000
REMARK  Name = 
REMARK  6 active torsions:
REMARK  status: ('A' for Active; 'I' for Inactive)
REMARK    1  A    between atoms: C_1  and  C_2
REMARK    2  A    between atoms: C_3  and  C_4
REMARK    3  A    between atoms: C_4  and  O_5
REMARK    4  A    between atoms: C_14  and  O_15
REMARK    5  A    between atoms: O_15  and  C_16
REMARK    6  A    between atoms: C_16  and  C_17
REMARK                            x       y       z     vdW  Elec       q    Type
REMARK                         _______ _______ _______ _____ _____    ______ ____
ROOT
ATOM      1  C   UNL     1       3.745   7.381  17.814  0.00  0.00    +0.000 C 
ATOM      2  C   UNL     1       3.301   6.325  18.797  0.00  0.00    +0.000 A 
ATOM      3  C   UNL     1       3.839   5.008  18.860  0.00  0.00    +0.000 A 
ATOM      4  C   UNL     1       3.323   4.160  19.861  0.00  0.00    +0.000 A 
ATOM      5  C   UNL     1       2.348   4.615  20.727  0.00  0.00    +0.000 A 
ATOM      6  N   UNL     1       1.814   5.838  20.659  0.00  0.00    +0.000 NA
ATOM      7  C   UNL     1       2.277   6.665  19.698  0.00  0.00    +0.000 A 
ENDROOT
BRANCH   3   8
ATOM      8  C   UNL     1       5.002   4.511  17.977  0.00  0.00    +0.000 C 
ATOM      9  C   UNL     1       4.792   4.719  16.453  0.00  0.00    +0.000 C 
ATOM     10  C   UNL     1       5.965   4.194  15.623  0.00  0.00    +0.000 C 
ATOM     11  N   UNL     1       7.233   4.803  16.021  0.00  0.00    +0.000 NA
ATOM     12  C   UNL     1       7.482   4.577  17.446  0.00  0.00    +0.000 C 
ATOM     13  C   UNL     1       6.364   5.156  18.319  0.00  0.00    +0.000 C 
ATOM     14  H   UNL     1       7.208   5.807  15.840  0.00  0.00    +0.000 HD
BRANCH   8  15
ATOM     15  O   UNL     1       5.076   3.091  18.177  0.00  0.00    +0.000 OA
ATOM     16  H   UNL     1       4.513   2.669  17.504  0.00  0.00    +0.000 HD
ENDBRANCH   8  15
ENDBRANCH   3   8
BRANCH   7  17
ATOM     17  O   UNL     1       1.721   7.937  19.634  0.00  0.00    +0.000 OA
BRANCH  17  18
ATOM     18  C   UNL     1       1.302   8.378  20.932  0.00  0.00    +0.000 C 
BRANCH  18  19
ATOM     19  C   UNL     1       0.353   9.558  20.917  0.00  0.00    +0.000 A 
ATOM     20  C   UNL     1      -0.086  10.177  19.742  0.00  0.00    +0.000 A 
ATOM     21  C   UNL     1      -0.923  11.302  19.804  0.00  0.00    +0.000 A 
ATOM     22  C   UNL     1      -1.316  11.819  21.040  0.00  0.00    +0.000 A 
ATOM     23  C   UNL     1      -0.869  11.212  22.206  0.00  0.00    +0.000 A 
ATOM     24  F   UNL     1      -1.232  11.712  23.394  0.00  0.00    +0.000 F 
ATOM     25  C   UNL     1      -0.042  10.097  22.154  0.00  0.00    +0.000 A 
ENDBRANCH  18  19
ENDBRANCH  17  18
ENDBRANCH   7  17
TORSDOF 5
ENDMDL
MODEL 2
REMARK VINA RESULT:      -7.6      1.037      1.449
REMARK  Name = 
REMARK  6 active torsions:
REMARK  status: ('A' for Active; 'I' for Inactive)
REMARK    1  A    between atoms: C_1  and  C_2
REMARK    2  A    between atoms: C_3  and  C_4
REMARK    3  A    between atoms: C_4  and  O_5
REMARK    4  A    between atoms: C_14  and  O_15
REMARK    5  A    between atoms: O_15  and  C_16
REMARK    6  A    between atoms: C_16  and  C_17
REMARK                            x       y       z     vdW  Elec       q    Type
REMARK                         _______ _______ _______ _____ _____    ______ ____
ROOT
ATOM      1  C   UNL     1       3.723   7.433  17.890  0.00  0.00    +0.000 C 
ATOM      2  C   UNL     1       3.377   6.217  18.714  0.00  0.00    +0.000 A 
ATOM      3  C   UNL     1       3.948   4.927  18.522  0.00  0.00    +0.000 A 
ATOM      4  C   UNL     1       3.526   3.911  19.403  0.00  0.00    +0.000 A 
ATOM      5  C   UNL     1       2.607   4.185  20.397  0.00  0.00    +0.000 A 
ATOM      6  N   UNL     1       2.042   5.384  20.568  0.00  0.00    +0.000 NA
ATOM      7  C   UNL     1       2.414   6.371  19.726  0.00  0.00    +0.000 A 
ENDROOT
BRANCH   3   8
ATOM      8  C   UNL     1       5.054   4.621  17.492  0.00  0.00    +0.000 C 
ATOM      9  C   UNL     1       4.868   5.317  16.116  0.00  0.00    +0.000 C 
ATOM     10  C   UNL     1       5.981   4.966  15.128  0.00  0.00    +0.000 C 
ATOM     11  N   UNL     1       7.305   5.290  15.656  0.00  0.00    +0.000 NA
ATOM     12  C   UNL     1       7.528   4.605  16.930  0.00  0.00    +0.000 C 
ATOM     13  C   UNL     1       6.475   4.987  17.975  0.00  0.00    +0.000 C 
ATOM     14  H   UNL     1       7.384   6.298  15.799  0.00  0.00    +0.000 HD
BRANCH   8  15
ATOM     15  O   UNL     1       4.980   3.209  17.236  0.00  0.00    +0.000 OA
ATOM     16  H   UNL     1       4.966   3.086  16.270  0.00  0.00    +0.000 HD
ENDBRANCH   8  15
ENDBRANCH   3   8
BRANCH   7  17
ATOM     17  O   UNL     1       1.826   7.617  19.910  0.00  0.00    +0.000 OA
BRANCH  17  18
ATOM     18  C   UNL     1       1.193   7.699  21.194  0.00  0.00    +0.000 C 
BRANCH  18  19
ATOM     19  C   UNL     1       0.461   9.000  21.450  0.00  0.00    +0.000 A 
ATOM     20  C   UNL     1      -0.001   9.387  22.712  0.00  0.00    +0.000 A 
ATOM     21  C   UNL     1      -0.720  10.583  22.867  0.00  0.00    +0.000 A 
ATOM     22  C   UNL     1      -0.989  11.390  21.760  0.00  0.00    +0.000 A 
ATOM     23  C   UNL     1      -0.541  10.998  20.505  0.00  0.00    +0.000 A 
ATOM     24  F   UNL     1      -0.808  11.762  19.439  0.00  0.00    +0.000 F 
ATOM     25  C   UNL     1       0.173   9.818  20.343  0.00  0.00    +0.000 A 
ENDBRANCH  18  19
ENDBRANCH  17  18
ENDBRANCH   7  17
TORSDOF 5
ENDMDL
MODEL 3
REMARK VINA RESULT:      -7.6      3.408      7.903
REMARK  Name = 
REMARK  6 active torsions:
REMARK  status: ('A' for Active; 'I' for Inactive)
REMARK    1  A    between atoms: C_1  and  C_2
REMARK    2  A    between atoms: C_3  and  C_4
REMARK    3  A    between atoms: C_4  and  O_5
REMARK    4  A    between atoms: C_14  and  O_15
REMARK    5  A    between atoms: O_15  and  C_16
REMARK    6  A    between atoms: C_16  and  C_17
REMARK                            x       y       z     vdW  Elec       q    Type
REMARK                         _______ _______ _______ _____ _____    ______ ____
ROOT
ATOM      1  C   UNL     1       1.825   9.191  17.657  0.00  0.00    +0.000 C 
ATOM      2  C   UNL     1       1.438   8.829  19.069  0.00  0.00    +0.000 A 
ATOM      3  C   UNL     1       0.532   9.578  19.872  0.00  0.00    +0.000 A 
ATOM      4  C   UNL     1       0.265   9.077  21.162  0.00  0.00    +0.000 A 
ATOM      5  C   UNL     1       0.864   7.911  21.597  0.00  0.00    +0.000 A 
ATOM      6  N   UNL     1       1.739   7.215  20.864  0.00  0.00    +0.000 NA
ATOM      7  C   UNL     1       2.027   7.682  19.631  0.00  0.00    +0.000 A 
ENDROOT
BRANCH   3   8
ATOM      8  C   UNL     1      -0.233  10.821  19.372  0.00  0.00    +0.000 C 
ATOM      9  C   UNL     1       0.672  11.996  18.913  0.00  0.00    +0.000 C 
ATOM     10  C   UNL     1      -0.135  13.208  18.445  0.00  0.00    +0.000 C 
ATOM     11  N   UNL     1      -1.063  12.866  17.368  0.00  0.00    +0.000 NA
ATOM     12  C   UNL     1      -1.964  11.794  17.793  0.00  0.00    +0.000 C 
ATOM     13  C   UNL     1      -1.196  10.532  18.200  0.00  0.00    +0.000 C 
ATOM     14  H   UNL     1      -0.541  12.560  16.546  0.00  0.00    +0.000 HD
BRANCH   8  15
ATOM     15  O   UNL     1      -0.977  11.310  20.500  0.00  0.00    +0.000 OA
ATOM     16  H   UNL     1      -0.484  11.070  21.304  0.00  0.00    +0.000 HD
ENDBRANCH   8  15
ENDBRANCH   3   8
BRANCH   7  17
ATOM     17  O   UNL     1       2.935   6.953  18.873  0.00  0.00    +0.000 OA
BRANCH  17  18
ATOM     18  C   UNL     1       3.437   5.833  19.614  0.00  0.00    +0.000 C 
BRANCH  18  19
ATOM     19  C   UNL     1       3.141   4.486  18.988  0.00  0.00    +0.000 A 
ATOM     20  C   UNL     1       4.075   3.765  18.235  0.00  0.00    +0.000 A 
ATOM     21  C   UNL     1       3.715   2.548  17.638  0.00  0.00    +0.000 A 
ATOM     22  C   UNL     1       2.419   2.049  17.783  0.00  0.00    +0.000 A 
ATOM     23  C   UNL     1       1.489   2.771  18.520  0.00  0.00    +0.000 A 
ATOM     24  F   UNL     1       0.241   2.304  18.650  0.00  0.00    +0.000 F 
ATOM     25  C   UNL     1       1.837   3.976  19.116  0.00  0.00    +0.000 A 
ENDBRANCH  18  19
ENDBRANCH  17  18
ENDBRANCH   7  17
TORSDOF 5
ENDMDL
MODEL 4
REMARK VINA RESULT:      -7.5      5.303      7.179
REMARK  Name = 
REMARK  6 active torsions:
REMARK  status: ('A' for Active; 'I' for Inactive)
REMARK    1  A    between atoms: C_1  and  C_2
REMARK    2  A    between atoms: C_3  and  C_4
REMARK    3  A    between atoms: C_4  and  O_5
REMARK    4  A    between atoms: C_14  and  O_15
REMARK    5  A    between atoms: O_15  and  C_16
REMARK    6  A    between atoms: C_16  and  C_17
REMARK                            x       y       z     vdW  Elec       q    Type
REMARK                         _______ _______ _______ _____ _____    ______ ____
ROOT
ATOM      1  C   UNL     1       6.940   5.511  19.652  0.00  0.00    +0.000 C 
ATOM      2  C   UNL     1       6.294   5.748  18.310  0.00  0.00    +0.000 A 
ATOM      3  C   UNL     1       5.221   4.973  17.786  0.00  0.00    +0.000 A 
ATOM      4  C   UNL     1       4.722   5.354  16.523  0.00  0.00    +0.000 A 
ATOM      5  C   UNL     1       5.264   6.433  15.854  0.00  0.00    +0.000 A 
ATOM      6  N   UNL     1       6.291   7.150  16.322  0.00  0.00    +0.000 NA
ATOM      7  C   UNL     1       6.801   6.795  17.520  0.00  0.00    +0.000 A 
ENDROOT
BRANCH   3   8
ATOM      8  C   UNL     1       4.526   3.833  18.559  0.00  0.00    +0.000 C 
ATOM      9  C   UNL     1       3.592   4.306  19.706  0.00  0.00    +0.000 C 
ATOM     10  C   UNL     1       2.943   3.138  20.451  0.00  0.00    +0.000 C 
ATOM     11  N   UNL     1       2.194   2.262  19.551  0.00  0.00    +0.000 NA
ATOM     12  C   UNL     1       3.066   1.760  18.487  0.00  0.00    +0.000 C 
ATOM     13  C   UNL     1       3.679   2.900  17.667  0.00  0.00    +0.000 C 
ATOM     14  H   UNL     1       1.417   2.776  19.134  0.00  0.00    +0.000 HD
BRANCH   8  15
ATOM     15  O   UNL     1       5.576   3.080  19.187  0.00  0.00    +0.000 OA
ATOM     16  H   UNL     1       5.277   2.852  20.085  0.00  0.00    +0.000 HD
ENDBRANCH   8  15
ENDBRANCH   3   8
BRANCH   7  17
ATOM     17  O   UNL     1       7.866   7.546  18.003  0.00  0.00    +0.000 OA
BRANCH  17  18
ATOM     18  C   UNL     1       7.777   8.906  17.558  0.00  0.00    +0.000 C 
BRANCH  18  19
ATOM     19  C   UNL     1       8.668   9.871  18.312  0.00  0.00    +0.000 A 
ATOM     20  C   UNL     1       9.043   9.689  19.647  0.00  0.00    +0.000 A 
ATOM     21  C   UNL     1       9.827  10.653  20.300  0.00  0.00    +0.000 A 
ATOM     22  C   UNL     1      10.230  11.807  19.625  0.00  0.00    +0.000 A 
ATOM     23  C   UNL     1       9.847  11.993  18.303  0.00  0.00    +0.000 A 
ATOM     24  F   UNL     1      10.219  13.103  17.656  0.00  0.00    +0.000 F 
ATOM     25  C   UNL     1       9.073  11.043  17.648  0.00  0.00    +0.000 A 
ENDBRANCH  18  19
ENDBRANCH  17  18
ENDBRANCH   7  17
TORSDOF 5
ENDMDL
MODEL 5
REMARK VINA RESULT:      -7.4      5.871      9.065
REMARK  Name = 
REMARK  6 active torsions:
REMARK  status: ('A' for Active; 'I' for Inactive)
REMARK    1  A    between atoms: C_1  and  C_2
REMARK    2  A    between atoms: C_3  and  C_4
REMARK    3  A    between atoms: C_4  and  O_5
REMARK    4  A    between atoms: C_14  and  O_15
REMARK    5  A    between atoms: O_15  and  C_16
REMARK    6  A    between atoms: C_16  and  C_17
REMARK                            x       y       z     vdW  Elec       q    Type
REMARK                         _______ _______ _______ _____ _____    ______ ____
ROOT
ATOM      1  C   UNL     1       5.497   2.986  16.257  0.00  0.00    +0.000 C 
ATOM      2  C   UNL     1       5.543   4.446  16.637  0.00  0.00    +0.000 A 
ATOM      3  C   UNL     1       4.634   5.072  17.536  0.00  0.00    +0.000 A 
ATOM      4  C   UNL     1       4.842   6.442  17.796  0.00  0.00    +0.000 A 
ATOM      5  C   UNL     1       5.889   7.115  17.196  0.00  0.00    +0.000 A 
ATOM      6  N   UNL     1       6.730   6.546  16.327  0.00  0.00    +0.000 NA
ATOM      7  C   UNL     1       6.542   5.239  16.046  0.00  0.00    +0.000 A 
ENDROOT
BRANCH   3   8
ATOM      8  C   UNL     1       3.526   4.319  18.302  0.00  0.00    +0.000 C 
ATOM      9  C   UNL     1       2.382   3.769  17.407  0.00  0.00    +0.000 C 
ATOM     10  C   UNL     1       1.302   3.048  18.217  0.00  0.00    +0.000 C 
ATOM     11  N   UNL     1       1.855   1.956  19.017  0.00  0.00    +0.000 NA
ATOM     12  C   UNL     1       2.903   2.457  19.908  0.00  0.00    +0.000 C 
ATOM     13  C   UNL     1       4.043   3.122  19.130  0.00  0.00    +0.000 C 
ATOM     14  H   UNL     1       2.249   1.242  18.403  0.00  0.00    +0.000 HD
BRANCH   8  15
ATOM     15  O   UNL     1       2.919   5.285  19.175  0.00  0.00    +0.000 OA
ATOM     16  H   UNL     1       3.572   5.515  19.859  0.00  0.00    +0.000 HD
ENDBRANCH   8  15
ENDBRANCH   3   8
BRANCH   7  17
ATOM     17  O   UNL     1       7.421   4.652  15.144  0.00  0.00    +0.000 OA
BRANCH  17  18
ATOM     18  C   UNL     1       7.194   5.141  13.816  0.00  0.00    +0.000 C 
BRANCH  18  19
ATOM     19  C   UNL     1       6.496   4.160  12.898  0.00  0.00    +0.000 A 
ATOM     20  C   UNL     1       5.105   4.077  12.776  0.00  0.00    +0.000 A 
ATOM     21  C   UNL     1       4.524   3.106  11.946  0.00  0.00    +0.000 A 
ATOM     22  C   UNL     1       5.329   2.207  11.244  0.00  0.00    +0.000 A 
ATOM     23  C   UNL     1       6.709   2.282  11.375  0.00  0.00    +0.000 A 
ATOM     24  F   UNL     1       7.486   1.414  10.715  0.00  0.00    +0.000 F 
ATOM     25  C   UNL     1       7.294   3.241  12.192  0.00  0.00    +0.000 A 
ENDBRANCH  18  19
ENDBRANCH  17  18
ENDBRANCH   7  17
TORSDOF 5
ENDMDL
MODEL 6
REMARK VINA RESULT:      -7.4      5.314      8.967
REMARK  Name = 
REMARK  6 active torsions:
REMARK  status: ('A' for Active; 'I' for Inactive)
REMARK    1  A    between atoms: C_1  and  C_2
REMARK    2  A    between atoms: C_3  and  C_4
REMARK    3  A    between atoms: C_4  and  O_5
REMARK    4  A    between atoms: C_14  and  O_15
REMARK    5  A    between atoms: O_15  and  C_16
REMARK    6  A    between atoms: C_16  and  C_17
REMARK                            x       y       z     vdW  Elec       q    Type
REMARK                         _______ _______ _______ _____ _____    ______ ____
ROOT
ATOM      1  C   UNL     1       5.303   3.315  16.202  0.00  0.00    +0.000 C 
ATOM      2  C   UNL     1       5.808   4.649  16.696  0.00  0.00    +0.000 A 
ATOM      3  C   UNL     1       5.245   5.368  17.788  0.00  0.00    +0.000 A 
ATOM      4  C   UNL     1       5.862   6.589  18.128  0.00  0.00    +0.000 A 
ATOM      5  C   UNL     1       6.961   7.037  17.421  0.00  0.00    +0.000 A 
ATOM      6  N   UNL     1       7.479   6.387  16.375  0.00  0.00    +0.000 NA
ATOM      7  C   UNL     1       6.896   5.223  16.016  0.00  0.00    +0.000 A 
ENDROOT
BRANCH   3   8
ATOM      8  C   UNL     1       4.090   4.838  18.662  0.00  0.00    +0.000 C 
ATOM      9  C   UNL     1       2.730   4.702  17.923  0.00  0.00    +0.000 C 
ATOM     10  C   UNL     1       1.616   4.191  18.837  0.00  0.00    +0.000 C 
ATOM     11  N   UNL     1       1.958   2.911  19.456  0.00  0.00    +0.000 NA
ATOM     12  C   UNL     1       3.212   3.025  20.203  0.00  0.00    +0.000 C 
ATOM     13  C   UNL     1       4.373   3.464  19.306  0.00  0.00    +0.000 C 
ATOM     14  H   UNL     1       2.061   2.194  18.736  0.00  0.00    +0.000 HD
BRANCH   8  15
ATOM     15  O   UNL     1       3.885   5.821  19.690  0.00  0.00    +0.000 OA
ATOM     16  H   UNL     1       4.656   5.789  20.284  0.00  0.00    +0.000 HD
ENDBRANCH   8  15
ENDBRANCH   3   8
BRANCH   7  17
ATOM     17  O   UNL     1       7.441   4.549  14.929  0.00  0.00    +0.000 OA
BRANCH  17  18
ATOM     18  C   UNL     1       6.860   5.005  13.700  0.00  0.00    +0.000 C 
BRANCH  18  19
ATOM     19  C   UNL     1       6.414   3.896  12.770  0.00  0.00    +0.000 A 
ATOM     20  C   UNL     1       7.298   2.994  12.169  0.00  0.00    +0.000 A 
ATOM     21  C   UNL     1       6.821   2.025  11.273  0.00  0.00    +0.000 A 
ATOM     22  C   UNL     1       5.460   1.960  10.967  0.00  0.00    +0.000 A 
ATOM     23  C   UNL     1       4.585   2.863  11.554  0.00  0.00    +0.000 A 
ATOM     24  F   UNL     1       3.281   2.814  11.253  0.00  0.00    +0.000 F 
ATOM     25  C   UNL     1       5.048   3.825  12.443  0.00  0.00    +0.000 A 
ENDBRANCH  18  19
ENDBRANCH  17  18
ENDBRANCH   7  17
TORSDOF 5
ENDMDL
MODEL 7
REMARK VINA RESULT:      -7.4      5.578      9.193
REMARK  Name = 
REMARK  6 active torsions:
REMARK  status: ('A' for Active; 'I' for Inactive)
REMARK    1  A    between atoms: C_1  and  C_2
REMARK    2  A    between atoms: C_3  and  C_4
REMARK    3  A    between atoms: C_4  and  O_5
REMARK    4  A    between atoms: C_14  and  O_15
REMARK    5  A    between atoms: O_15  and  C_16
REMARK    6  A    between atoms: C_16  and  C_17
REMARK                            x       y       z     vdW  Elec       q    Type
REMARK                         _______ _______ _______ _____ _____    ______ ____
ROOT
ATOM      1  C   UNL     1       5.525   3.133  15.951  0.00  0.00    +0.000 C 
ATOM      2  C   UNL     1       5.864   4.490  16.517  0.00  0.00    +0.000 A 
ATOM      3  C   UNL     1       5.180   5.100  17.606  0.00  0.00    +0.000 A 
ATOM      4  C   UNL     1       5.649   6.363  18.021  0.00  0.00    +0.000 A 
ATOM      5  C   UNL     1       6.726   6.951  17.387  0.00  0.00    +0.000 A 
ATOM      6  N   UNL     1       7.357   6.402  16.345  0.00  0.00    +0.000 NA
ATOM      7  C   UNL     1       6.916   5.201  15.914  0.00  0.00    +0.000 A 
ENDROOT
BRANCH   3   8
ATOM      8  C   UNL     1       4.048   4.418  18.401  0.00  0.00    +0.000 C 
ATOM      9  C   UNL     1       3.564   5.210  19.647  0.00  0.00    +0.000 C 
ATOM     10  C   UNL     1       2.455   4.482  20.408  0.00  0.00    +0.000 C 
ATOM     11  N   UNL     1       1.308   4.184  19.553  0.00  0.00    +0.000 NA
ATOM     12  C   UNL     1       1.727   3.392  18.395  0.00  0.00    +0.000 C 
ATOM     13  C   UNL     1       2.787   4.120  17.561  0.00  0.00    +0.000 C 
ATOM     14  H   UNL     1       0.882   5.053  19.228  0.00  0.00    +0.000 HD
BRANCH   8  15
ATOM     15  O   UNL     1       4.597   3.188  18.902  0.00  0.00    +0.000 OA
ATOM     16  H   UNL     1       5.244   3.416  19.593  0.00  0.00    +0.000 HD
ENDBRANCH   8  15
ENDBRANCH   3   8
BRANCH   7  17
ATOM     17  O   UNL     1       7.578   4.633  14.832  0.00  0.00    +0.000 OA
BRANCH  17  18
ATOM     18  C   UNL     1       7.078   5.157  13.594  0.00  0.00    +0.000 C 
BRANCH  18  19
ATOM     19  C   UNL     1       6.398   4.133  12.710  0.00  0.00    +0.000 A 
ATOM     20  C   UNL     1       5.009   4.047  12.561  0.00  0.00    +0.000 A 
ATOM     21  C   UNL     1       4.444   3.037  11.768  0.00  0.00    +0.000 A 
ATOM     22  C   UNL     1       5.262   2.103  11.128  0.00  0.00    +0.000 A 
ATOM     23  C   UNL     1       6.639   2.182  11.287  0.00  0.00    +0.000 A 
ATOM     24  F   UNL     1       7.428   1.281  10.687  0.00  0.00    +0.000 F 
ATOM     25  C   UNL     1       7.208   3.179  12.069  0.00  0.00    +0.000 A 
ENDBRANCH  18  19
ENDBRANCH  17  18
ENDBRANCH   7  17
TORSDOF 5
ENDMDL
MODEL 8
REMARK VINA RESULT:      -7.3      2.667      3.644
REMARK  Name = 
REMARK  6 active torsions:
REMARK  status: ('A' for Active; 'I' for Inactive)
REMARK    1  A    between atoms: C_1  and  C_2
REMARK    2  A    between atoms: C_3  and  C_4
REMARK    3  A    between atoms: C_4  and  O_5
REMARK    4  A    between atoms: C_14  and  O_15
REMARK    5  A    between atoms: O_15  and  C_16
REMARK    6  A    between atoms: C_16  and  C_17
REMARK                            x       y       z     vdW  Elec       q    Type
REMARK                         _______ _______ _______ _____ _____    ______ ____
ROOT
ATOM      1  C   UNL     1       2.827   8.010  17.424  0.00  0.00    +0.000 C 
ATOM      2  C   UNL     1       2.233   7.791  18.794  0.00  0.00    +0.000 A 
ATOM      3  C   UNL     1       2.352   6.583  19.538  0.00  0.00    +0.000 A 
ATOM      4  C   UNL     1       1.755   6.564  20.814  0.00  0.00    +0.000 A 
ATOM      5  C   UNL     1       1.097   7.679  21.295  0.00  0.00    +0.000 A 
ATOM      6  N   UNL     1       0.952   8.808  20.594  0.00  0.00    +0.000 NA
ATOM      7  C   UNL     1       1.499   8.848  19.360  0.00  0.00    +0.000 A 
ENDROOT
BRANCH   3   8
ATOM      8  C   UNL     1       3.173   5.363  19.071  0.00  0.00    +0.000 C 
ATOM      9  C   UNL     1       4.688   5.641  18.873  0.00  0.00    +0.000 C 
ATOM     10  C   UNL     1       5.451   4.405  18.393  0.00  0.00    +0.000 C 
ATOM     11  N   UNL     1       5.285   3.271  19.301  0.00  0.00    +0.000 NA
ATOM     12  C   UNL     1       3.865   2.955  19.466  0.00  0.00    +0.000 C 
ATOM     13  C   UNL     1       3.075   4.146  20.017  0.00  0.00    +0.000 C 
ATOM     14  H   UNL     1       5.687   3.495  20.212  0.00  0.00    +0.000 HD
BRANCH   8  15
ATOM     15  O   UNL     1       2.661   5.011  17.775  0.00  0.00    +0.000 OA
ATOM     16  H   UNL     1       1.705   4.855  17.870  0.00  0.00    +0.000 HD
ENDBRANCH   8  15
ENDBRANCH   3   8
BRANCH   7  17
ATOM     17  O   UNL     1       1.348  10.025  18.637  0.00  0.00    +0.000 OA
BRANCH  17  18
ATOM     18  C   UNL     1       0.398  10.894  19.268  0.00  0.00    +0.000 C 
BRANCH  18  19
ATOM     19  C   UNL     1      -0.961  10.925  18.601  0.00  0.00    +0.000 A 
ATOM     20  C   UNL     1      -2.042  11.665  19.092  0.00  0.00    +0.000 A 
ATOM     21  C   UNL     1      -3.290  11.603  18.453  0.00  0.00    +0.000 A 
ATOM     22  C   UNL     1      -3.465  10.796  17.327  0.00  0.00    +0.000 A 
ATOM     23  C   UNL     1      -2.395  10.053  16.847  0.00  0.00    +0.000 A 
ATOM     24  F   UNL     1      -2.561   9.267  15.777  0.00  0.00    +0.000 F 
ATOM     25  C   UNL     1      -1.156  10.108  17.472  0.00  0.00    +0.000 A 
ENDBRANCH  18  19
ENDBRANCH  17  18
ENDBRANCH   7  17
TORSDOF 5
ENDMDL
MODEL 9
REMARK VINA RESULT:      -7.3      3.619      7.872
REMARK  Name = 
REMARK  6 active torsions:
REMARK  status: ('A' for Active; 'I' for Inactive)
REMARK    1  A    between atoms: C_1  and  C_2
REMARK    2  A    between atoms: C_3  and  C_4
REMARK    3  A    between atoms: C_4  and  O_5
REMARK    4  A    between atoms: C_14  and  O_15
REMARK    5  A    between atoms: O_15  and  C_16
REMARK    6  A    between atoms: C_16  and  C_17
REMARK                            x       y       z     vdW  Elec       q    Type
REMARK                         _______ _______ _______ _____ _____    ______ ____
ROOT
ATOM      1  C   UNL     1       1.969   9.296  17.730  0.00  0.00    +0.000 C 
ATOM      2  C   UNL     1       1.505   8.847  19.094  0.00  0.00    +0.000 A 
ATOM      3  C   UNL     1       0.533   9.531  19.878  0.00  0.00    +0.000 A 
ATOM      4  C   UNL     1       0.200   8.952  21.120  0.00  0.00    +0.000 A 
ATOM      5  C   UNL     1       0.800   7.776  21.526  0.00  0.00    +0.000 A 
ATOM      6  N   UNL     1       1.735   7.142  20.813  0.00  0.00    +0.000 NA
ATOM      7  C   UNL     1       2.087   7.684  19.627  0.00  0.00    +0.000 A 
ENDROOT
BRANCH   3   8
ATOM      8  C   UNL     1      -0.230  10.783  19.401  0.00  0.00    +0.000 C 
ATOM      9  C   UNL     1       0.676  11.973  18.983  0.00  0.00    +0.000 C 
ATOM     10  C   UNL     1      -0.129  13.194  18.536  0.00  0.00    +0.000 C 
ATOM     11  N   UNL     1      -1.042  12.876  17.439  0.00  0.00    +0.000 NA
ATOM     12  C   UNL     1      -1.945  11.790  17.825  0.00  0.00    +0.000 C 
ATOM     13  C   UNL     1      -1.177  10.521  18.209  0.00  0.00    +0.000 C 
ATOM     14  H   UNL     1      -0.509  12.593  16.616  0.00  0.00    +0.000 HD
BRANCH   8  15
ATOM     15  O   UNL     1      -0.990  11.241  20.531  0.00  0.00    +0.000 OA
ATOM     16  H   UNL     1      -0.563  12.050  20.864  0.00  0.00    +0.000 HD
ENDBRANCH   8  15
ENDBRANCH   3   8
BRANCH   7  17
ATOM     17  O   UNL     1       3.057   7.017  18.888  0.00  0.00    +0.000 OA
BRANCH  17  18
ATOM     18  C   UNL     1       2.454   6.132  17.935  0.00  0.00    +0.000 C 
BRANCH  18  19
ATOM     19  C   UNL     1       2.450   4.675  18.349  0.00  0.00    +0.000 A 
ATOM     20  C   UNL     1       1.359   3.822  18.153  0.00  0.00    +0.000 A 
ATOM     21  C   UNL     1       1.404   2.497  18.612  0.00  0.00    +0.000 A 
ATOM     22  C   UNL     1       2.536   2.021  19.277  0.00  0.00    +0.000 A 
ATOM     23  C   UNL     1       3.614   2.872  19.482  0.00  0.00    +0.000 A 
ATOM     24  F   UNL     1       4.696   2.425  20.131  0.00  0.00    +0.000 F 
ATOM     25  C   UNL     1       3.579   4.185  19.030  0.00  0.00    +0.000 A 
ENDBRANCH  18  19
ENDBRANCH  17  18
ENDBRANCH   7  17
TORSDOF 5
ENDMDL
