MODEL 1
REMARK VINA RESULT:      -7.8      0.000      0.000
REMARK  Name = 
REMARK  6 active torsions:
REMARK  status: ('A' for Active; 'I' for Inactive)
REMARK    1  A    between atoms: N_1  and  S_2
REMARK    2  A    between atoms: S_2  and  C_5
REMARK    3  A    between atoms: C_13  and  C_14
REMARK    4  A    between atoms: C_14  and  S_15
REMARK    5  A    between atoms: S_15  and  C_16
REMARK    6  A    between atoms: C_16  and  C_17
REMARK                            x       y       z     vdW  Elec       q    Type
REMARK                         _______ _______ _______ _____ _____    ______ ____
ROOT
ATOM      1  C   UNL     1       3.847   3.801  18.447  0.00  0.00    +0.000 A 
ATOM      2  C   UNL     1       5.224   3.886  18.663  0.00  0.00    +0.000 A 
ATOM      3  C   UNL     1       5.888   5.088  18.396  0.00  0.00    +0.000 A 
ATOM      4  C   UNL     1       5.232   6.210  17.916  0.00  0.00    +0.000 A 
ATOM      5  C   UNL     1       3.852   6.103  17.697  0.00  0.00    +0.000 A 
ATOM      6  C   UNL     1       3.154   4.910  17.953  0.00  0.00    +0.000 A 
ATOM      7 CL   UNL     1       1.455   4.921  17.642  0.00  0.00    +0.000 Cl
ATOM      8  N   UNL     1       5.833   7.454  17.662  0.00  0.00    +0.000 NA
ATOM      9  C   UNL     1       7.112   7.628  17.706  0.00  0.00    +0.000 C 
ATOM     10  N   UNL     1       8.033   6.615  17.992  0.00  0.00    +0.000 N 
ATOM     11  S   UNL     1       7.606   5.164  18.650  0.00  0.00    +0.000 S 
ATOM     12  O   UNL     1       7.847   5.258  20.070  0.00  0.00    +0.000 OA
ATOM     13  O   UNL     1       8.226   4.143  17.835  0.00  0.00    +0.000 OA
ATOM     14  H   UNL     1       9.024   6.813  18.082  0.00  0.00    +0.000 HD
ENDROOT
BRANCH   1  15
ATOM     15  S   UNL     1       3.046   2.263  18.776  0.00  0.00    +0.000 S 
ATOM     16  O   UNL     1       2.407   1.810  17.562  0.00  0.00    +0.000 OA
ATOM     17  O   UNL     1       2.334   2.360  20.024  0.00  0.00    +0.000 OA
BRANCH  15  18
ATOM     18  N   UNL     1       4.322   1.204  19.007  0.00  0.00    +0.000 NA
ATOM     19  H   UNL     1       4.274   0.801  19.946  0.00  0.00    +0.000 HD
ATOM     20  H   UNL     1       5.208   1.672  18.809  0.00  0.00    +0.000 HD
ENDBRANCH  15  18
ENDBRANCH   1  15
BRANCH   9  21
ATOM     21  C   UNL     1       7.719   8.995  17.456  0.00  0.00    +0.000 C 
BRANCH  21  22
ATOM     22  S   UNL     1       8.860   9.471  18.792  0.00  0.00    +0.000 S 
BRANCH  22  23
ATOM     23  C   UNL     1       9.536  11.047  18.153  0.00  0.00    +0.000 C 
BRANCH  23  24
ATOM     24  C   UNL     1       9.664  12.042  19.279  0.00  0.00    +0.000 A 
ATOM     25  C   UNL     1      10.213  13.310  19.034  0.00  0.00    +0.000 A 
ATOM     26  C   UNL     1      10.449  14.194  20.087  0.00  0.00    +0.000 A 
ATOM     27  C   UNL     1      10.133  13.823  21.391  0.00  0.00    +0.000 A 
ATOM     28  C   UNL     1       9.560  12.578  21.643  0.00  0.00    +0.000 A 
ATOM     29  C   UNL     1       9.324  11.690  20.592  0.00  0.00    +0.000 A 
ENDBRANCH  23  24
ENDBRANCH  22  23
ENDBRANCH  21  22
ENDBRANCH   9  21
TORSDOF 6
ENDMDL
MODEL 2
REMARK VINA RESULT:      -7.6      0.714      1.272
REMARK  Name = 
REMARK  6 active torsions:
REMARK  status: ('A' for Active; 'I' for Inactive)
REMARK    1  A    between atoms: N_1  and  S_2
REMARK    2  A    between atoms: S_2  and  C_5
REMARK    3  A    between atoms: C_13  and  C_14
REMARK    4  A    between atoms: C_14  and  S_15
REMARK    5  A    between atoms: S_15  and  C_16
REMARK    6  A    between atoms: C_16  and  C_17
REMARK                            x       y       z     vdW  Elec       q    Type
REMARK                         _______ _______ _______ _____ _____    ______ ____
ROOT
ATOM      1  C   UNL     1       3.867   3.811  18.488  0.00  0.00    +0.000 A 
ATOM      2  C   UNL     1       5.243   3.895  18.707  0.00  0.00    +0.000 A 
ATOM      3  C   UNL     1       5.913   5.090  18.420  0.00  0.00    +0.000 A 
ATOM      4  C   UNL     1       5.263   6.205  17.918  0.00  0.00    +0.000 A 
ATOM      5  C   UNL     1       3.883   6.098  17.696  0.00  0.00    +0.000 A 
ATOM      6  C   UNL     1       3.180   4.913  17.972  0.00  0.00    +0.000 A 
ATOM      7 CL   UNL     1       1.482   4.925  17.655  0.00  0.00    +0.000 Cl
ATOM      8  N   UNL     1       5.869   7.441  17.643  0.00  0.00    +0.000 NA
ATOM      9  C   UNL     1       7.148   7.612  17.688  0.00  0.00    +0.000 C 
ATOM     10  N   UNL     1       8.064   6.600  17.995  0.00  0.00    +0.000 N 
ATOM     11  S   UNL     1       7.630   5.163  18.679  0.00  0.00    +0.000 S 
ATOM     12  O   UNL     1       7.867   5.283  20.097  0.00  0.00    +0.000 OA
ATOM     13  O   UNL     1       8.249   4.125  17.885  0.00  0.00    +0.000 OA
ATOM     14  H   UNL     1       9.056   6.797  18.086  0.00  0.00    +0.000 HD
ENDROOT
BRANCH   1  15
ATOM     15  S   UNL     1       3.059   2.282  18.843  0.00  0.00    +0.000 S 
ATOM     16  O   UNL     1       2.012   2.530  19.808  0.00  0.00    +0.000 OA
ATOM     17  O   UNL     1       4.052   1.259  19.040  0.00  0.00    +0.000 OA
BRANCH  15  18
ATOM     18  N   UNL     1       2.251   1.932  17.418  0.00  0.00    +0.000 NA
ATOM     19  H   UNL     1       2.129   2.786  16.869  0.00  0.00    +0.000 HD
ATOM     20  H   UNL     1       1.375   1.448  17.621  0.00  0.00    +0.000 HD
ENDBRANCH  15  18
ENDBRANCH   1  15
BRANCH   9  21
ATOM     21  C   UNL     1       7.762   8.971  17.415  0.00  0.00    +0.000 C 
BRANCH  21  22
ATOM     22  S   UNL     1       8.808   9.520  18.799  0.00  0.00    +0.000 S 
BRANCH  22  23
ATOM     23  C   UNL     1       9.618  10.997  18.084  0.00  0.00    +0.000 C 
BRANCH  23  24
ATOM     24  C   UNL     1       9.937  11.985  19.178  0.00  0.00    +0.000 A 
ATOM     25  C   UNL     1       9.654  11.665  20.515  0.00  0.00    +0.000 A 
ATOM     26  C   UNL     1       9.830  12.614  21.522  0.00  0.00    +0.000 A 
ATOM     27  C   UNL     1      10.297  13.887  21.205  0.00  0.00    +0.000 A 
ATOM     28  C   UNL     1      10.610  14.207  19.884  0.00  0.00    +0.000 A 
ATOM     29  C   UNL     1      10.433  13.260  18.874  0.00  0.00    +0.000 A 
ENDBRANCH  23  24
ENDBRANCH  22  23
ENDBRANCH  21  22
ENDBRANCH   9  21
TORSDOF 6
ENDMDL
MODEL 3
REMARK VINA RESULT:      -7.5      0.947      1.305
REMARK  Name = 
REMARK  6 active torsions:
REMARK  status: ('A' for Active; 'I' for Inactive)
REMARK    1  A    between atoms: N_1  and  S_2
REMARK    2  A    between atoms: S_2  and  C_5
REMARK    3  A    between atoms: C_13  and  C_14
REMARK    4  A    between atoms: C_14  and  S_15
REMARK    5  A    between atoms: S_15  and  C_16
REMARK    6  A    between atoms: C_16  and  C_17
REMARK                            x       y       z     vdW  Elec       q    Type
REMARK                         _______ _______ _______ _____ _____    ______ ____
ROOT
ATOM      1  C   UNL     1       3.820   3.861  18.343  0.00  0.00    +0.000 A 
ATOM      2  C   UNL     1       5.196   3.923  18.575  0.00  0.00    +0.000 A 
ATOM      3  C   UNL     1       5.881   5.118  18.326  0.00  0.00    +0.000 A 
ATOM      4  C   UNL     1       5.248   6.253  17.849  0.00  0.00    +0.000 A 
ATOM      5  C   UNL     1       3.869   6.168  17.613  0.00  0.00    +0.000 A 
ATOM      6  C   UNL     1       3.150   4.984  17.851  0.00  0.00    +0.000 A 
ATOM      7 CL   UNL     1       1.455   5.023  17.520  0.00  0.00    +0.000 Cl
ATOM      8  N   UNL     1       5.870   7.490  17.613  0.00  0.00    +0.000 NA
ATOM      9  C   UNL     1       7.151   7.644  17.673  0.00  0.00    +0.000 C 
ATOM     10  N   UNL     1       8.053   6.615  17.960  0.00  0.00    +0.000 N 
ATOM     11  S   UNL     1       7.597   5.165  18.601  0.00  0.00    +0.000 S 
ATOM     12  O   UNL     1       7.823   5.243  20.024  0.00  0.00    +0.000 OA
ATOM     13  O   UNL     1       8.211   4.141  17.784  0.00  0.00    +0.000 OA
ATOM     14  H   UNL     1       9.046   6.797  18.064  0.00  0.00    +0.000 HD
ENDROOT
BRANCH   1  15
ATOM     15  S   UNL     1       2.992   2.332  18.649  0.00  0.00    +0.000 S 
ATOM     16  O   UNL     1       2.286   1.945  17.450  0.00  0.00    +0.000 OA
ATOM     17  O   UNL     1       2.341   2.398  19.932  0.00  0.00    +0.000 OA
BRANCH  15  18
ATOM     18  N   UNL     1       4.248   1.232  18.780  0.00  0.00    +0.000 NA
ATOM     19  H   UNL     1       4.992   1.621  19.363  0.00  0.00    +0.000 HD
ATOM     20  H   UNL     1       4.564   0.948  17.851  0.00  0.00    +0.000 HD
ENDBRANCH  15  18
ENDBRANCH   1  15
BRANCH   9  21
ATOM     21  C   UNL     1       7.781   9.003  17.442  0.00  0.00    +0.000 C 
BRANCH  21  22
ATOM     22  S   UNL     1       8.843   9.491  18.837  0.00  0.00    +0.000 S 
BRANCH  22  23
ATOM     23  C   UNL     1       9.781  10.886  18.114  0.00  0.00    +0.000 C 
BRANCH  23  24
ATOM     24  C   UNL     1       9.204  12.194  18.595  0.00  0.00    +0.000 A 
ATOM     25  C   UNL     1       9.225  12.509  19.963  0.00  0.00    +0.000 A 
ATOM     26  C   UNL     1       8.587  13.655  20.435  0.00  0.00    +0.000 A 
ATOM     27  C   UNL     1       7.928  14.502  19.546  0.00  0.00    +0.000 A 
ATOM     28  C   UNL     1       7.926  14.215  18.181  0.00  0.00    +0.000 A 
ATOM     29  C   UNL     1       8.563  13.067  17.706  0.00  0.00    +0.000 A 
ENDBRANCH  23  24
ENDBRANCH  22  23
ENDBRANCH  21  22
ENDBRANCH   9  21
TORSDOF 6
ENDMDL
MODEL 4
REMARK VINA RESULT:      -7.5      4.533      6.791
REMARK  Name = 
REMARK  6 active torsions:
REMARK  status: ('A' for Active; 'I' for Inactive)
REMARK    1  A    between atoms: N_1  and  S_2
REMARK    2  A    between atoms: S_2  and  C_5
REMARK    3  A    between atoms: C_13  and  C_14
REMARK    4  A    between atoms: C_14  and  S_15
REMARK    5  A    between atoms: S_15  and  C_16
REMARK    6  A    between atoms: C_16  and  C_17
REMARK                            x       y       z     vdW  Elec       q    Type
REMARK                         _______ _______ _______ _____ _____    ______ ____
ROOT
ATOM      1  C   UNL     1       1.214   8.496  20.214  0.00  0.00    +0.000 A 
ATOM      2  C   UNL     1       1.278   7.161  20.617  0.00  0.00    +0.000 A 
ATOM      3  C   UNL     1       1.963   6.235  19.821  0.00  0.00    +0.000 A 
ATOM      4  C   UNL     1       2.584   6.590  18.634  0.00  0.00    +0.000 A 
ATOM      5  C   UNL     1       2.502   7.933  18.243  0.00  0.00    +0.000 A 
ATOM      6  C   UNL     1       1.820   8.888  19.017  0.00  0.00    +0.000 A 
ATOM      7 CL   UNL     1       1.802  10.507  18.415  0.00  0.00    +0.000 Cl
ATOM      8  N   UNL     1       3.316   5.719  17.811  0.00  0.00    +0.000 NA
ATOM      9  C   UNL     1       3.349   4.443  18.007  0.00  0.00    +0.000 C 
ATOM     10  N   UNL     1       2.661   3.789  19.034  0.00  0.00    +0.000 N 
ATOM     11  S   UNL     1       2.010   4.574  20.331  0.00  0.00    +0.000 S 
ATOM     12  O   UNL     1       2.959   4.462  21.412  0.00  0.00    +0.000 OA
ATOM     13  O   UNL     1       0.648   4.105  20.456  0.00  0.00    +0.000 OA
ATOM     14  H   UNL     1       2.771   2.792  19.191  0.00  0.00    +0.000 HD
ENDROOT
BRANCH   1  15
ATOM     15  S   UNL     1       0.325   9.631  21.232  0.00  0.00    +0.000 S 
ATOM     16  O   UNL     1       1.226  10.687  21.637  0.00  0.00    +0.000 OA
ATOM     17  O   UNL     1      -0.463   8.893  22.184  0.00  0.00    +0.000 OA
BRANCH  15  18
ATOM     18  N   UNL     1      -0.735  10.363  20.161  0.00  0.00    +0.000 NA
ATOM     19  H   UNL     1      -1.668  10.412  20.577  0.00  0.00    +0.000 HD
ATOM     20  H   UNL     1      -0.713   9.881  19.261  0.00  0.00    +0.000 HD
ENDBRANCH  15  18
ENDBRANCH   1  15
BRANCH   9  21
ATOM     21  C   UNL     1       4.176   3.541  17.113  0.00  0.00    +0.000 C 
BRANCH  21  22
ATOM     22  S   UNL     1       4.837   4.447  15.679  0.00  0.00    +0.000 S 
BRANCH  22  23
ATOM     23  C   UNL     1       6.636   4.169  15.866  0.00  0.00    +0.000 C 
BRANCH  23  24
ATOM     24  C   UNL     1       7.205   5.155  16.855  0.00  0.00    +0.000 A 
ATOM     25  C   UNL     1       7.670   4.708  18.101  0.00  0.00    +0.000 A 
ATOM     26  C   UNL     1       8.085   5.621  19.070  0.00  0.00    +0.000 A 
ATOM     27  C   UNL     1       8.047   6.987  18.802  0.00  0.00    +0.000 A 
ATOM     28  C   UNL     1       7.616   7.441  17.556  0.00  0.00    +0.000 A 
ATOM     29  C   UNL     1       7.198   6.530  16.585  0.00  0.00    +0.000 A 
ENDBRANCH  23  24
ENDBRANCH  22  23
ENDBRANCH  21  22
ENDBRANCH   9  21
TORSDOF 6
ENDMDL
MODEL 5
REMARK VINA RESULT:      -7.3      1.323      1.748
REMARK  Name = 
REMARK  6 active torsions:
REMARK  status: ('A' for Active; 'I' for Inactive)
REMARK    1  A    between atoms: N_1  and  S_2
REMARK    2  A    between atoms: S_2  and  C_5
REMARK    3  A    between atoms: C_13  and  C_14
REMARK    4  A    between atoms: C_14  and  S_15
REMARK    5  A    between atoms: S_15  and  C_16
REMARK    6  A    between atoms: C_16  and  C_17
REMARK                            x       y       z     vdW  Elec       q    Type
REMARK                         _______ _______ _______ _____ _____    ______ ____
ROOT
ATOM      1  C   UNL     1       3.632   3.668  18.623  0.00  0.00    +0.000 A 
ATOM      2  C   UNL     1       4.848   3.593  17.939  0.00  0.00    +0.000 A 
ATOM      3  C   UNL     1       5.583   4.763  17.715  0.00  0.00    +0.000 A 
ATOM      4  C   UNL     1       5.149   6.008  18.143  0.00  0.00    +0.000 A 
ATOM      5  C   UNL     1       3.923   6.063  18.820  0.00  0.00    +0.000 A 
ATOM      6  C   UNL     1       3.159   4.908  19.060  0.00  0.00    +0.000 A 
ATOM      7 CL   UNL     1       1.670   5.123  19.908  0.00  0.00    +0.000 Cl
ATOM      8  N   UNL     1       5.855   7.211  17.982  0.00  0.00    +0.000 NA
ATOM      9  C   UNL     1       6.926   7.296  17.267  0.00  0.00    +0.000 C 
ATOM     10  N   UNL     1       7.491   6.224  16.569  0.00  0.00    +0.000 N 
ATOM     11  S   UNL     1       7.081   4.649  16.842  0.00  0.00    +0.000 S 
ATOM     12  O   UNL     1       8.079   4.102  17.730  0.00  0.00    +0.000 OA
ATOM     13  O   UNL     1       6.804   4.065  15.549  0.00  0.00    +0.000 OA
ATOM     14  H   UNL     1       8.372   6.322  16.074  0.00  0.00    +0.000 HD
ENDROOT
BRANCH   1  15
ATOM     15  S   UNL     1       2.723   2.175  18.870  0.00  0.00    +0.000 S 
ATOM     16  O   UNL     1       1.601   2.166  17.959  0.00  0.00    +0.000 OA
ATOM     17  O   UNL     1       2.562   1.950  20.283  0.00  0.00    +0.000 OA
BRANCH  15  18
ATOM     18  N   UNL     1       3.756   0.992  18.286  0.00  0.00    +0.000 NA
ATOM     19  H   UNL     1       3.292   0.461  17.546  0.00  0.00    +0.000 HD
ATOM     20  H   UNL     1       4.095   0.412  19.055  0.00  0.00    +0.000 HD
ENDBRANCH  15  18
ENDBRANCH   1  15
BRANCH   9  21
ATOM     21  C   UNL     1       7.676   8.608  17.143  0.00  0.00    +0.000 C 
BRANCH  21  22
ATOM     22  S   UNL     1       8.722   8.918  18.600  0.00  0.00    +0.000 S 
BRANCH  22  23
ATOM     23  C   UNL     1       8.562  10.731  18.788  0.00  0.00    +0.000 C 
BRANCH  23  24
ATOM     24  C   UNL     1       9.917  11.339  19.051  0.00  0.00    +0.000 A 
ATOM     25  C   UNL     1      10.214  11.867  20.318  0.00  0.00    +0.000 A 
ATOM     26  C   UNL     1      11.415  12.540  20.539  0.00  0.00    +0.000 A 
ATOM     27  C   UNL     1      12.333  12.686  19.502  0.00  0.00    +0.000 A 
ATOM     28  C   UNL     1      12.062  12.139  18.248  0.00  0.00    +0.000 A 
ATOM     29  C   UNL     1      10.860  11.467  18.023  0.00  0.00    +0.000 A 
ENDBRANCH  23  24
ENDBRANCH  22  23
ENDBRANCH  21  22
ENDBRANCH   9  21
TORSDOF 6
ENDMDL
MODEL 6
REMARK VINA RESULT:      -7.3      1.050      1.508
REMARK  Name = 
REMARK  6 active torsions:
REMARK  status: ('A' for Active; 'I' for Inactive)
REMARK    1  A    between atoms: N_1  and  S_2
REMARK    2  A    between atoms: S_2  and  C_5
REMARK    3  A    between atoms: C_13  and  C_14
REMARK    4  A    between atoms: C_14  and  S_15
REMARK    5  A    between atoms: S_15  and  C_16
REMARK    6  A    between atoms: C_16  and  C_17
REMARK                            x       y       z     vdW  Elec       q    Type
REMARK                         _______ _______ _______ _____ _____    ______ ____
ROOT
ATOM      1  C   UNL     1       3.721   3.811  18.599  0.00  0.00    +0.000 A 
ATOM      2  C   UNL     1       4.923   3.711  17.895  0.00  0.00    +0.000 A 
ATOM      3  C   UNL     1       5.692   4.861  17.684  0.00  0.00    +0.000 A 
ATOM      4  C   UNL     1       5.307   6.109  18.144  0.00  0.00    +0.000 A 
ATOM      5  C   UNL     1       4.093   6.190  18.841  0.00  0.00    +0.000 A 
ATOM      6  C   UNL     1       3.295   5.056  19.069  0.00  0.00    +0.000 A 
ATOM      7 CL   UNL     1       1.827   5.302  19.945  0.00  0.00    +0.000 Cl
ATOM      8  N   UNL     1       6.049   7.292  17.997  0.00  0.00    +0.000 NA
ATOM      9  C   UNL     1       7.112   7.357  17.267  0.00  0.00    +0.000 C 
ATOM     10  N   UNL     1       7.631   6.282  16.538  0.00  0.00    +0.000 N 
ATOM     11  S   UNL     1       7.173   4.716  16.785  0.00  0.00    +0.000 S 
ATOM     12  O   UNL     1       8.165   4.118  17.646  0.00  0.00    +0.000 OA
ATOM     13  O   UNL     1       6.858   4.168  15.485  0.00  0.00    +0.000 OA
ATOM     14  H   UNL     1       8.507   6.361  16.032  0.00  0.00    +0.000 HD
ENDROOT
BRANCH   1  15
ATOM     15  S   UNL     1       2.767   2.344  18.830  0.00  0.00    +0.000 S 
ATOM     16  O   UNL     1       1.703   2.330  17.852  0.00  0.00    +0.000 OA
ATOM     17  O   UNL     1       2.514   2.162  20.236  0.00  0.00    +0.000 OA
BRANCH  15  18
ATOM     18  N   UNL     1       3.808   1.125  18.344  0.00  0.00    +0.000 NA
ATOM     19  H   UNL     1       4.488   0.935  19.084  0.00  0.00    +0.000 HD
ATOM     20  H   UNL     1       4.235   1.364  17.448  0.00  0.00    +0.000 HD
ENDBRANCH  15  18
ENDBRANCH   1  15
BRANCH   9  21
ATOM     21  C   UNL     1       7.903   8.646  17.158  0.00  0.00    +0.000 C 
BRANCH  21  22
ATOM     22  S   UNL     1       8.642   9.110  18.755  0.00  0.00    +0.000 S 
BRANCH  22  23
ATOM     23  C   UNL     1       9.608  10.595  18.295  0.00  0.00    +0.000 C 
BRANCH  23  24
ATOM     24  C   UNL     1       9.735  11.512  19.486  0.00  0.00    +0.000 A 
ATOM     25  C   UNL     1       9.237  11.110  20.735  0.00  0.00    +0.000 A 
ATOM     26  C   UNL     1       9.237  11.994  21.814  0.00  0.00    +0.000 A 
ATOM     27  C   UNL     1       9.742  13.283  21.659  0.00  0.00    +0.000 A 
ATOM     28  C   UNL     1      10.267  13.683  20.430  0.00  0.00    +0.000 A 
ATOM     29  C   UNL     1      10.266  12.801  19.348  0.00  0.00    +0.000 A 
ENDBRANCH  23  24
ENDBRANCH  22  23
ENDBRANCH  21  22
ENDBRANCH   9  21
TORSDOF 6
ENDMDL
MODEL 7
REMARK VINA RESULT:      -7.3      6.273      8.794
REMARK  Name = 
REMARK  6 active torsions:
REMARK  status: ('A' for Active; 'I' for Inactive)
REMARK    1  A    between atoms: N_1  and  S_2
REMARK    2  A    between atoms: S_2  and  C_5
REMARK    3  A    between atoms: C_13  and  C_14
REMARK    4  A    between atoms: C_14  and  S_15
REMARK    5  A    between atoms: S_15  and  C_16
REMARK    6  A    between atoms: C_16  and  C_17
REMARK                            x       y       z     vdW  Elec       q    Type
REMARK                         _______ _______ _______ _____ _____    ______ ____
ROOT
ATOM      1  C   UNL     1       2.420   6.042  19.753  0.00  0.00    +0.000 A 
ATOM      2  C   UNL     1       1.830   6.908  20.677  0.00  0.00    +0.000 A 
ATOM      3  C   UNL     1       1.529   8.220  20.292  0.00  0.00    +0.000 A 
ATOM      4  C   UNL     1       1.797   8.704  19.023  0.00  0.00    +0.000 A 
ATOM      5  C   UNL     1       2.397   7.822  18.113  0.00  0.00    +0.000 A 
ATOM      6  C   UNL     1       2.715   6.500  18.466  0.00  0.00    +0.000 A 
ATOM      7 CL   UNL     1       3.448   5.524  17.244  0.00  0.00    +0.000 Cl
ATOM      8  N   UNL     1       1.487   9.995  18.565  0.00  0.00    +0.000 NA
ATOM      9  C   UNL     1       1.053  10.923  19.350  0.00  0.00    +0.000 C 
ATOM     10  N   UNL     1       0.859  10.760  20.726  0.00  0.00    +0.000 N 
ATOM     11  S   UNL     1       0.816   9.286  21.465  0.00  0.00    +0.000 S 
ATOM     12  O   UNL     1      -0.574   8.929  21.613  0.00  0.00    +0.000 OA
ATOM     13  O   UNL     1       1.709   9.368  22.600  0.00  0.00    +0.000 OA
ATOM     14  H   UNL     1       0.451  11.498  21.292  0.00  0.00    +0.000 HD
ENDROOT
BRANCH   1  15
ATOM     15  S   UNL     1       2.805   4.402  20.278  0.00  0.00    +0.000 S 
ATOM     16  O   UNL     1       2.376   4.247  21.650  0.00  0.00    +0.000 OA
ATOM     17  O   UNL     1       4.140   4.071  19.853  0.00  0.00    +0.000 OA
BRANCH  15  18
ATOM     18  N   UNL     1       1.746   3.454  19.392  0.00  0.00    +0.000 NA
ATOM     19  H   UNL     1       1.186   4.045  18.772  0.00  0.00    +0.000 HD
ATOM     20  H   UNL     1       1.186   2.873  20.017  0.00  0.00    +0.000 HD
ENDBRANCH  15  18
ENDBRANCH   1  15
BRANCH   9  21
ATOM     21  C   UNL     1       0.701  12.296  18.811  0.00  0.00    +0.000 C 
BRANCH  21  22
ATOM     22  S   UNL     1      -1.018  12.746  19.206  0.00  0.00    +0.000 S 
BRANCH  22  23
ATOM     23  C   UNL     1      -1.826  11.104  19.250  0.00  0.00    +0.000 C 
BRANCH  23  24
ATOM     24  C   UNL     1      -2.540  10.852  17.945  0.00  0.00    +0.000 A 
ATOM     25  C   UNL     1      -1.942  10.046  16.964  0.00  0.00    +0.000 A 
ATOM     26  C   UNL     1      -2.533   9.904  15.709  0.00  0.00    +0.000 A 
ATOM     27  C   UNL     1      -3.730  10.557  15.425  0.00  0.00    +0.000 A 
ATOM     28  C   UNL     1      -4.349  11.336  16.402  0.00  0.00    +0.000 A 
ATOM     29  C   UNL     1      -3.759  11.482  17.658  0.00  0.00    +0.000 A 
ENDBRANCH  23  24
ENDBRANCH  22  23
ENDBRANCH  21  22
ENDBRANCH   9  21
TORSDOF 6
ENDMDL
MODEL 8
REMARK VINA RESULT:      -7.3      4.492      6.682
REMARK  Name = 
REMARK  6 active torsions:
REMARK  status: ('A' for Active; 'I' for Inactive)
REMARK    1  A    between atoms: N_1  and  S_2
REMARK    2  A    between atoms: S_2  and  C_5
REMARK    3  A    between atoms: C_13  and  C_14
REMARK    4  A    between atoms: C_14  and  S_15
REMARK    5  A    between atoms: S_15  and  C_16
REMARK    6  A    between atoms: C_16  and  C_17
REMARK                            x       y       z     vdW  Elec       q    Type
REMARK                         _______ _______ _______ _____ _____    ______ ____
ROOT
ATOM      1  C   UNL     1       1.173   8.125  20.380  0.00  0.00    +0.000 A 
ATOM      2  C   UNL     1       1.269   6.772  20.715  0.00  0.00    +0.000 A 
ATOM      3  C   UNL     1       1.976   5.905  19.873  0.00  0.00    +0.000 A 
ATOM      4  C   UNL     1       2.587   6.334  18.706  0.00  0.00    +0.000 A 
ATOM      5  C   UNL     1       2.472   7.694  18.383  0.00  0.00    +0.000 A 
ATOM      6  C   UNL     1       1.768   8.591  19.205  0.00  0.00    +0.000 A 
ATOM      7 CL   UNL     1       1.711  10.238  18.687  0.00  0.00    +0.000 Cl
ATOM      8  N   UNL     1       3.338   5.524  17.840  0.00  0.00    +0.000 NA
ATOM      9  C   UNL     1       3.402   4.241  17.971  0.00  0.00    +0.000 C 
ATOM     10  N   UNL     1       2.731   3.519  18.963  0.00  0.00    +0.000 N 
ATOM     11  S   UNL     1       2.062   4.222  20.298  0.00  0.00    +0.000 S 
ATOM     12  O   UNL     1       3.015   4.078  21.372  0.00  0.00    +0.000 OA
ATOM     13  O   UNL     1       0.712   3.714  20.399  0.00  0.00    +0.000 OA
ATOM     14  H   UNL     1       2.865   2.519  19.070  0.00  0.00    +0.000 HD
ENDROOT
BRANCH   1  15
ATOM     15  S   UNL     1       0.259   9.185  21.455  0.00  0.00    +0.000 S 
ATOM     16  O   UNL     1      -0.668   8.378  22.216  0.00  0.00    +0.000 OA
ATOM     17  O   UNL     1      -0.167  10.348  20.720  0.00  0.00    +0.000 OA
BRANCH  15  18
ATOM     18  N   UNL     1       1.403   9.686  22.570  0.00  0.00    +0.000 NA
ATOM     19  H   UNL     1       1.976  10.432  22.168  0.00  0.00    +0.000 HD
ATOM     20  H   UNL     1       1.946   8.887  22.900  0.00  0.00    +0.000 HD
ENDBRANCH  15  18
ENDBRANCH   1  15
BRANCH   9  21
ATOM     21  C   UNL     1       4.249   3.405  17.032  0.00  0.00    +0.000 C 
BRANCH  21  22
ATOM     22  S   UNL     1       4.886   4.398  15.646  0.00  0.00    +0.000 S 
BRANCH  22  23
ATOM     23  C   UNL     1       6.693   4.174  15.833  0.00  0.00    +0.000 C 
BRANCH  23  24
ATOM     24  C   UNL     1       7.231   5.168  16.832  0.00  0.00    +0.000 A 
ATOM     25  C   UNL     1       7.678   4.728  18.087  0.00  0.00    +0.000 A 
ATOM     26  C   UNL     1       8.062   5.647  19.063  0.00  0.00    +0.000 A 
ATOM     27  C   UNL     1       8.012   7.013  18.792  0.00  0.00    +0.000 A 
ATOM     28  C   UNL     1       7.599   7.460  17.538  0.00  0.00    +0.000 A 
ATOM     29  C   UNL     1       7.211   6.543  16.560  0.00  0.00    +0.000 A 
ENDBRANCH  23  24
ENDBRANCH  22  23
ENDBRANCH  21  22
ENDBRANCH   9  21
TORSDOF 6
ENDMDL
MODEL 9
REMARK VINA RESULT:      -7.3      2.082      2.447
REMARK  Name = 
REMARK  6 active torsions:
REMARK  status: ('A' for Active; 'I' for Inactive)
REMARK    1  A    between atoms: N_1  and  S_2
REMARK    2  A    between atoms: S_2  and  C_5
REMARK    3  A    between atoms: C_13  and  C_14
REMARK    4  A    between atoms: C_14  and  S_15
REMARK    5  A    between atoms: S_15  and  C_16
REMARK    6  A    between atoms: C_16  and  C_17
REMARK                            x       y       z     vdW  Elec       q    Type
REMARK                         _______ _______ _______ _____ _____    ______ ____
ROOT
ATOM      1  C   UNL     1       3.480   3.700  18.159  0.00  0.00    +0.000 A 
ATOM      2  C   UNL     1       4.353   4.035  17.122  0.00  0.00    +0.000 A 
ATOM      3  C   UNL     1       5.404   4.925  17.370  0.00  0.00    +0.000 A 
ATOM      4  C   UNL     1       5.616   5.499  18.614  0.00  0.00    +0.000 A 
ATOM      5  C   UNL     1       4.724   5.156  19.639  0.00  0.00    +0.000 A 
ATOM      6  C   UNL     1       3.658   4.267  19.424  0.00  0.00    +0.000 A 
ATOM      7 CL   UNL     1       2.640   3.932  20.779  0.00  0.00    +0.000 Cl
ATOM      8  N   UNL     1       6.670   6.369  18.936  0.00  0.00    +0.000 NA
ATOM      9  C   UNL     1       7.470   6.849  18.043  0.00  0.00    +0.000 C 
ATOM     10  N   UNL     1       7.374   6.577  16.674  0.00  0.00    +0.000 N 
ATOM     11  S   UNL     1       6.464   5.346  16.059  0.00  0.00    +0.000 S 
ATOM     12  O   UNL     1       7.357   4.237  15.828  0.00  0.00    +0.000 OA
ATOM     13  O   UNL     1       5.662   5.916  14.999  0.00  0.00    +0.000 OA
ATOM     14  H   UNL     1       8.066   6.923  16.017  0.00  0.00    +0.000 HD
ENDROOT
BRANCH   1  15
ATOM     15  S   UNL     1       2.155   2.589  17.805  0.00  0.00    +0.000 S 
ATOM     16  O   UNL     1       2.312   2.104  16.454  0.00  0.00    +0.000 OA
ATOM     17  O   UNL     1       0.920   3.166  18.271  0.00  0.00    +0.000 OA
BRANCH  15  18
ATOM     18  N   UNL     1       2.489   1.266  18.776  0.00  0.00    +0.000 NA
ATOM     19  H   UNL     1       3.406   0.882  18.535  0.00  0.00    +0.000 HD
ATOM     20  H   UNL     1       1.732   0.584  18.713  0.00  0.00    +0.000 HD
ENDBRANCH  15  18
ENDBRANCH   1  15
BRANCH   9  21
ATOM     21  C   UNL     1       8.616   7.762  18.436  0.00  0.00    +0.000 C 
BRANCH  21  22
ATOM     22  S   UNL     1       8.253   9.498  18.030  0.00  0.00    +0.000 S 
BRANCH  22  23
ATOM     23  C   UNL     1       9.293  10.385  19.248  0.00  0.00    +0.000 C 
BRANCH  23  24
ATOM     24  C   UNL     1       9.906  11.604  18.605  0.00  0.00    +0.000 A 
ATOM     25  C   UNL     1       9.115  12.735  18.352  0.00  0.00    +0.000 A 
ATOM     26  C   UNL     1       9.637  13.820  17.649  0.00  0.00    +0.000 A 
ATOM     27  C   UNL     1      10.955  13.790  17.200  0.00  0.00    +0.000 A 
ATOM     28  C   UNL     1      11.760  12.684  17.472  0.00  0.00    +0.000 A 
ATOM     29  C   UNL     1      11.239  11.595  18.173  0.00  0.00    +0.000 A 
ENDBRANCH  23  24
ENDBRANCH  22  23
ENDBRANCH  21  22
ENDBRANCH   9  21
TORSDOF 6
ENDMDL
