MODEL 1
REMARK VINA RESULT:      -9.0      0.000      0.000
REMARK  Name = 
REMARK  6 active torsions:
REMARK  status: ('A' for Active; 'I' for Inactive)
REMARK    1  A    between atoms: C_1  and  C_2
REMARK    2  A    between atoms: C_2  and  C_3
REMARK    3  A    between atoms: C_7  and  N_8
REMARK    4  A    between atoms: C_11  and  C_12
REMARK    5  A    between atoms: C_14  and  C_15
REMARK    6  A    between atoms: C_26  and  C_27
REMARK                            x       y       z     vdW  Elec       q    Type
REMARK                         _______ _______ _______ _____ _____    ______ ____
ROOT
ATOM      1  N   UNL     1       4.892   4.595  16.264  0.00  0.00    +0.000 N 
ATOM      2  N   UNL     1       4.537   3.452  16.911  0.00  0.00    +0.000 NA
ATOM      3  N   UNL     1       3.907   3.771  18.028  0.00  0.00    +0.000 NA
ATOM      4  C   UNL     1       3.773   5.125  18.057  0.00  0.00    +0.000 A 
ATOM      5  C   UNL     1       4.375   5.691  16.946  0.00  0.00    +0.000 A 
ATOM      6  C   UNL     1       4.382   7.091  16.457  0.00  0.00    +0.000 C 
ENDROOT
BRANCH   1  11
ATOM      7  C   UNL     1       5.945   3.617  12.825  0.00  0.00    +0.000 A 
ATOM      8  C   UNL     1       7.186   4.252  12.734  0.00  0.00    +0.000 A 
ATOM      9  C   UNL     1       7.670   5.009  13.800  0.00  0.00    +0.000 A 
ATOM     10  C   UNL     1       6.916   5.139  14.967  0.00  0.00    +0.000 A 
ATOM     11  C   UNL     1       5.668   4.517  15.076  0.00  0.00    +0.000 A 
ATOM     12  C   UNL     1       5.191   3.750  14.006  0.00  0.00    +0.000 A 
BRANCH   7  14
ATOM     13  C   UNL     1       4.087   3.166  11.229  0.00  0.00    +0.000 C 
ATOM     14  C   UNL     1       5.459   2.722  11.714  0.00  0.00    +0.000 C 
ENDBRANCH   7  14
ENDBRANCH   1  11
BRANCH   4  15
ATOM     15  C   UNL     1       3.004   5.826  19.116  0.00  0.00    +0.000 A 
ATOM     16  N   UNL     1       2.565   7.066  19.028  0.00  0.00    +0.000 NA
ATOM     17  C   UNL     1       1.878   7.237  20.200  0.00  0.00    +0.000 A 
ATOM     18  N   UNL     1       1.887   6.163  21.002  0.00  0.00    +0.000 NA
ATOM     19  O   UNL     1       2.643   5.234  20.296  0.00  0.00    +0.000 OA
BRANCH  17  20
ATOM     20  C   UNL     1       1.337   8.530  20.603  0.00  0.00    +0.000 A 
ATOM     21  C   UNL     1       0.899   9.452  19.621  0.00  0.00    +0.000 A 
ATOM     22  C   UNL     1       0.148  10.575  19.976  0.00  0.00    +0.000 A 
ATOM     23  C   UNL     1      -0.169  10.723  21.307  0.00  0.00    +0.000 A 
ATOM     24  C   UNL     1       0.319   9.870  22.273  0.00  0.00    +0.000 A 
ATOM     25  C   UNL     1       1.111   8.790  21.962  0.00  0.00    +0.000 A 
ATOM     26  O   UNL     1      -0.173  10.165  23.509  0.00  0.00    +0.000 OA
ATOM     27  C   UNL     1      -1.239  11.059  23.132  0.00  0.00    +0.000 C 
ATOM     28  O   UNL     1      -1.039  11.634  21.823  0.00  0.00    +0.000 OA
ENDBRANCH  17  20
ENDBRANCH   4  15
TORSDOF 4
ENDMDL
MODEL 2
REMARK VINA RESULT:      -8.8      3.418      5.567
REMARK  Name = 
REMARK  6 active torsions:
REMARK  status: ('A' for Active; 'I' for Inactive)
REMARK    1  A    between atoms: C_1  and  C_2
REMARK    2  A    between atoms: C_2  and  C_3
REMARK    3  A    between atoms: C_7  and  N_8
REMARK    4  A    between atoms: C_11  and  C_12
REMARK    5  A    between atoms: C_14  and  C_15
REMARK    6  A    between atoms: C_26  and  C_27
REMARK                            x       y       z     vdW  Elec       q    Type
REMARK                         _______ _______ _______ _____ _____    ______ ____
ROOT
ATOM      1  N   UNL     1       2.224   8.017  18.353  0.00  0.00    +0.000 N 
ATOM      2  N   UNL     1       2.178   9.064  17.484  0.00  0.00    +0.000 NA
ATOM      3  N   UNL     1       1.510  10.056  18.047  0.00  0.00    +0.000 NA
ATOM      4  C   UNL     1       1.203   9.682  19.319  0.00  0.00    +0.000 A 
ATOM      5  C   UNL     1       1.649   8.394  19.561  0.00  0.00    +0.000 A 
ATOM      6  C   UNL     1       1.678   7.600  20.814  0.00  0.00    +0.000 C 
ENDROOT
BRANCH   1  11
ATOM      7  C   UNL     1       2.655   4.360  17.776  0.00  0.00    +0.000 A 
ATOM      8  C   UNL     1       3.940   4.325  17.230  0.00  0.00    +0.000 A 
ATOM      9  C   UNL     1       4.659   5.505  17.043  0.00  0.00    +0.000 A 
ATOM     10  C   UNL     1       4.099   6.732  17.399  0.00  0.00    +0.000 A 
ATOM     11  C   UNL     1       2.810   6.790  17.942  0.00  0.00    +0.000 A 
ATOM     12  C   UNL     1       2.096   5.601  18.137  0.00  0.00    +0.000 A 
BRANCH   7  14
ATOM     13  C   UNL     1       1.078   3.224  19.333  0.00  0.00    +0.000 C 
ATOM     14  C   UNL     1       1.912   3.082  18.068  0.00  0.00    +0.000 C 
ENDBRANCH   7  14
ENDBRANCH   1  11
BRANCH   4  15
ATOM     15  C   UNL     1       0.555  10.605  20.285  0.00  0.00    +0.000 A 
ATOM     16  N   UNL     1      -0.744  10.807  20.372  0.00  0.00    +0.000 NA
ATOM     17  C   UNL     1      -0.854  11.675  21.426  0.00  0.00    +0.000 A 
ATOM     18  N   UNL     1       0.319  12.020  21.977  0.00  0.00    +0.000 NA
ATOM     19  O   UNL     1       1.253  11.326  21.215  0.00  0.00    +0.000 OA
BRANCH  17  20
ATOM     20  C   UNL     1      -2.121  12.296  21.794  0.00  0.00    +0.000 A 
ATOM     21  C   UNL     1      -3.028  12.707  20.787  0.00  0.00    +0.000 A 
ATOM     22  C   UNL     1      -4.340  13.061  21.104  0.00  0.00    +0.000 A 
ATOM     23  C   UNL     1      -4.716  12.962  22.424  0.00  0.00    +0.000 A 
ATOM     24  C   UNL     1      -3.817  12.635  23.416  0.00  0.00    +0.000 A 
ATOM     25  C   UNL     1      -2.502  12.340  23.143  0.00  0.00    +0.000 A 
ATOM     26  O   UNL     1      -4.417  12.533  24.635  0.00  0.00    +0.000 OA
ATOM     27  C   UNL     1      -5.797  12.509  24.217  0.00  0.00    +0.000 C 
ATOM     28  O   UNL     1      -5.985  13.077  22.903  0.00  0.00    +0.000 OA
ENDBRANCH  17  20
ENDBRANCH   4  15
TORSDOF 4
ENDMDL
MODEL 3
REMARK VINA RESULT:      -8.7      2.992     10.884
REMARK  Name = 
REMARK  6 active torsions:
REMARK  status: ('A' for Active; 'I' for Inactive)
REMARK    1  A    between atoms: C_1  and  C_2
REMARK    2  A    between atoms: C_2  and  C_3
REMARK    3  A    between atoms: C_7  and  N_8
REMARK    4  A    between atoms: C_11  and  C_12
REMARK    5  A    between atoms: C_14  and  C_15
REMARK    6  A    between atoms: C_26  and  C_27
REMARK                            x       y       z     vdW  Elec       q    Type
REMARK                         _______ _______ _______ _____ _____    ______ ____
ROOT
ATOM      1  N   UNL     1      -0.343  11.167  22.093  0.00  0.00    +0.000 N 
ATOM      2  N   UNL     1       0.316  10.250  22.853  0.00  0.00    +0.000 NA
ATOM      3  N   UNL     1       0.900   9.373  22.054  0.00  0.00    +0.000 NA
ATOM      4  C   UNL     1       0.695   9.779  20.771  0.00  0.00    +0.000 A 
ATOM      5  C   UNL     1      -0.081  10.925  20.749  0.00  0.00    +0.000 A 
ATOM      6  C   UNL     1      -0.460  11.816  19.625  0.00  0.00    +0.000 C 
ENDROOT
BRANCH   1  11
ATOM      7  C   UNL     1      -3.209  12.774  23.852  0.00  0.00    +0.000 A 
ATOM      8  C   UNL     1      -2.776  14.100  23.913  0.00  0.00    +0.000 A 
ATOM      9  C   UNL     1      -1.538  14.463  23.384  0.00  0.00    +0.000 A 
ATOM     10  C   UNL     1      -0.720  13.501  22.790  0.00  0.00    +0.000 A 
ATOM     11  C   UNL     1      -1.131  12.165  22.725  0.00  0.00    +0.000 A 
ATOM     12  C   UNL     1      -2.380  11.808  23.249  0.00  0.00    +0.000 A 
BRANCH   7  14
ATOM     13  C   UNL     1      -5.624  13.378  23.821  0.00  0.00    +0.000 C 
ATOM     14  C   UNL     1      -4.584  12.394  24.337  0.00  0.00    +0.000 C 
ENDBRANCH   7  14
ENDBRANCH   1  11
BRANCH   4  15
ATOM     15  C   UNL     1       1.316   9.093  19.610  0.00  0.00    +0.000 A 
ATOM     16  N   UNL     1       2.042   7.996  19.689  0.00  0.00    +0.000 NA
ATOM     17  C   UNL     1       2.334   7.722  18.379  0.00  0.00    +0.000 A 
ATOM     18  N   UNL     1       1.830   8.608  17.508  0.00  0.00    +0.000 NA
ATOM     19  O   UNL     1       1.170   9.524  18.319  0.00  0.00    +0.000 OA
BRANCH  17  20
ATOM     20  C   UNL     1       3.256   6.659  17.994  0.00  0.00    +0.000 A 
ATOM     21  C   UNL     1       2.913   5.305  18.225  0.00  0.00    +0.000 A 
ATOM     22  C   UNL     1       3.645   4.269  17.643  0.00  0.00    +0.000 A 
ATOM     23  C   UNL     1       4.685   4.625  16.815  0.00  0.00    +0.000 A 
ATOM     24  C   UNL     1       5.069   5.937  16.646  0.00  0.00    +0.000 A 
ATOM     25  C   UNL     1       4.405   6.977  17.255  0.00  0.00    +0.000 A 
ATOM     26  O   UNL     1       6.075   6.062  15.737  0.00  0.00    +0.000 OA
ATOM     27  C   UNL     1       6.027   4.746  15.149  0.00  0.00    +0.000 C 
ATOM     28  O   UNL     1       5.390   3.780  16.013  0.00  0.00    +0.000 OA
ENDBRANCH  17  20
ENDBRANCH   4  15
TORSDOF 4
ENDMDL
MODEL 4
REMARK VINA RESULT:      -8.6      2.714      5.009
REMARK  Name = 
REMARK  6 active torsions:
REMARK  status: ('A' for Active; 'I' for Inactive)
REMARK    1  A    between atoms: C_1  and  C_2
REMARK    2  A    between atoms: C_2  and  C_3
REMARK    3  A    between atoms: C_7  and  N_8
REMARK    4  A    between atoms: C_11  and  C_12
REMARK    5  A    between atoms: C_14  and  C_15
REMARK    6  A    between atoms: C_26  and  C_27
REMARK                            x       y       z     vdW  Elec       q    Type
REMARK                         _______ _______ _______ _____ _____    ______ ____
ROOT
ATOM      1  N   UNL     1       2.377   7.586  18.422  0.00  0.00    +0.000 N 
ATOM      2  N   UNL     1       2.306   8.695  17.635  0.00  0.00    +0.000 NA
ATOM      3  N   UNL     1       1.617   9.627  18.271  0.00  0.00    +0.000 NA
ATOM      4  C   UNL     1       1.322   9.151  19.511  0.00  0.00    +0.000 A 
ATOM      5  C   UNL     1       1.797   7.859  19.656  0.00  0.00    +0.000 A 
ATOM      6  C   UNL     1       1.847   6.972  20.844  0.00  0.00    +0.000 C 
ENDROOT
BRANCH   1  11
ATOM      7  C   UNL     1       4.840   5.377  16.705  0.00  0.00    +0.000 A 
ATOM      8  C   UNL     1       4.216   4.134  16.829  0.00  0.00    +0.000 A 
ATOM      9  C   UNL     1       2.991   4.022  17.485  0.00  0.00    +0.000 A 
ATOM     10  C   UNL     1       2.379   5.153  18.026  0.00  0.00    +0.000 A 
ATOM     11  C   UNL     1       2.990   6.407  17.919  0.00  0.00    +0.000 A 
ATOM     12  C   UNL     1       4.216   6.516  17.250  0.00  0.00    +0.000 A 
BRANCH   7  14
ATOM     13  C   UNL     1       6.083   4.630  14.681  0.00  0.00    +0.000 C 
ATOM     14  C   UNL     1       6.116   5.519  15.916  0.00  0.00    +0.000 C 
ENDBRANCH   7  14
ENDBRANCH   1  11
BRANCH   4  15
ATOM     15  C   UNL     1       0.655   9.983  20.545  0.00  0.00    +0.000 A 
ATOM     16  N   UNL     1      -0.545  10.512  20.421  0.00  0.00    +0.000 NA
ATOM     17  C   UNL     1      -0.740  11.126  21.630  0.00  0.00    +0.000 A 
ATOM     18  N   UNL     1       0.290  11.004  22.480  0.00  0.00    +0.000 NA
ATOM     19  O   UNL     1       1.221  10.263  21.760  0.00  0.00    +0.000 OA
BRANCH  17  20
ATOM     20  C   UNL     1      -1.895  11.977  21.893  0.00  0.00    +0.000 A 
ATOM     21  C   UNL     1      -2.590  12.581  20.817  0.00  0.00    +0.000 A 
ATOM     22  C   UNL     1      -3.835  13.181  21.014  0.00  0.00    +0.000 A 
ATOM     23  C   UNL     1      -4.363  13.129  22.283  0.00  0.00    +0.000 A 
ATOM     24  C   UNL     1      -3.658  12.609  23.347  0.00  0.00    +0.000 A 
ATOM     25  C   UNL     1      -2.404  12.066  23.197  0.00  0.00    +0.000 A 
ATOM     26  O   UNL     1      -4.396  12.601  24.493  0.00  0.00    +0.000 OA
ATOM     27  C   UNL     1      -5.700  12.860  23.935  0.00  0.00    +0.000 C 
ATOM     28  O   UNL     1      -5.630  13.483  22.635  0.00  0.00    +0.000 OA
ENDBRANCH  17  20
ENDBRANCH   4  15
TORSDOF 4
ENDMDL
MODEL 5
REMARK VINA RESULT:      -8.6      3.205      5.156
REMARK  Name = 
REMARK  6 active torsions:
REMARK  status: ('A' for Active; 'I' for Inactive)
REMARK    1  A    between atoms: C_1  and  C_2
REMARK    2  A    between atoms: C_2  and  C_3
REMARK    3  A    between atoms: C_7  and  N_8
REMARK    4  A    between atoms: C_11  and  C_12
REMARK    5  A    between atoms: C_14  and  C_15
REMARK    6  A    between atoms: C_26  and  C_27
REMARK                            x       y       z     vdW  Elec       q    Type
REMARK                         _______ _______ _______ _____ _____    ______ ____
ROOT
ATOM      1  N   UNL     1       2.242   6.942  19.255  0.00  0.00    +0.000 N 
ATOM      2  N   UNL     1       1.842   6.578  20.503  0.00  0.00    +0.000 NA
ATOM      3  N   UNL     1       1.382   7.645  21.134  0.00  0.00    +0.000 NA
ATOM      4  C   UNL     1       1.400   8.686  20.256  0.00  0.00    +0.000 A 
ATOM      5  C   UNL     1       1.929   8.280  19.042  0.00  0.00    +0.000 A 
ATOM      6  C   UNL     1       2.032   8.993  17.745  0.00  0.00    +0.000 C 
ENDROOT
BRANCH   1  11
ATOM      7  C   UNL     1       2.946   3.698  17.561  0.00  0.00    +0.000 A 
ATOM      8  C   UNL     1       4.089   4.021  16.828  0.00  0.00    +0.000 A 
ATOM      9  C   UNL     1       4.622   5.309  16.884  0.00  0.00    +0.000 A 
ATOM     10  C   UNL     1       4.015   6.285  17.673  0.00  0.00    +0.000 A 
ATOM     11  C   UNL     1       2.864   5.984  18.410  0.00  0.00    +0.000 A 
ATOM     12  C   UNL     1       2.339   4.687  18.358  0.00  0.00    +0.000 A 
BRANCH   7  14
ATOM     13  C   UNL     1       1.490   2.074  18.764  0.00  0.00    +0.000 C 
ATOM     14  C   UNL     1       2.421   2.286  17.579  0.00  0.00    +0.000 C 
ENDBRANCH   7  14
ENDBRANCH   1  11
BRANCH   4  15
ATOM     15  C   UNL     1       0.838  10.018  20.590  0.00  0.00    +0.000 A 
ATOM     16  N   UNL     1       0.139  10.286  21.674  0.00  0.00    +0.000 NA
ATOM     17  C   UNL     1      -0.101  11.630  21.566  0.00  0.00    +0.000 A 
ATOM     18  N   UNL     1       0.411  12.191  20.461  0.00  0.00    +0.000 NA
ATOM     19  O   UNL     1       1.019  11.125  19.806  0.00  0.00    +0.000 OA
BRANCH  17  20
ATOM     20  C   UNL     1      -0.980  12.340  22.487  0.00  0.00    +0.000 A 
ATOM     21  C   UNL     1      -0.808  13.729  22.703  0.00  0.00    +0.000 A 
ATOM     22  C   UNL     1      -1.781  14.478  23.369  0.00  0.00    +0.000 A 
ATOM     23  C   UNL     1      -2.917  13.815  23.771  0.00  0.00    +0.000 A 
ATOM     24  C   UNL     1      -3.056  12.451  23.630  0.00  0.00    +0.000 A 
ATOM     25  C   UNL     1      -2.088  11.676  23.033  0.00  0.00    +0.000 A 
ATOM     26  O   UNL     1      -4.282  12.018  24.036  0.00  0.00    +0.000 OA
ATOM     27  C   UNL     1      -4.963  13.286  24.124  0.00  0.00    +0.000 C 
ATOM     28  O   UNL     1      -4.048  14.395  24.259  0.00  0.00    +0.000 OA
ENDBRANCH  17  20
ENDBRANCH   4  15
TORSDOF 4
ENDMDL
MODEL 6
REMARK VINA RESULT:      -8.5      3.228     11.215
REMARK  Name = 
REMARK  6 active torsions:
REMARK  status: ('A' for Active; 'I' for Inactive)
REMARK    1  A    between atoms: C_1  and  C_2
REMARK    2  A    between atoms: C_2  and  C_3
REMARK    3  A    between atoms: C_7  and  N_8
REMARK    4  A    between atoms: C_11  and  C_12
REMARK    5  A    between atoms: C_14  and  C_15
REMARK    6  A    between atoms: C_26  and  C_27
REMARK                            x       y       z     vdW  Elec       q    Type
REMARK                         _______ _______ _______ _____ _____    ______ ____
ROOT
ATOM      1  N   UNL     1      -0.724  11.463  22.260  0.00  0.00    +0.000 N 
ATOM      2  N   UNL     1       0.061  10.645  23.012  0.00  0.00    +0.000 NA
ATOM      3  N   UNL     1       0.714   9.822  22.209  0.00  0.00    +0.000 NA
ATOM      4  C   UNL     1       0.419  10.172  20.927  0.00  0.00    +0.000 A 
ATOM      5  C   UNL     1      -0.484  11.221  20.912  0.00  0.00    +0.000 A 
ATOM      6  C   UNL     1      -1.001  12.036  19.786  0.00  0.00    +0.000 C 
ENDROOT
BRANCH   1  11
ATOM      7  C   UNL     1      -1.932  14.563  23.939  0.00  0.00    +0.000 A 
ATOM      8  C   UNL     1      -3.248  14.207  24.244  0.00  0.00    +0.000 A 
ATOM      9  C   UNL     1      -3.738  12.951  23.888  0.00  0.00    +0.000 A 
ATOM     10  C   UNL     1      -2.918  12.040  23.223  0.00  0.00    +0.000 A 
ATOM     11  C   UNL     1      -1.599  12.380  22.901  0.00  0.00    +0.000 A 
ATOM     12  C   UNL     1      -1.108  13.638  23.269  0.00  0.00    +0.000 A 
BRANCH   7  14
ATOM     13  C   UNL     1      -2.292  16.530  25.423  0.00  0.00    +0.000 C 
ATOM     14  C   UNL     1      -1.368  15.881  24.403  0.00  0.00    +0.000 C 
ENDBRANCH   7  14
ENDBRANCH   1  11
BRANCH   4  15
ATOM     15  C   UNL     1       1.074   9.533  19.758  0.00  0.00    +0.000 A 
ATOM     16  N   UNL     1       1.722   8.387  19.796  0.00  0.00    +0.000 NA
ATOM     17  C   UNL     1       2.086   8.192  18.490  0.00  0.00    +0.000 A 
ATOM     18  N   UNL     1       1.700   9.172  17.661  0.00  0.00    +0.000 NA
ATOM     19  O   UNL     1       1.044  10.068  18.499  0.00  0.00    +0.000 OA
BRANCH  17  20
ATOM     20  C   UNL     1       2.964   7.101  18.081  0.00  0.00    +0.000 A 
ATOM     21  C   UNL     1       2.580   5.758  18.313  0.00  0.00    +0.000 A 
ATOM     22  C   UNL     1       3.265   4.701  17.710  0.00  0.00    +0.000 A 
ATOM     23  C   UNL     1       4.300   5.026  16.864  0.00  0.00    +0.000 A 
ATOM     24  C   UNL     1       4.724   6.326  16.694  0.00  0.00    +0.000 A 
ATOM     25  C   UNL     1       4.108   7.384  17.321  0.00  0.00    +0.000 A 
ATOM     26  O   UNL     1       5.716   6.422  15.765  0.00  0.00    +0.000 OA
ATOM     27  C   UNL     1       5.612   5.111  15.173  0.00  0.00    +0.000 C 
ATOM     28  O   UNL     1       4.961   4.163  16.044  0.00  0.00    +0.000 OA
ENDBRANCH  17  20
ENDBRANCH   4  15
TORSDOF 4
ENDMDL
MODEL 7
REMARK VINA RESULT:      -8.5      3.235      5.203
REMARK  Name = 
REMARK  6 active torsions:
REMARK  status: ('A' for Active; 'I' for Inactive)
REMARK    1  A    between atoms: C_1  and  C_2
REMARK    2  A    between atoms: C_2  and  C_3
REMARK    3  A    between atoms: C_7  and  N_8
REMARK    4  A    between atoms: C_11  and  C_12
REMARK    5  A    between atoms: C_14  and  C_15
REMARK    6  A    between atoms: C_26  and  C_27
REMARK                            x       y       z     vdW  Elec       q    Type
REMARK                         _______ _______ _______ _____ _____    ______ ____
ROOT
ATOM      1  N   UNL     1       2.205   7.119  19.319  0.00  0.00    +0.000 N 
ATOM      2  N   UNL     1       1.838   6.723  20.568  0.00  0.00    +0.000 NA
ATOM      3  N   UNL     1       1.326   7.758  21.212  0.00  0.00    +0.000 NA
ATOM      4  C   UNL     1       1.277   8.805  20.343  0.00  0.00    +0.000 A 
ATOM      5  C   UNL     1       1.816   8.439  19.121  0.00  0.00    +0.000 A 
ATOM      6  C   UNL     1       1.867   9.167  17.830  0.00  0.00    +0.000 C 
ENDROOT
BRANCH   1  11
ATOM      7  C   UNL     1       3.032   3.947  17.545  0.00  0.00    +0.000 A 
ATOM      8  C   UNL     1       4.183   4.323  16.848  0.00  0.00    +0.000 A 
ATOM      9  C   UNL     1       4.679   5.622  16.955  0.00  0.00    +0.000 A 
ATOM     10  C   UNL     1       4.028   6.557  17.758  0.00  0.00    +0.000 A 
ATOM     11  C   UNL     1       2.871   6.204  18.460  0.00  0.00    +0.000 A 
ATOM     12  C   UNL     1       2.382   4.896  18.358  0.00  0.00    +0.000 A 
BRANCH   7  14
ATOM     13  C   UNL     1       3.546   1.597  18.187  0.00  0.00    +0.000 C 
ATOM     14  C   UNL     1       2.546   2.522  17.509  0.00  0.00    +0.000 C 
ENDBRANCH   7  14
ENDBRANCH   1  11
BRANCH   4  15
ATOM     15  C   UNL     1       0.646  10.101  20.694  0.00  0.00    +0.000 A 
ATOM     16  N   UNL     1      -0.574  10.235  21.174  0.00  0.00    +0.000 NA
ATOM     17  C   UNL     1      -0.677  11.583  21.391  0.00  0.00    +0.000 A 
ATOM     18  N   UNL     1       0.419  12.278  21.055  0.00  0.00    +0.000 NA
ATOM     19  O   UNL     1       1.290  11.304  20.579  0.00  0.00    +0.000 OA
BRANCH  17  20
ATOM     20  C   UNL     1      -1.931  12.214  21.788  0.00  0.00    +0.000 A 
ATOM     21  C   UNL     1      -2.875  12.596  20.804  0.00  0.00    +0.000 A 
ATOM     22  C   UNL     1      -4.175  12.959  21.160  0.00  0.00    +0.000 A 
ATOM     23  C   UNL     1      -4.502  12.896  22.495  0.00  0.00    +0.000 A 
ATOM     24  C   UNL     1      -3.566  12.597  23.462  0.00  0.00    +0.000 A 
ATOM     25  C   UNL     1      -2.262  12.295  23.149  0.00  0.00    +0.000 A 
ATOM     26  O   UNL     1      -4.121  12.528  24.705  0.00  0.00    +0.000 OA
ATOM     27  C   UNL     1      -5.515  12.493  24.339  0.00  0.00    +0.000 C 
ATOM     28  O   UNL     1      -5.752  13.024  23.018  0.00  0.00    +0.000 OA
ENDBRANCH  17  20
ENDBRANCH   4  15
TORSDOF 4
ENDMDL
MODEL 8
REMARK VINA RESULT:      -8.5      3.174      5.036
REMARK  Name = 
REMARK  6 active torsions:
REMARK  status: ('A' for Active; 'I' for Inactive)
REMARK    1  A    between atoms: C_1  and  C_2
REMARK    2  A    between atoms: C_2  and  C_3
REMARK    3  A    between atoms: C_7  and  N_8
REMARK    4  A    between atoms: C_11  and  C_12
REMARK    5  A    between atoms: C_14  and  C_15
REMARK    6  A    between atoms: C_26  and  C_27
REMARK                            x       y       z     vdW  Elec       q    Type
REMARK                         _______ _______ _______ _____ _____    ______ ____
ROOT
ATOM      1  N   UNL     1       2.350   6.533  19.389  0.00  0.00    +0.000 N 
ATOM      2  N   UNL     1       1.810   6.199  20.593  0.00  0.00    +0.000 NA
ATOM      3  N   UNL     1       1.335   7.292  21.166  0.00  0.00    +0.000 NA
ATOM      4  C   UNL     1       1.486   8.321  20.288  0.00  0.00    +0.000 A 
ATOM      5  C   UNL     1       2.117   7.881  19.137  0.00  0.00    +0.000 A 
ATOM      6  C   UNL     1       2.382   8.574  17.853  0.00  0.00    +0.000 C 
ENDROOT
BRANCH   1  11
ATOM      7  C   UNL     1       5.104   4.627  17.755  0.00  0.00    +0.000 A 
ATOM      8  C   UNL     1       4.381   3.663  17.049  0.00  0.00    +0.000 A 
ATOM      9  C   UNL     1       2.988   3.636  17.120  0.00  0.00    +0.000 A 
ATOM     10  C   UNL     1       2.307   4.571  17.898  0.00  0.00    +0.000 A 
ATOM     11  C   UNL     1       3.013   5.541  18.618  0.00  0.00    +0.000 A 
ATOM     12  C   UNL     1       4.410   5.570  18.537  0.00  0.00    +0.000 A 
BRANCH   7  14
ATOM     13  C   UNL     1       7.181   5.682  18.636  0.00  0.00    +0.000 C 
ATOM     14  C   UNL     1       6.601   4.720  17.609  0.00  0.00    +0.000 C 
ENDBRANCH   7  14
ENDBRANCH   1  11
BRANCH   4  15
ATOM     15  C   UNL     1       0.951   9.679  20.555  0.00  0.00    +0.000 A 
ATOM     16  N   UNL     1       0.275  10.020  21.633  0.00  0.00    +0.000 NA
ATOM     17  C   UNL     1       0.055  11.360  21.452  0.00  0.00    +0.000 A 
ATOM     18  N   UNL     1       0.555  11.848  20.308  0.00  0.00    +0.000 NA
ATOM     19  O   UNL     1       1.135  10.737  19.705  0.00  0.00    +0.000 OA
BRANCH  17  20
ATOM     20  C   UNL     1      -0.798  12.136  22.346  0.00  0.00    +0.000 A 
ATOM     21  C   UNL     1      -0.662  13.544  22.410  0.00  0.00    +0.000 A 
ATOM     22  C   UNL     1      -1.622  14.329  23.051  0.00  0.00    +0.000 A 
ATOM     23  C   UNL     1      -2.711  13.679  23.582  0.00  0.00    +0.000 A 
ATOM     24  C   UNL     1      -2.811  12.305  23.588  0.00  0.00    +0.000 A 
ATOM     25  C   UNL     1      -1.851  11.500  23.018  0.00  0.00    +0.000 A 
ATOM     26  O   UNL     1      -3.997  11.881  24.106  0.00  0.00    +0.000 OA
ATOM     27  C   UNL     1      -4.715  13.131  24.104  0.00  0.00    +0.000 C 
ATOM     28  O   UNL     1      -3.833  14.273  24.074  0.00  0.00    +0.000 OA
ENDBRANCH  17  20
ENDBRANCH   4  15
TORSDOF 4
ENDMDL
MODEL 9
REMARK VINA RESULT:      -8.5      0.847      1.512
REMARK  Name = 
REMARK  6 active torsions:
REMARK  status: ('A' for Active; 'I' for Inactive)
REMARK    1  A    between atoms: C_1  and  C_2
REMARK    2  A    between atoms: C_2  and  C_3
REMARK    3  A    between atoms: C_7  and  N_8
REMARK    4  A    between atoms: C_11  and  C_12
REMARK    5  A    between atoms: C_14  and  C_15
REMARK    6  A    between atoms: C_26  and  C_27
REMARK                            x       y       z     vdW  Elec       q    Type
REMARK                         _______ _______ _______ _____ _____    ______ ____
ROOT
ATOM      1  N   UNL     1       4.987   4.496  16.132  0.00  0.00    +0.000 N 
ATOM      2  N   UNL     1       4.658   3.337  16.766  0.00  0.00    +0.000 NA
ATOM      3  N   UNL     1       4.042   3.630  17.898  0.00  0.00    +0.000 NA
ATOM      4  C   UNL     1       3.890   4.981  17.951  0.00  0.00    +0.000 A 
ATOM      5  C   UNL     1       4.467   5.573  16.840  0.00  0.00    +0.000 A 
ATOM      6  C   UNL     1       4.448   6.981  16.374  0.00  0.00    +0.000 C 
ENDROOT
BRANCH   1  11
ATOM      7  C   UNL     1       5.978   3.618  12.648  0.00  0.00    +0.000 A 
ATOM      8  C   UNL     1       7.225   4.241  12.559  0.00  0.00    +0.000 A 
ATOM      9  C   UNL     1       7.733   4.958  13.642  0.00  0.00    +0.000 A 
ATOM     10  C   UNL     1       6.999   5.059  14.823  0.00  0.00    +0.000 A 
ATOM     11  C   UNL     1       5.745   4.447  14.931  0.00  0.00    +0.000 A 
ATOM     12  C   UNL     1       5.243   3.720  13.844  0.00  0.00    +0.000 A 
BRANCH   7  14
ATOM     13  C   UNL     1       4.034   3.141  11.167  0.00  0.00    +0.000 C 
ATOM     14  C   UNL     1       5.466   2.764  11.516  0.00  0.00    +0.000 C 
ENDBRANCH   7  14
ENDBRANCH   1  11
BRANCH   4  15
ATOM     15  C   UNL     1       3.129   5.654  19.034  0.00  0.00    +0.000 A 
ATOM     16  N   UNL     1       2.570   6.842  18.929  0.00  0.00    +0.000 NA
ATOM     17  C   UNL     1       1.948   7.001  20.139  0.00  0.00    +0.000 A 
ATOM     18  N   UNL     1       2.112   5.969  20.980  0.00  0.00    +0.000 NA
ATOM     19  O   UNL     1       2.905   5.084  20.258  0.00  0.00    +0.000 OA
BRANCH  17  20
ATOM     20  C   UNL     1       1.315   8.255  20.530  0.00  0.00    +0.000 A 
ATOM     21  C   UNL     1       0.991   8.494  21.888  0.00  0.00    +0.000 A 
ATOM     22  C   UNL     1       0.628   9.769  22.325  0.00  0.00    +0.000 A 
ATOM     23  C   UNL     1       0.630  10.778  21.391  0.00  0.00    +0.000 A 
ATOM     24  C   UNL     1       0.871  10.537  20.055  0.00  0.00    +0.000 A 
ATOM     25  C   UNL     1       1.172   9.280  19.583  0.00  0.00    +0.000 A 
ATOM     26  O   UNL     1       0.887  11.685  19.324  0.00  0.00    +0.000 OA
ATOM     27  C   UNL     1       0.957  12.647  20.396  0.00  0.00    +0.000 C 
ATOM     28  O   UNL     1       0.492  12.107  21.651  0.00  0.00    +0.000 OA
ENDBRANCH  17  20
ENDBRANCH   4  15
TORSDOF 4
ENDMDL
