MODEL 1
REMARK VINA RESULT:      -6.7      0.000      0.000
REMARK  Name = 
REMARK  4 active torsions:
REMARK  status: ('A' for Active; 'I' for Inactive)
REMARK    1  A    between atoms: N_1  and  C_2
REMARK    2  A    between atoms: N_14  and  C_15
REMARK    3  A    between atoms: C_15  and  C_16
REMARK    4  A    between atoms: C_16  and  O_17
REMARK                            x       y       z     vdW  Elec       q    Type
REMARK                         _______ _______ _______ _____ _____    ______ ____
ROOT
ATOM      1  C   UNL     1       6.592   5.242  19.100  0.00  0.00    +0.000 A 
ATOM      2  N   UNL     1       5.397   5.162  19.720  0.00  0.00    +0.000 NA
ATOM      3  C   UNL     1       4.299   4.796  19.042  0.00  0.00    +0.000 A 
ATOM      4  C   UNL     1       3.110   4.712  19.748  0.00  0.00    +0.000 A 
ATOM      5  C   UNL     1       1.910   4.330  19.141  0.00  0.00    +0.000 A 
ATOM      6  C   UNL     1       1.889   4.028  17.786  0.00  0.00    +0.000 A 
ATOM      7  C   UNL     1       3.063   4.111  17.039  0.00  0.00    +0.000 A 
ATOM      8  C   UNL     1       4.277   4.488  17.657  0.00  0.00    +0.000 A 
ATOM      9  C   UNL     1       5.537   4.598  17.000  0.00  0.00    +0.000 A 
ATOM     10  C   UNL     1       6.677   4.983  17.716  0.00  0.00    +0.000 A 
ATOM     11  N   UNL     1       7.785   5.066  16.896  0.00  0.00    +0.000 NA
ATOM     12  C   UNL     1       7.359   4.703  15.715  0.00  0.00    +0.000 A 
ATOM     13  N   UNL     1       6.019   4.405  15.722  0.00  0.00    +0.000 N 
ENDROOT
BRANCH   1  14
ATOM     14  N   UNL     1       7.696   5.601  19.863  0.00  0.00    +0.000 N 
ATOM     15  H   UNL     1       7.776   6.605  19.956  0.00  0.00    +0.000 HD
ATOM     16  H   UNL     1       8.529   5.073  19.625  0.00  0.00    +0.000 HD
ENDBRANCH   1  14
BRANCH  13  17
ATOM     17  C   UNL     1       5.329   3.941  14.533  0.00  0.00    +0.000 C 
BRANCH  17  18
ATOM     18  C   UNL     1       6.231   3.915  13.303  0.00  0.00    +0.000 C 
BRANCH  18  19
ATOM     19  O   UNL     1       6.127   2.672  12.615  0.00  0.00    +0.000 OA
ATOM     20  H   UNL     1       6.895   2.125  12.864  0.00  0.00    +0.000 HD
ENDBRANCH  18  19
ENDBRANCH  17  18
ENDBRANCH  13  17
TORSDOF 4
ENDMDL
MODEL 2
REMARK VINA RESULT:      -6.6      3.316      4.232
REMARK  Name = 
REMARK  4 active torsions:
REMARK  status: ('A' for Active; 'I' for Inactive)
REMARK    1  A    between atoms: N_1  and  C_2
REMARK    2  A    between atoms: N_14  and  C_15
REMARK    3  A    between atoms: C_15  and  C_16
REMARK    4  A    between atoms: C_16  and  O_17
REMARK                            x       y       z     vdW  Elec       q    Type
REMARK                         _______ _______ _______ _____ _____    ______ ____
ROOT
ATOM      1  C   UNL     1       5.670   4.421  18.548  0.00  0.00    +0.000 A 
ATOM      2  N   UNL     1       5.093   3.514  19.362  0.00  0.00    +0.000 NA
ATOM      3  C   UNL     1       3.821   3.662  19.758  0.00  0.00    +0.000 A 
ATOM      4  C   UNL     1       3.287   2.678  20.575  0.00  0.00    +0.000 A 
ATOM      5  C   UNL     1       1.968   2.730  21.034  0.00  0.00    +0.000 A 
ATOM      6  C   UNL     1       1.154   3.797  20.678  0.00  0.00    +0.000 A 
ATOM      7  C   UNL     1       1.659   4.813  19.866  0.00  0.00    +0.000 A 
ATOM      8  C   UNL     1       2.990   4.753  19.394  0.00  0.00    +0.000 A 
ATOM      9  C   UNL     1       3.610   5.723  18.554  0.00  0.00    +0.000 A 
ATOM     10  C   UNL     1       4.940   5.561  18.148  0.00  0.00    +0.000 A 
ATOM     11  N   UNL     1       5.366   6.621  17.373  0.00  0.00    +0.000 NA
ATOM     12  C   UNL     1       4.321   7.400  17.263  0.00  0.00    +0.000 A 
ATOM     13  N   UNL     1       3.239   6.905  17.946  0.00  0.00    +0.000 N 
ENDROOT
BRANCH   1  14
ATOM     14  N   UNL     1       6.983   4.197  18.152  0.00  0.00    +0.000 N 
ATOM     15  H   UNL     1       7.119   3.249  17.826  0.00  0.00    +0.000 HD
ATOM     16  H   UNL     1       7.661   4.583  18.800  0.00  0.00    +0.000 HD
ENDBRANCH   1  14
BRANCH  13  17
ATOM     17  C   UNL     1       1.953   7.578  17.940  0.00  0.00    +0.000 C 
BRANCH  17  18
ATOM     18  C   UNL     1       2.045   9.022  18.419  0.00  0.00    +0.000 C 
BRANCH  18  19
ATOM     19  O   UNL     1       1.805   9.935  17.351  0.00  0.00    +0.000 OA
ATOM     20  H   UNL     1       2.640  10.400  17.160  0.00  0.00    +0.000 HD
ENDBRANCH  18  19
ENDBRANCH  17  18
ENDBRANCH  13  17
TORSDOF 4
ENDMDL
MODEL 3
REMARK VINA RESULT:      -6.6      3.335      4.457
REMARK  Name = 
REMARK  4 active torsions:
REMARK  status: ('A' for Active; 'I' for Inactive)
REMARK    1  A    between atoms: N_1  and  C_2
REMARK    2  A    between atoms: N_14  and  C_15
REMARK    3  A    between atoms: C_15  and  C_16
REMARK    4  A    between atoms: C_16  and  O_17
REMARK                            x       y       z     vdW  Elec       q    Type
REMARK                         _______ _______ _______ _____ _____    ______ ____
ROOT
ATOM      1  C   UNL     1       4.682   3.803  17.063  0.00  0.00    +0.000 A 
ATOM      2  N   UNL     1       4.037   2.874  17.797  0.00  0.00    +0.000 NA
ATOM      3  C   UNL     1       3.081   3.233  18.667  0.00  0.00    +0.000 A 
ATOM      4  C   UNL     1       2.444   2.222  19.370  0.00  0.00    +0.000 A 
ATOM      5  C   UNL     1       1.427   2.486  20.291  0.00  0.00    +0.000 A 
ATOM      6  C   UNL     1       1.033   3.796  20.528  0.00  0.00    +0.000 A 
ATOM      7  C   UNL     1       1.657   4.841  19.849  0.00  0.00    +0.000 A 
ATOM      8  C   UNL     1       2.679   4.571  18.909  0.00  0.00    +0.000 A 
ATOM      9  C   UNL     1       3.380   5.554  18.150  0.00  0.00    +0.000 A 
ATOM     10  C   UNL     1       4.378   5.169  17.247  0.00  0.00    +0.000 A 
ATOM     11  N   UNL     1       4.960   6.264  16.639  0.00  0.00    +0.000 NA
ATOM     12  C   UNL     1       4.316   7.297  17.117  0.00  0.00    +0.000 A 
ATOM     13  N   UNL     1       3.353   6.927  18.022  0.00  0.00    +0.000 N 
ENDROOT
BRANCH   1  14
ATOM     14  N   UNL     1       5.644   3.365  16.161  0.00  0.00    +0.000 N 
ATOM     15  H   UNL     1       5.256   3.234  15.235  0.00  0.00    +0.000 HD
ATOM     16  H   UNL     1       6.237   2.636  16.541  0.00  0.00    +0.000 HD
ENDBRANCH   1  14
BRANCH  13  17
ATOM     17  C   UNL     1       2.483   7.898  18.659  0.00  0.00    +0.000 C 
BRANCH  17  18
ATOM     18  C   UNL     1       1.590   8.628  17.661  0.00  0.00    +0.000 C 
BRANCH  18  19
ATOM     19  O   UNL     1       2.036   9.965  17.453  0.00  0.00    +0.000 OA
ATOM     20  H   UNL     1       2.879   9.928  16.963  0.00  0.00    +0.000 HD
ENDBRANCH  18  19
ENDBRANCH  17  18
ENDBRANCH  13  17
TORSDOF 4
ENDMDL
MODEL 4
REMARK VINA RESULT:      -6.6      2.045      4.462
REMARK  Name = 
REMARK  4 active torsions:
REMARK  status: ('A' for Active; 'I' for Inactive)
REMARK    1  A    between atoms: N_1  and  C_2
REMARK    2  A    between atoms: N_14  and  C_15
REMARK    3  A    between atoms: C_15  and  C_16
REMARK    4  A    between atoms: C_16  and  O_17
REMARK                            x       y       z     vdW  Elec       q    Type
REMARK                         _______ _______ _______ _____ _____    ______ ____
ROOT
ATOM      1  C   UNL     1       7.222   6.076  17.580  0.00  0.00    +0.000 A 
ATOM      2  N   UNL     1       7.609   6.009  16.290  0.00  0.00    +0.000 NA
ATOM      3  C   UNL     1       6.960   5.219  15.422  0.00  0.00    +0.000 A 
ATOM      4  C   UNL     1       7.398   5.219  14.107  0.00  0.00    +0.000 A 
ATOM      5  C   UNL     1       6.784   4.441  13.120  0.00  0.00    +0.000 A 
ATOM      6  C   UNL     1       5.706   3.632  13.451  0.00  0.00    +0.000 A 
ATOM      7  C   UNL     1       5.243   3.597  14.766  0.00  0.00    +0.000 A 
ATOM      8  C   UNL     1       5.858   4.392  15.760  0.00  0.00    +0.000 A 
ATOM      9  C   UNL     1       5.467   4.446  17.129  0.00  0.00    +0.000 A 
ATOM     10  C   UNL     1       6.153   5.272  18.029  0.00  0.00    +0.000 A 
ATOM     11  N   UNL     1       5.648   5.156  19.308  0.00  0.00    +0.000 NA
ATOM     12  C   UNL     1       4.651   4.316  19.203  0.00  0.00    +0.000 A 
ATOM     13  N   UNL     1       4.494   3.865  17.916  0.00  0.00    +0.000 N 
ENDROOT
BRANCH   1  14
ATOM     14  N   UNL     1       7.919   6.933  18.423  0.00  0.00    +0.000 N 
ATOM     15  H   UNL     1       7.690   7.902  18.244  0.00  0.00    +0.000 HD
ATOM     16  H   UNL     1       8.896   6.681  18.521  0.00  0.00    +0.000 HD
ENDBRANCH   1  14
BRANCH  13  17
ATOM     17  C   UNL     1       3.428   2.953  17.547  0.00  0.00    +0.000 C 
BRANCH  17  18
ATOM     18  C   UNL     1       3.222   1.845  18.574  0.00  0.00    +0.000 C 
BRANCH  18  19
ATOM     19  O   UNL     1       4.062   0.727  18.301  0.00  0.00    +0.000 OA
ATOM     20  H   UNL     1       3.769  -0.014  18.863  0.00  0.00    +0.000 HD
ENDBRANCH  18  19
ENDBRANCH  17  18
ENDBRANCH  13  17
TORSDOF 4
ENDMDL
MODEL 5
REMARK VINA RESULT:      -6.5      3.857      6.063
REMARK  Name = 
REMARK  4 active torsions:
REMARK  status: ('A' for Active; 'I' for Inactive)
REMARK    1  A    between atoms: N_1  and  C_2
REMARK    2  A    between atoms: N_14  and  C_15
REMARK    3  A    between atoms: C_15  and  C_16
REMARK    4  A    between atoms: C_16  and  O_17
REMARK                            x       y       z     vdW  Elec       q    Type
REMARK                         _______ _______ _______ _____ _____    ______ ____
ROOT
ATOM      1  C   UNL     1       2.867   2.696  18.391  0.00  0.00    +0.000 A 
ATOM      2  N   UNL     1       3.717   2.894  17.362  0.00  0.00    +0.000 NA
ATOM      3  C   UNL     1       4.128   4.130  17.044  0.00  0.00    +0.000 A 
ATOM      4  C   UNL     1       5.020   4.256  15.990  0.00  0.00    +0.000 A 
ATOM      5  C   UNL     1       5.520   5.496  15.585  0.00  0.00    +0.000 A 
ATOM      6  C   UNL     1       5.117   6.651  16.241  0.00  0.00    +0.000 A 
ATOM      7  C   UNL     1       4.213   6.567  17.300  0.00  0.00    +0.000 A 
ATOM      8  C   UNL     1       3.716   5.310  17.715  0.00  0.00    +0.000 A 
ATOM      9  C   UNL     1       2.799   5.101  18.786  0.00  0.00    +0.000 A 
ATOM     10  C   UNL     1       2.373   3.806  19.109  0.00  0.00    +0.000 A 
ATOM     11  N   UNL     1       1.462   3.817  20.146  0.00  0.00    +0.000 NA
ATOM     12  C   UNL     1       1.355   5.075  20.488  0.00  0.00    +0.000 A 
ATOM     13  N   UNL     1       2.141   5.887  19.709  0.00  0.00    +0.000 N 
ENDROOT
BRANCH   1  14
ATOM     14  N   UNL     1       2.498   1.390  18.686  0.00  0.00    +0.000 N 
ATOM     15  H   UNL     1       1.577   1.346  19.103  0.00  0.00    +0.000 HD
ATOM     16  H   UNL     1       3.245   0.858  19.118  0.00  0.00    +0.000 HD
ENDBRANCH   1  14
BRANCH  13  17
ATOM     17  C   UNL     1       2.218   7.319  19.926  0.00  0.00    +0.000 C 
BRANCH  17  18
ATOM     18  C   UNL     1       1.223   7.808  20.973  0.00  0.00    +0.000 C 
BRANCH  18  19
ATOM     19  O   UNL     1       1.881   8.523  22.015  0.00  0.00    +0.000 OA
ATOM     20  H   UNL     1       2.366   9.265  21.610  0.00  0.00    +0.000 HD
ENDBRANCH  18  19
ENDBRANCH  17  18
ENDBRANCH  13  17
TORSDOF 4
ENDMDL
MODEL 6
REMARK VINA RESULT:      -6.5      2.931      4.980
REMARK  Name = 
REMARK  4 active torsions:
REMARK  status: ('A' for Active; 'I' for Inactive)
REMARK    1  A    between atoms: N_1  and  C_2
REMARK    2  A    between atoms: N_14  and  C_15
REMARK    3  A    between atoms: C_15  and  C_16
REMARK    4  A    between atoms: C_16  and  O_17
REMARK                            x       y       z     vdW  Elec       q    Type
REMARK                         _______ _______ _______ _____ _____    ______ ____
ROOT
ATOM      1  C   UNL     1       2.768   7.234  18.561  0.00  0.00    +0.000 A 
ATOM      2  N   UNL     1       3.568   7.357  17.482  0.00  0.00    +0.000 NA
ATOM      3  C   UNL     1       4.322   6.329  17.069  0.00  0.00    +0.000 A 
ATOM      4  C   UNL     1       5.101   6.520  15.939  0.00  0.00    +0.000 A 
ATOM      5  C   UNL     1       5.915   5.510  15.418  0.00  0.00    +0.000 A 
ATOM      6  C   UNL     1       5.963   4.271  16.043  0.00  0.00    +0.000 A 
ATOM      7  C   UNL     1       5.203   4.044  17.190  0.00  0.00    +0.000 A 
ATOM      8  C   UNL     1       4.372   5.063  17.709  0.00  0.00    +0.000 A 
ATOM      9  C   UNL     1       3.546   4.944  18.864  0.00  0.00    +0.000 A 
ATOM     10  C   UNL     1       2.763   6.025  19.289  0.00  0.00    +0.000 A 
ATOM     11  N   UNL     1       2.066   5.723  20.441  0.00  0.00    +0.000 NA
ATOM     12  C   UNL     1       2.370   4.478  20.703  0.00  0.00    +0.000 A 
ATOM     13  N   UNL     1       3.249   3.960  19.785  0.00  0.00    +0.000 N 
ENDROOT
BRANCH   1  14
ATOM     14  N   UNL     1       1.992   8.328  18.923  0.00  0.00    +0.000 N 
ATOM     15  H   UNL     1       1.143   8.382  18.374  0.00  0.00    +0.000 HD
ATOM     16  H   UNL     1       2.536   9.174  19.048  0.00  0.00    +0.000 HD
ENDBRANCH   1  14
BRANCH  13  17
ATOM     17  C   UNL     1       3.703   2.584  19.847  0.00  0.00    +0.000 C 
BRANCH  17  18
ATOM     18  C   UNL     1       3.080   1.711  18.763  0.00  0.00    +0.000 C 
BRANCH  18  19
ATOM     19  O   UNL     1       3.991   0.706  18.325  0.00  0.00    +0.000 OA
ATOM     20  H   UNL     1       4.500   1.069  17.576  0.00  0.00    +0.000 HD
ENDBRANCH  18  19
ENDBRANCH  17  18
ENDBRANCH  13  17
TORSDOF 4
ENDMDL
MODEL 7
REMARK VINA RESULT:      -6.5      2.141      4.496
REMARK  Name = 
REMARK  4 active torsions:
REMARK  status: ('A' for Active; 'I' for Inactive)
REMARK    1  A    between atoms: N_1  and  C_2
REMARK    2  A    between atoms: N_14  and  C_15
REMARK    3  A    between atoms: C_15  and  C_16
REMARK    4  A    between atoms: C_16  and  O_17
REMARK                            x       y       z     vdW  Elec       q    Type
REMARK                         _______ _______ _______ _____ _____    ______ ____
ROOT
ATOM      1  C   UNL     1       7.155   5.157  18.548  0.00  0.00    +0.000 A 
ATOM      2  N   UNL     1       7.683   5.256  17.310  0.00  0.00    +0.000 NA
ATOM      3  C   UNL     1       6.975   4.881  16.235  0.00  0.00    +0.000 A 
ATOM      4  C   UNL     1       7.572   5.032  14.993  0.00  0.00    +0.000 A 
ATOM      5  C   UNL     1       6.918   4.684  13.807  0.00  0.00    +0.000 A 
ATOM      6  C   UNL     1       5.633   4.161  13.856  0.00  0.00    +0.000 A 
ATOM      7  C   UNL     1       5.003   3.983  15.087  0.00  0.00    +0.000 A 
ATOM      8  C   UNL     1       5.662   4.346  16.284  0.00  0.00    +0.000 A 
ATOM      9  C   UNL     1       5.117   4.220  17.595  0.00  0.00    +0.000 A 
ATOM     10  C   UNL     1       5.865   4.612  18.713  0.00  0.00    +0.000 A 
ATOM     11  N   UNL     1       5.179   4.377  19.888  0.00  0.00    +0.000 NA
ATOM     12  C   UNL     1       4.023   3.894  19.513  0.00  0.00    +0.000 A 
ATOM     13  N   UNL     1       3.930   3.786  18.148  0.00  0.00    +0.000 N 
ENDROOT
BRANCH   1  14
ATOM     14  N   UNL     1       7.929   5.586  19.619  0.00  0.00    +0.000 N 
ATOM     15  H   UNL     1       7.360   5.814  20.424  0.00  0.00    +0.000 HD
ATOM     16  H   UNL     1       8.655   6.239  19.345  0.00  0.00    +0.000 HD
ENDBRANCH   1  14
BRANCH  13  17
ATOM     17  C   UNL     1       2.725   3.309  17.495  0.00  0.00    +0.000 C 
BRANCH  17  18
ATOM     18  C   UNL     1       1.619   2.964  18.486  0.00  0.00    +0.000 C 
BRANCH  18  19
ATOM     19  O   UNL     1       1.477   1.553  18.627  0.00  0.00    +0.000 OA
ATOM     20  H   UNL     1       1.850   1.298  19.491  0.00  0.00    +0.000 HD
ENDBRANCH  18  19
ENDBRANCH  17  18
ENDBRANCH  13  17
TORSDOF 4
ENDMDL
MODEL 8
REMARK VINA RESULT:      -6.5      2.468      3.172
REMARK  Name = 
REMARK  4 active torsions:
REMARK  status: ('A' for Active; 'I' for Inactive)
REMARK    1  A    between atoms: N_1  and  C_2
REMARK    2  A    between atoms: N_14  and  C_15
REMARK    3  A    between atoms: C_15  and  C_16
REMARK    4  A    between atoms: C_16  and  O_17
REMARK                            x       y       z     vdW  Elec       q    Type
REMARK                         _______ _______ _______ _____ _____    ______ ____
ROOT
ATOM      1  C   UNL     1       2.558   6.664  18.816  0.00  0.00    +0.000 A 
ATOM      2  N   UNL     1       1.876   5.645  19.379  0.00  0.00    +0.000 NA
ATOM      3  C   UNL     1       2.175   4.374  19.077  0.00  0.00    +0.000 A 
ATOM      4  C   UNL     1       1.449   3.378  19.711  0.00  0.00    +0.000 A 
ATOM      5  C   UNL     1       1.689   2.021  19.478  0.00  0.00    +0.000 A 
ATOM      6  C   UNL     1       2.675   1.639  18.579  0.00  0.00    +0.000 A 
ATOM      7  C   UNL     1       3.420   2.611  17.912  0.00  0.00    +0.000 A 
ATOM      8  C   UNL     1       3.183   3.983  18.158  0.00  0.00    +0.000 A 
ATOM      9  C   UNL     1       3.885   5.062  17.546  0.00  0.00    +0.000 A 
ATOM     10  C   UNL     1       3.563   6.387  17.866  0.00  0.00    +0.000 A 
ATOM     11  N   UNL     1       4.327   7.282  17.143  0.00  0.00    +0.000 NA
ATOM     12  C   UNL     1       5.129   6.539  16.426  0.00  0.00    +0.000 A 
ATOM     13  N   UNL     1       4.912   5.200  16.635  0.00  0.00    +0.000 N 
ENDROOT
BRANCH   1  14
ATOM     14  N   UNL     1       2.217   7.958  19.189  0.00  0.00    +0.000 N 
ATOM     15  H   UNL     1       1.270   8.189  18.916  0.00  0.00    +0.000 HD
ATOM     16  H   UNL     1       2.950   8.630  18.994  0.00  0.00    +0.000 HD
ENDBRANCH   1  14
BRANCH  13  17
ATOM     17  C   UNL     1       5.708   4.180  15.977  0.00  0.00    +0.000 C 
BRANCH  17  18
ATOM     18  C   UNL     1       7.170   4.587  15.823  0.00  0.00    +0.000 C 
BRANCH  18  19
ATOM     19  O   UNL     1       7.949   4.133  16.926  0.00  0.00    +0.000 OA
ATOM     20  H   UNL     1       8.290   4.917  17.395  0.00  0.00    +0.000 HD
ENDBRANCH  18  19
ENDBRANCH  17  18
ENDBRANCH  13  17
TORSDOF 4
ENDMDL
MODEL 9
REMARK VINA RESULT:      -6.5      3.410      5.151
REMARK  Name = 
REMARK  4 active torsions:
REMARK  status: ('A' for Active; 'I' for Inactive)
REMARK    1  A    between atoms: N_1  and  C_2
REMARK    2  A    between atoms: N_14  and  C_15
REMARK    3  A    between atoms: C_15  and  C_16
REMARK    4  A    between atoms: C_16  and  O_17
REMARK                            x       y       z     vdW  Elec       q    Type
REMARK                         _______ _______ _______ _____ _____    ______ ____
ROOT
ATOM      1  C   UNL     1       4.878   3.918  16.771  0.00  0.00    +0.000 A 
ATOM      2  N   UNL     1       4.817   5.260  16.653  0.00  0.00    +0.000 NA
ATOM      3  C   UNL     1       3.943   5.970  17.380  0.00  0.00    +0.000 A 
ATOM      4  C   UNL     1       3.952   7.348  17.225  0.00  0.00    +0.000 A 
ATOM      5  C   UNL     1       3.091   8.182  17.944  0.00  0.00    +0.000 A 
ATOM      6  C   UNL     1       2.185   7.631  18.840  0.00  0.00    +0.000 A 
ATOM      7  C   UNL     1       2.138   6.249  19.016  0.00  0.00    +0.000 A 
ATOM      8  C   UNL     1       3.017   5.408  18.296  0.00  0.00    +0.000 A 
ATOM      9  C   UNL     1       3.066   3.987  18.400  0.00  0.00    +0.000 A 
ATOM     10  C   UNL     1       3.981   3.253  17.634  0.00  0.00    +0.000 A 
ATOM     11  N   UNL     1       3.847   1.897  17.849  0.00  0.00    +0.000 NA
ATOM     12  C   UNL     1       2.908   1.788  18.752  0.00  0.00    +0.000 A 
ATOM     13  N   UNL     1       2.410   3.013  19.123  0.00  0.00    +0.000 N 
ENDROOT
BRANCH   1  14
ATOM     14  N   UNL     1       5.823   3.241  16.009  0.00  0.00    +0.000 N 
ATOM     15  H   UNL     1       5.400   2.511  15.451  0.00  0.00    +0.000 HD
ATOM     16  H   UNL     1       6.664   3.021  16.529  0.00  0.00    +0.000 HD
ENDBRANCH   1  14
BRANCH  13  17
ATOM     17  C   UNL     1       1.385   3.149  20.141  0.00  0.00    +0.000 C 
BRANCH  17  18
ATOM     18  C   UNL     1       1.951   3.579  21.490  0.00  0.00    +0.000 C 
BRANCH  18  19
ATOM     19  O   UNL     1       2.643   2.506  22.124  0.00  0.00    +0.000 OA
ATOM     20  H   UNL     1       3.286   2.891  22.747  0.00  0.00    +0.000 HD
ENDBRANCH  18  19
ENDBRANCH  17  18
ENDBRANCH  13  17
TORSDOF 4
ENDMDL
