MODEL 1
REMARK VINA RESULT:      -8.4      0.000      0.000
REMARK  Name = 
REMARK  6 active torsions:
REMARK  status: ('A' for Active; 'I' for Inactive)
REMARK    1  A    between atoms: N_1  and  C_2
REMARK    2  A    between atoms: C_2  and  C_3
REMARK    3  A    between atoms: C_3  and  C_4
REMARK    4  A    between atoms: C_4  and  N_5
REMARK    5  A    between atoms: C_7  and  C_8
REMARK    6  A    between atoms: C_10  and  C_11
REMARK                            x       y       z     vdW  Elec       q    Type
REMARK                         _______ _______ _______ _____ _____    ______ ____
ROOT
ATOM      1  C   UNL     1       1.603   8.521  19.988  0.00  0.00    +0.000 A 
ATOM      2  C   UNL     1       1.605   9.842  19.512  0.00  0.00    +0.000 A 
ATOM      3  C   UNL     1       0.963  10.888  20.200  0.00  0.00    +0.000 A 
ATOM      4  C   UNL     1       0.297  10.536  21.386  0.00  0.00    +0.000 A 
ATOM      5  N   UNL     1      -0.459  11.260  22.273  0.00  0.00    +0.000 N 
ATOM      6  N   UNL     1      -0.922  10.558  23.321  0.00  0.00    +0.000 NA
ATOM      7  C   UNL     1      -0.458   9.327  23.092  0.00  0.00    +0.000 A 
ATOM      8  C   UNL     1       0.291   9.245  21.899  0.00  0.00    +0.000 A 
ATOM      9  C   UNL     1       0.960   8.224  21.203  0.00  0.00    +0.000 A 
ATOM     10  H   UNL     1      -0.674  12.249  22.216  0.00  0.00    +0.000 HD
ENDROOT
BRANCH   1  13
ATOM     11  N   UNL     1       3.596   6.507  17.711  0.00  0.00    +0.000 N 
ATOM     12  C   UNL     1       3.126   7.708  18.186  0.00  0.00    +0.000 A 
ATOM     13  C   UNL     1       2.234   7.459  19.214  0.00  0.00    +0.000 A 
ATOM     14  C   UNL     1       2.166   6.041  19.350  0.00  0.00    +0.000 A 
ATOM     15  N   UNL     1       1.456   5.295  20.225  0.00  0.00    +0.000 NA
ATOM     16  C   UNL     1       1.641   3.981  20.114  0.00  0.00    +0.000 A 
ATOM     17  N   UNL     1       0.945   3.177  21.000  0.00  0.00    +0.000 N 
ATOM     18  N   UNL     1       2.406   3.356  19.209  0.00  0.00    +0.000 NA
ATOM     19  C   UNL     1       3.119   4.100  18.338  0.00  0.00    +0.000 A 
ATOM     20  C   UNL     1       3.007   5.476  18.400  0.00  0.00    +0.000 A 
ATOM     21  H   UNL     1       0.123   3.669  21.319  0.00  0.00    +0.000 HD
ATOM     22  H   UNL     1       0.811   2.267  20.583  0.00  0.00    +0.000 HD
BRANCH  11  23
ATOM     23  C   UNL     1       4.621   6.397  16.686  0.00  0.00    +0.000 C 
BRANCH  23  24
ATOM     24  C   UNL     1       6.023   6.159  17.261  0.00  0.00    +0.000 C 
BRANCH  24  25
ATOM     25  C   UNL     1       6.567   4.762  16.973  0.00  0.00    +0.000 C 
BRANCH  25  26
ATOM     26  N   UNL     1       7.561   4.382  17.972  0.00  0.00    +0.000 NA
ATOM     27  H   UNL     1       8.237   5.137  18.073  0.00  0.00    +0.000 HD
ATOM     28  H   UNL     1       8.084   3.572  17.646  0.00  0.00    +0.000 HD
ENDBRANCH  25  26
ENDBRANCH  24  25
ENDBRANCH  23  24
ENDBRANCH  11  23
ENDBRANCH   1  13
BRANCH   3  29
ATOM     29  C   UNL     1       0.942  12.265  19.691  0.00  0.00    +0.000 A 
ATOM     30  C   UNL     1      -0.131  13.127  19.562  0.00  0.00    +0.000 A 
ATOM     31  C   UNL     1       0.234  14.432  19.083  0.00  0.00    +0.000 A 
ATOM     32  C   UNL     1      -0.548  15.590  18.860  0.00  0.00    +0.000 A 
ATOM     33  C   UNL     1       0.054  16.772  18.414  0.00  0.00    +0.000 A 
ATOM     34  C   UNL     1       1.423  16.824  18.188  0.00  0.00    +0.000 A 
ATOM     35  C   UNL     1       2.215  15.694  18.388  0.00  0.00    +0.000 A 
ATOM     36  C   UNL     1       1.602  14.506  18.826  0.00  0.00    +0.000 A 
ATOM     37  S   UNL     1       2.371  13.003  19.096  0.00  0.00    +0.000 S 
ENDBRANCH   3  29
TORSDOF 6
ENDMDL
MODEL 2
REMARK VINA RESULT:      -8.4      2.779      8.551
REMARK  Name = 
REMARK  6 active torsions:
REMARK  status: ('A' for Active; 'I' for Inactive)
REMARK    1  A    between atoms: N_1  and  C_2
REMARK    2  A    between atoms: C_2  and  C_3
REMARK    3  A    between atoms: C_3  and  C_4
REMARK    4  A    between atoms: C_4  and  N_5
REMARK    5  A    between atoms: C_7  and  C_8
REMARK    6  A    between atoms: C_10  and  C_11
REMARK                            x       y       z     vdW  Elec       q    Type
REMARK                         _______ _______ _______ _____ _____    ______ ____
ROOT
ATOM      1  C   UNL     1       2.003   7.194  19.667  0.00  0.00    +0.000 A 
ATOM      2  C   UNL     1       2.843   6.892  18.584  0.00  0.00    +0.000 A 
ATOM      3  C   UNL     1       3.440   5.627  18.428  0.00  0.00    +0.000 A 
ATOM      4  C   UNL     1       3.166   4.682  19.432  0.00  0.00    +0.000 A 
ATOM      5  N   UNL     1       3.599   3.396  19.636  0.00  0.00    +0.000 N 
ATOM      6  N   UNL     1       3.088   2.797  20.724  0.00  0.00    +0.000 NA
ATOM      7  C   UNL     1       2.304   3.741  21.252  0.00  0.00    +0.000 A 
ATOM      8  C   UNL     1       2.324   4.939  20.506  0.00  0.00    +0.000 A 
ATOM      9  C   UNL     1       1.722   6.203  20.624  0.00  0.00    +0.000 A 
ATOM     10  H   UNL     1       4.235   2.873  19.045  0.00  0.00    +0.000 HD
ENDROOT
BRANCH   1  13
ATOM     11  N   UNL     1       0.669  10.544  19.207  0.00  0.00    +0.000 N 
ATOM     12  C   UNL     1       1.275   9.398  18.750  0.00  0.00    +0.000 A 
ATOM     13  C   UNL     1       1.450   8.535  19.817  0.00  0.00    +0.000 A 
ATOM     14  C   UNL     1       0.931   9.205  20.964  0.00  0.00    +0.000 A 
ATOM     15  N   UNL     1       0.846   8.779  22.243  0.00  0.00    +0.000 NA
ATOM     16  C   UNL     1       0.270   9.639  23.080  0.00  0.00    +0.000 A 
ATOM     17  N   UNL     1       0.148   9.240  24.399  0.00  0.00    +0.000 N 
ATOM     18  N   UNL     1      -0.175  10.867  22.781  0.00  0.00    +0.000 NA
ATOM     19  C   UNL     1      -0.096  11.292  21.502  0.00  0.00    +0.000 A 
ATOM     20  C   UNL     1       0.466  10.452  20.562  0.00  0.00    +0.000 A 
ATOM     21  H   UNL     1       0.854   8.547  24.603  0.00  0.00    +0.000 HD
ATOM     22  H   UNL     1       0.115  10.058  24.990  0.00  0.00    +0.000 HD
BRANCH  11  23
ATOM     23  C   UNL     1       0.252  11.632  18.336  0.00  0.00    +0.000 C 
BRANCH  23  24
ATOM     24  C   UNL     1      -1.270  11.801  18.272  0.00  0.00    +0.000 C 
BRANCH  24  25
ATOM     25  C   UNL     1      -1.953  10.795  17.349  0.00  0.00    +0.000 C 
BRANCH  25  26
ATOM     26  N   UNL     1      -2.378  11.440  16.111  0.00  0.00    +0.000 NA
ATOM     27  H   UNL     1      -2.381  10.752  15.360  0.00  0.00    +0.000 HD
ATOM     28  H   UNL     1      -1.700  12.151  15.843  0.00  0.00    +0.000 HD
ENDBRANCH  25  26
ENDBRANCH  24  25
ENDBRANCH  23  24
ENDBRANCH  11  23
ENDBRANCH   1  13
BRANCH   3  29
ATOM     29  C   UNL     1       4.339   5.316  17.310  0.00  0.00    +0.000 A 
ATOM     30  C   UNL     1       4.160   4.417  16.276  0.00  0.00    +0.000 A 
ATOM     31  C   UNL     1       5.229   4.424  15.316  0.00  0.00    +0.000 A 
ATOM     32  C   UNL     1       5.402   3.697  14.113  0.00  0.00    +0.000 A 
ATOM     33  C   UNL     1       6.534   3.909  13.319  0.00  0.00    +0.000 A 
ATOM     34  C   UNL     1       7.499   4.832  13.697  0.00  0.00    +0.000 A 
ATOM     35  C   UNL     1       7.360   5.553  14.882  0.00  0.00    +0.000 A 
ATOM     36  C   UNL     1       6.225   5.328  15.682  0.00  0.00    +0.000 A 
ATOM     37  S   UNL     1       5.875   6.068  17.184  0.00  0.00    +0.000 S 
ENDBRANCH   3  29
TORSDOF 6
ENDMDL
MODEL 3
REMARK VINA RESULT:      -8.2      2.483      8.376
REMARK  Name = 
REMARK  6 active torsions:
REMARK  status: ('A' for Active; 'I' for Inactive)
REMARK    1  A    between atoms: N_1  and  C_2
REMARK    2  A    between atoms: C_2  and  C_3
REMARK    3  A    between atoms: C_3  and  C_4
REMARK    4  A    between atoms: C_4  and  N_5
REMARK    5  A    between atoms: C_7  and  C_8
REMARK    6  A    between atoms: C_10  and  C_11
REMARK                            x       y       z     vdW  Elec       q    Type
REMARK                         _______ _______ _______ _____ _____    ______ ____
ROOT
ATOM      1  C   UNL     1       1.982   7.211  19.708  0.00  0.00    +0.000 A 
ATOM      2  C   UNL     1       2.826   6.910  18.628  0.00  0.00    +0.000 A 
ATOM      3  C   UNL     1       3.417   5.643  18.469  0.00  0.00    +0.000 A 
ATOM      4  C   UNL     1       3.135   4.695  19.467  0.00  0.00    +0.000 A 
ATOM      5  N   UNL     1       3.561   3.406  19.667  0.00  0.00    +0.000 N 
ATOM      6  N   UNL     1       3.041   2.804  20.749  0.00  0.00    +0.000 NA
ATOM      7  C   UNL     1       2.260   3.750  21.278  0.00  0.00    +0.000 A 
ATOM      8  C   UNL     1       2.288   4.951  20.539  0.00  0.00    +0.000 A 
ATOM      9  C   UNL     1       1.692   6.217  20.659  0.00  0.00    +0.000 A 
ATOM     10  H   UNL     1       4.197   2.883  19.076  0.00  0.00    +0.000 HD
ENDROOT
BRANCH   1  13
ATOM     11  N   UNL     1       0.670  10.572  19.259  0.00  0.00    +0.000 N 
ATOM     12  C   UNL     1       1.274   9.426  18.800  0.00  0.00    +0.000 A 
ATOM     13  C   UNL     1       1.435   8.554  19.863  0.00  0.00    +0.000 A 
ATOM     14  C   UNL     1       0.907   9.219  21.009  0.00  0.00    +0.000 A 
ATOM     15  N   UNL     1       0.808   8.784  22.284  0.00  0.00    +0.000 NA
ATOM     16  C   UNL     1       0.227   9.642  23.121  0.00  0.00    +0.000 A 
ATOM     17  N   UNL     1       0.090   9.233  24.436  0.00  0.00    +0.000 N 
ATOM     18  N   UNL     1      -0.208  10.874  22.826  0.00  0.00    +0.000 NA
ATOM     19  C   UNL     1      -0.114  11.307  21.551  0.00  0.00    +0.000 A 
ATOM     20  C   UNL     1       0.453  10.470  20.611  0.00  0.00    +0.000 A 
ATOM     21  H   UNL     1       0.790   8.536  24.642  0.00  0.00    +0.000 HD
ATOM     22  H   UNL     1       0.055  10.048  25.033  0.00  0.00    +0.000 HD
BRANCH  11  23
ATOM     23  C   UNL     1       0.268  11.667  18.392  0.00  0.00    +0.000 C 
BRANCH  23  24
ATOM     24  C   UNL     1       0.794  13.029  18.860  0.00  0.00    +0.000 C 
BRANCH  24  25
ATOM     25  C   UNL     1       2.274  13.246  18.550  0.00  0.00    +0.000 C 
BRANCH  25  26
ATOM     26  N   UNL     1       2.673  12.470  17.380  0.00  0.00    +0.000 NA
ATOM     27  H   UNL     1       3.495  12.898  16.961  0.00  0.00    +0.000 HD
ATOM     28  H   UNL     1       1.939  12.510  16.675  0.00  0.00    +0.000 HD
ENDBRANCH  25  26
ENDBRANCH  24  25
ENDBRANCH  23  24
ENDBRANCH  11  23
ENDBRANCH   1  13
BRANCH   3  29
ATOM     29  C   UNL     1       4.321   5.334  17.353  0.00  0.00    +0.000 A 
ATOM     30  C   UNL     1       4.144   4.437  16.317  0.00  0.00    +0.000 A 
ATOM     31  C   UNL     1       5.217   4.445  15.360  0.00  0.00    +0.000 A 
ATOM     32  C   UNL     1       5.393   3.720  14.158  0.00  0.00    +0.000 A 
ATOM     33  C   UNL     1       6.528   3.931  13.367  0.00  0.00    +0.000 A 
ATOM     34  C   UNL     1       7.492   4.853  13.751  0.00  0.00    +0.000 A 
ATOM     35  C   UNL     1       7.351   5.571  14.937  0.00  0.00    +0.000 A 
ATOM     36  C   UNL     1       6.212   5.347  15.732  0.00  0.00    +0.000 A 
ATOM     37  S   UNL     1       5.857   6.084  17.234  0.00  0.00    +0.000 S 
ENDBRANCH   3  29
TORSDOF 6
ENDMDL
MODEL 4
REMARK VINA RESULT:      -8.2      0.626      1.092
REMARK  Name = 
REMARK  6 active torsions:
REMARK  status: ('A' for Active; 'I' for Inactive)
REMARK    1  A    between atoms: N_1  and  C_2
REMARK    2  A    between atoms: C_2  and  C_3
REMARK    3  A    between atoms: C_3  and  C_4
REMARK    4  A    between atoms: C_4  and  N_5
REMARK    5  A    between atoms: C_7  and  C_8
REMARK    6  A    between atoms: C_10  and  C_11
REMARK                            x       y       z     vdW  Elec       q    Type
REMARK                         _______ _______ _______ _____ _____    ______ ____
ROOT
ATOM      1  C   UNL     1       1.594   8.536  20.022  0.00  0.00    +0.000 A 
ATOM      2  C   UNL     1       1.631   9.875  19.601  0.00  0.00    +0.000 A 
ATOM      3  C   UNL     1       0.993  10.904  20.318  0.00  0.00    +0.000 A 
ATOM      4  C   UNL     1       0.294  10.517  21.473  0.00  0.00    +0.000 A 
ATOM      5  N   UNL     1      -0.468  11.218  22.373  0.00  0.00    +0.000 N 
ATOM      6  N   UNL     1      -0.967  10.483  23.381  0.00  0.00    +0.000 NA
ATOM      7  C   UNL     1      -0.521   9.253  23.110  0.00  0.00    +0.000 A 
ATOM      8  C   UNL     1       0.253   9.206  21.932  0.00  0.00    +0.000 A 
ATOM      9  C   UNL     1       0.919   8.202  21.209  0.00  0.00    +0.000 A 
ATOM     10  H   UNL     1      -0.663  12.213  22.352  0.00  0.00    +0.000 HD
ENDROOT
BRANCH   1  13
ATOM     11  N   UNL     1       3.575   6.583  17.682  0.00  0.00    +0.000 N 
ATOM     12  C   UNL     1       3.104   7.771  18.188  0.00  0.00    +0.000 A 
ATOM     13  C   UNL     1       2.223   7.494  19.218  0.00  0.00    +0.000 A 
ATOM     14  C   UNL     1       2.161   6.073  19.323  0.00  0.00    +0.000 A 
ATOM     15  N   UNL     1       1.463   5.304  20.187  0.00  0.00    +0.000 NA
ATOM     16  C   UNL     1       1.651   3.995  20.044  0.00  0.00    +0.000 A 
ATOM     17  N   UNL     1       0.967   3.167  20.917  0.00  0.00    +0.000 N 
ATOM     18  N   UNL     1       2.412   3.394  19.119  0.00  0.00    +0.000 NA
ATOM     19  C   UNL     1       3.114   4.160  18.259  0.00  0.00    +0.000 A 
ATOM     20  C   UNL     1       2.997   5.533  18.352  0.00  0.00    +0.000 A 
ATOM     21  H   UNL     1       0.146   3.648  21.255  0.00  0.00    +0.000 HD
ATOM     22  H   UNL     1       0.833   2.266  20.481  0.00  0.00    +0.000 HD
BRANCH  11  23
ATOM     23  C   UNL     1       4.592   6.500  16.646  0.00  0.00    +0.000 C 
BRANCH  23  24
ATOM     24  C   UNL     1       6.014   6.378  17.207  0.00  0.00    +0.000 C 
BRANCH  24  25
ATOM     25  C   UNL     1       6.650   5.013  16.953  0.00  0.00    +0.000 C 
BRANCH  25  26
ATOM     26  N   UNL     1       6.755   4.256  18.197  0.00  0.00    +0.000 NA
ATOM     27  H   UNL     1       5.826   4.146  18.600  0.00  0.00    +0.000 HD
ATOM     28  H   UNL     1       7.300   4.784  18.876  0.00  0.00    +0.000 HD
ENDBRANCH  25  26
ENDBRANCH  24  25
ENDBRANCH  23  24
ENDBRANCH  11  23
ENDBRANCH   1  13
BRANCH   3  29
ATOM     29  C   UNL     1       1.009  12.301  19.865  0.00  0.00    +0.000 A 
ATOM     30  C   UNL     1       2.094  13.114  19.599  0.00  0.00    +0.000 A 
ATOM     31  C   UNL     1       1.731  14.415  19.107  0.00  0.00    +0.000 A 
ATOM     32  C   UNL     1       2.531  15.505  18.686  0.00  0.00    +0.000 A 
ATOM     33  C   UNL     1       1.931  16.675  18.208  0.00  0.00    +0.000 A 
ATOM     34  C   UNL     1       0.549  16.782  18.139  0.00  0.00    +0.000 A 
ATOM     35  C   UNL     1      -0.263  15.729  18.560  0.00  0.00    +0.000 A 
ATOM     36  C   UNL     1       0.346  14.559  19.049  0.00  0.00    +0.000 A 
ATOM     37  S   UNL     1      -0.452  13.171  19.648  0.00  0.00    +0.000 S 
ENDBRANCH   3  29
TORSDOF 6
ENDMDL
MODEL 5
REMARK VINA RESULT:      -8.1      4.131      9.412
REMARK  Name = 
REMARK  6 active torsions:
REMARK  status: ('A' for Active; 'I' for Inactive)
REMARK    1  A    between atoms: N_1  and  C_2
REMARK    2  A    between atoms: C_2  and  C_3
REMARK    3  A    between atoms: C_3  and  C_4
REMARK    4  A    between atoms: C_4  and  N_5
REMARK    5  A    between atoms: C_7  and  C_8
REMARK    6  A    between atoms: C_10  and  C_11
REMARK                            x       y       z     vdW  Elec       q    Type
REMARK                         _______ _______ _______ _____ _____    ______ ____
ROOT
ATOM      1  C   UNL     1      -1.799  12.560  20.025  0.00  0.00    +0.000 A 
ATOM      2  C   UNL     1      -1.125  11.340  19.861  0.00  0.00    +0.000 A 
ATOM      3  C   UNL     1       0.237  11.278  19.510  0.00  0.00    +0.000 A 
ATOM      4  C   UNL     1       0.884  12.508  19.309  0.00  0.00    +0.000 A 
ATOM      5  N   UNL     1       2.160  12.831  18.921  0.00  0.00    +0.000 N 
ATOM      6  N   UNL     1       2.414  14.148  18.860  0.00  0.00    +0.000 NA
ATOM      7  C   UNL     1       1.247  14.699  19.208  0.00  0.00    +0.000 A 
ATOM      8  C   UNL     1       0.255  13.735  19.482  0.00  0.00    +0.000 A 
ATOM      9  C   UNL     1      -1.099  13.768  19.857  0.00  0.00    +0.000 A 
ATOM     10  H   UNL     1       2.907  12.180  18.703  0.00  0.00    +0.000 HD
ENDROOT
BRANCH   1  13
ATOM     11  N   UNL     1      -5.424  12.276  20.033  0.00  0.00    +0.000 N 
ATOM     12  C   UNL     1      -4.197  12.231  19.415  0.00  0.00    +0.000 A 
ATOM     13  C   UNL     1      -3.224  12.577  20.336  0.00  0.00    +0.000 A 
ATOM     14  C   UNL     1      -3.908  12.849  21.558  0.00  0.00    +0.000 A 
ATOM     15  N   UNL     1      -3.408  13.204  22.761  0.00  0.00    +0.000 NA
ATOM     16  C   UNL     1      -4.318  13.351  23.721  0.00  0.00    +0.000 A 
ATOM     17  N   UNL     1      -3.851  13.700  24.976  0.00  0.00    +0.000 N 
ATOM     18  N   UNL     1      -5.646  13.227  23.588  0.00  0.00    +0.000 NA
ATOM     19  C   UNL     1      -6.146  12.867  22.387  0.00  0.00    +0.000 A 
ATOM     20  C   UNL     1      -5.268  12.668  21.339  0.00  0.00    +0.000 A 
ATOM     21  H   UNL     1      -2.962  14.170  24.880  0.00  0.00    +0.000 HD
ATOM     22  H   UNL     1      -4.582  14.186  25.477  0.00  0.00    +0.000 HD
BRANCH  11  23
ATOM     23  C   UNL     1      -6.663  11.883  19.383  0.00  0.00    +0.000 C 
BRANCH  23  24
ATOM     24  C   UNL     1      -6.922  10.373  19.446  0.00  0.00    +0.000 C 
BRANCH  24  25
ATOM     25  C   UNL     1      -7.757   9.950  20.652  0.00  0.00    +0.000 C 
BRANCH  25  26
ATOM     26  N   UNL     1      -7.544   8.539  20.955  0.00  0.00    +0.000 NA
ATOM     27  H   UNL     1      -8.140   8.271  21.736  0.00  0.00    +0.000 HD
ATOM     28  H   UNL     1      -6.585   8.395  21.266  0.00  0.00    +0.000 HD
ENDBRANCH  25  26
ENDBRANCH  24  25
ENDBRANCH  23  24
ENDBRANCH  11  23
ENDBRANCH   1  13
BRANCH   3  29
ATOM     29  C   UNL     1       0.938  10.003  19.314  0.00  0.00    +0.000 A 
ATOM     30  C   UNL     1       1.629   9.555  18.204  0.00  0.00    +0.000 A 
ATOM     31  C   UNL     1       2.250   8.272  18.392  0.00  0.00    +0.000 A 
ATOM     32  C   UNL     1       3.066   7.501  17.530  0.00  0.00    +0.000 A 
ATOM     33  C   UNL     1       3.588   6.277  17.963  0.00  0.00    +0.000 A 
ATOM     34  C   UNL     1       3.314   5.805  19.239  0.00  0.00    +0.000 A 
ATOM     35  C   UNL     1       2.502   6.538  20.104  0.00  0.00    +0.000 A 
ATOM     36  C   UNL     1       1.973   7.763  19.659  0.00  0.00    +0.000 A 
ATOM     37  S   UNL     1       0.930   8.799  20.534  0.00  0.00    +0.000 S 
ENDBRANCH   3  29
TORSDOF 6
ENDMDL
MODEL 6
REMARK VINA RESULT:      -8.0      4.073      9.359
REMARK  Name = 
REMARK  6 active torsions:
REMARK  status: ('A' for Active; 'I' for Inactive)
REMARK    1  A    between atoms: N_1  and  C_2
REMARK    2  A    between atoms: C_2  and  C_3
REMARK    3  A    between atoms: C_3  and  C_4
REMARK    4  A    between atoms: C_4  and  N_5
REMARK    5  A    between atoms: C_7  and  C_8
REMARK    6  A    between atoms: C_10  and  C_11
REMARK                            x       y       z     vdW  Elec       q    Type
REMARK                         _______ _______ _______ _____ _____    ______ ____
ROOT
ATOM      1  C   UNL     1      -1.793  12.550  19.987  0.00  0.00    +0.000 A 
ATOM      2  C   UNL     1      -1.130  11.315  19.918  0.00  0.00    +0.000 A 
ATOM      3  C   UNL     1       0.231  11.213  19.573  0.00  0.00    +0.000 A 
ATOM      4  C   UNL     1       0.889  12.419  19.277  0.00  0.00    +0.000 A 
ATOM      5  N   UNL     1       2.168  12.698  18.865  0.00  0.00    +0.000 N 
ATOM      6  N   UNL     1       2.433  14.005  18.702  0.00  0.00    +0.000 NA
ATOM      7  C   UNL     1       1.272  14.591  19.006  0.00  0.00    +0.000 A 
ATOM      8  C   UNL     1       0.271  13.660  19.354  0.00  0.00    +0.000 A 
ATOM      9  C   UNL     1      -1.082  13.734  19.725  0.00  0.00    +0.000 A 
ATOM     10  H   UNL     1       2.909  12.026  18.698  0.00  0.00    +0.000 HD
ENDROOT
BRANCH   1  13
ATOM     11  N   UNL     1      -5.425  12.396  19.975  0.00  0.00    +0.000 N 
ATOM     12  C   UNL     1      -4.199  12.336  19.358  0.00  0.00    +0.000 A 
ATOM     13  C   UNL     1      -3.218  12.604  20.295  0.00  0.00    +0.000 A 
ATOM     14  C   UNL     1      -3.895  12.843  21.527  0.00  0.00    +0.000 A 
ATOM     15  N   UNL     1      -3.387  13.125  22.747  0.00  0.00    +0.000 NA
ATOM     16  C   UNL     1      -4.295  13.260  23.710  0.00  0.00    +0.000 A 
ATOM     17  N   UNL     1      -3.820  13.534  24.981  0.00  0.00    +0.000 N 
ATOM     18  N   UNL     1      -5.626  13.190  23.569  0.00  0.00    +0.000 NA
ATOM     19  C   UNL     1      -6.134  12.904  22.353  0.00  0.00    +0.000 A 
ATOM     20  C   UNL     1      -5.261  12.722  21.299  0.00  0.00    +0.000 A 
ATOM     21  H   UNL     1      -2.914  13.975  24.908  0.00  0.00    +0.000 HD
ATOM     22  H   UNL     1      -4.534  14.022  25.503  0.00  0.00    +0.000 HD
BRANCH  11  23
ATOM     23  C   UNL     1      -6.676  12.078  19.306  0.00  0.00    +0.000 C 
BRANCH  23  24
ATOM     24  C   UNL     1      -6.792  10.599  18.919  0.00  0.00    +0.000 C 
BRANCH  24  25
ATOM     25  C   UNL     1      -7.320   9.717  20.049  0.00  0.00    +0.000 C 
BRANCH  25  26
ATOM     26  N   UNL     1      -7.155   8.305  19.717  0.00  0.00    +0.000 NA
ATOM     27  H   UNL     1      -7.296   8.179  18.716  0.00  0.00    +0.000 HD
ATOM     28  H   UNL     1      -7.880   7.757  20.177  0.00  0.00    +0.000 HD
ENDBRANCH  25  26
ENDBRANCH  24  25
ENDBRANCH  23  24
ENDBRANCH  11  23
ENDBRANCH   1  13
BRANCH   3  29
ATOM     29  C   UNL     1       0.920   9.920  19.475  0.00  0.00    +0.000 A 
ATOM     30  C   UNL     1       1.062   8.938  20.437  0.00  0.00    +0.000 A 
ATOM     31  C   UNL     1       1.749   7.767  19.965  0.00  0.00    +0.000 A 
ATOM     32  C   UNL     1       2.053   6.546  20.614  0.00  0.00    +0.000 A 
ATOM     33  C   UNL     1       2.712   5.525  19.919  0.00  0.00    +0.000 A 
ATOM     34  C   UNL     1       3.074   5.695  18.590  0.00  0.00    +0.000 A 
ATOM     35  C   UNL     1       2.798   6.893  17.931  0.00  0.00    +0.000 A 
ATOM     36  C   UNL     1       2.144   7.919  18.637  0.00  0.00    +0.000 A 
ATOM     37  S   UNL     1       1.745   9.471  18.041  0.00  0.00    +0.000 S 
ENDBRANCH   3  29
TORSDOF 6
ENDMDL
MODEL 7
REMARK VINA RESULT:      -7.9      4.084      9.446
REMARK  Name = 
REMARK  6 active torsions:
REMARK  status: ('A' for Active; 'I' for Inactive)
REMARK    1  A    between atoms: N_1  and  C_2
REMARK    2  A    between atoms: C_2  and  C_3
REMARK    3  A    between atoms: C_3  and  C_4
REMARK    4  A    between atoms: C_4  and  N_5
REMARK    5  A    between atoms: C_7  and  C_8
REMARK    6  A    between atoms: C_10  and  C_11
REMARK                            x       y       z     vdW  Elec       q    Type
REMARK                         _______ _______ _______ _____ _____    ______ ____
ROOT
ATOM      1  C   UNL     1      -1.513  12.141  19.203  0.00  0.00    +0.000 A 
ATOM      2  C   UNL     1      -0.823  10.918  19.167  0.00  0.00    +0.000 A 
ATOM      3  C   UNL     1       0.563  10.847  18.936  0.00  0.00    +0.000 A 
ATOM      4  C   UNL     1       1.222  12.069  18.722  0.00  0.00    +0.000 A 
ATOM      5  N   UNL     1       2.526  12.378  18.425  0.00  0.00    +0.000 N 
ATOM      6  N   UNL     1       2.780  13.692  18.311  0.00  0.00    +0.000 NA
ATOM      7  C   UNL     1       1.587  14.253  18.527  0.00  0.00    +0.000 A 
ATOM      8  C   UNL     1       0.577  13.298  18.771  0.00  0.00    +0.000 A 
ATOM      9  C   UNL     1      -0.804  13.342  19.027  0.00  0.00    +0.000 A 
ATOM     10  H   UNL     1       3.290  11.722  18.308  0.00  0.00    +0.000 HD
ENDROOT
BRANCH   1  13
ATOM     11  N   UNL     1      -5.127  11.910  18.886  0.00  0.00    +0.000 N 
ATOM     12  C   UNL     1      -3.852  11.875  18.374  0.00  0.00    +0.000 A 
ATOM     13  C   UNL     1      -2.959  12.164  19.390  0.00  0.00    +0.000 A 
ATOM     14  C   UNL     1      -3.743  12.390  20.560  0.00  0.00    +0.000 A 
ATOM     15  N   UNL     1      -3.345  12.682  21.818  0.00  0.00    +0.000 NA
ATOM     16  C   UNL     1      -4.334  12.799  22.701  0.00  0.00    +0.000 A 
ATOM     17  N   UNL     1      -3.973  13.083  24.007  0.00  0.00    +0.000 N 
ATOM     18  N   UNL     1      -5.646  12.700  22.449  0.00  0.00    +0.000 NA
ATOM     19  C   UNL     1      -6.044  12.403  21.194  0.00  0.00    +0.000 A 
ATOM     20  C   UNL     1      -5.081  12.240  20.218  0.00  0.00    +0.000 A 
ATOM     21  H   UNL     1      -3.074  13.544  24.010  0.00  0.00    +0.000 HD
ATOM     22  H   UNL     1      -4.739  13.556  24.465  0.00  0.00    +0.000 HD
BRANCH  11  23
ATOM     23  C   UNL     1      -6.310  11.565  18.114  0.00  0.00    +0.000 C 
BRANCH  23  24
ATOM     24  C   UNL     1      -6.740  12.672  17.145  0.00  0.00    +0.000 C 
BRANCH  24  25
ATOM     25  C   UNL     1      -7.422  13.851  17.836  0.00  0.00    +0.000 C 
BRANCH  25  26
ATOM     26  N   UNL     1      -6.506  14.983  17.942  0.00  0.00    +0.000 NA
ATOM     27  H   UNL     1      -6.086  14.986  18.870  0.00  0.00    +0.000 HD
ATOM     28  H   UNL     1      -7.026  15.855  17.862  0.00  0.00    +0.000 HD
ENDBRANCH  25  26
ENDBRANCH  24  25
ENDBRANCH  23  24
ENDBRANCH  11  23
ENDBRANCH   1  13
BRANCH   3  29
ATOM     29  C   UNL     1       1.282   9.568  18.872  0.00  0.00    +0.000 A 
ATOM     30  C   UNL     1       2.033   9.045  17.836  0.00  0.00    +0.000 A 
ATOM     31  C   UNL     1       2.651   7.787  18.152  0.00  0.00    +0.000 A 
ATOM     32  C   UNL     1       3.516   6.962  17.393  0.00  0.00    +0.000 A 
ATOM     33  C   UNL     1       4.022   5.779  17.943  0.00  0.00    +0.000 A 
ATOM     34  C   UNL     1       3.686   5.401  19.236  0.00  0.00    +0.000 A 
ATOM     35  C   UNL     1       2.826   6.189  20.000  0.00  0.00    +0.000 A 
ATOM     36  C   UNL     1       2.312   7.372  19.438  0.00  0.00    +0.000 A 
ATOM     37  S   UNL     1       1.219   8.459  20.178  0.00  0.00    +0.000 S 
ENDBRANCH   3  29
TORSDOF 6
ENDMDL
MODEL 8
REMARK VINA RESULT:      -7.9      3.150      5.067
REMARK  Name = 
REMARK  6 active torsions:
REMARK  status: ('A' for Active; 'I' for Inactive)
REMARK    1  A    between atoms: N_1  and  C_2
REMARK    2  A    between atoms: C_2  and  C_3
REMARK    3  A    between atoms: C_3  and  C_4
REMARK    4  A    between atoms: C_4  and  N_5
REMARK    5  A    between atoms: C_7  and  C_8
REMARK    6  A    between atoms: C_10  and  C_11
REMARK                            x       y       z     vdW  Elec       q    Type
REMARK                         _______ _______ _______ _____ _____    ______ ____
ROOT
ATOM      1  C   UNL     1       1.643   9.280  18.747  0.00  0.00    +0.000 A 
ATOM      2  C   UNL     1       0.264   9.544  18.754  0.00  0.00    +0.000 A 
ATOM      3  C   UNL     1      -0.251  10.840  18.560  0.00  0.00    +0.000 A 
ATOM      4  C   UNL     1       0.693  11.864  18.380  0.00  0.00    +0.000 A 
ATOM      5  N   UNL     1       0.568  13.221  18.217  0.00  0.00    +0.000 N 
ATOM      6  N   UNL     1       1.728  13.877  18.051  0.00  0.00    +0.000 NA
ATOM      7  C   UNL     1       2.641  12.905  18.127  0.00  0.00    +0.000 A 
ATOM      8  C   UNL     1       2.063  11.637  18.346  0.00  0.00    +0.000 A 
ATOM      9  C   UNL     1       2.549  10.330  18.518  0.00  0.00    +0.000 A 
ATOM     10  H   UNL     1      -0.299  13.748  18.192  0.00  0.00    +0.000 HD
ENDROOT
BRANCH   1  13
ATOM     11  N   UNL     1       2.264   5.914  19.972  0.00  0.00    +0.000 N 
ATOM     12  C   UNL     1       1.659   7.146  20.042  0.00  0.00    +0.000 A 
ATOM     13  C   UNL     1       2.134   7.931  19.006  0.00  0.00    +0.000 A 
ATOM     14  C   UNL     1       3.072   7.128  18.292  0.00  0.00    +0.000 A 
ATOM     15  N   UNL     1       3.793   7.425  17.189  0.00  0.00    +0.000 NA
ATOM     16  C   UNL     1       4.561   6.434  16.743  0.00  0.00    +0.000 A 
ATOM     17  N   UNL     1       5.307   6.687  15.605  0.00  0.00    +0.000 N 
ATOM     18  N   UNL     1       4.711   5.226  17.303  0.00  0.00    +0.000 NA
ATOM     19  C   UNL     1       3.988   4.927  18.402  0.00  0.00    +0.000 A 
ATOM     20  C   UNL     1       3.144   5.890  18.919  0.00  0.00    +0.000 A 
ATOM     21  H   UNL     1       5.458   7.683  15.522  0.00  0.00    +0.000 HD
ATOM     22  H   UNL     1       6.122   6.091  15.605  0.00  0.00    +0.000 HD
BRANCH  11  23
ATOM     23  C   UNL     1       1.931   4.807  20.855  0.00  0.00    +0.000 C 
BRANCH  23  24
ATOM     24  C   UNL     1       0.990   3.784  20.208  0.00  0.00    +0.000 C 
BRANCH  24  25
ATOM     25  C   UNL     1       1.640   2.421  19.982  0.00  0.00    +0.000 C 
BRANCH  25  26
ATOM     26  N   UNL     1       1.327   1.918  18.648  0.00  0.00    +0.000 NA
ATOM     27  H   UNL     1       0.830   1.034  18.732  0.00  0.00    +0.000 HD
ATOM     28  H   UNL     1       2.190   1.713  18.147  0.00  0.00    +0.000 HD
ENDBRANCH  25  26
ENDBRANCH  24  25
ENDBRANCH  23  24
ENDBRANCH  11  23
ENDBRANCH   1  13
BRANCH   3  29
ATOM     29  C   UNL     1      -1.692  11.123  18.592  0.00  0.00    +0.000 A 
ATOM     30  C   UNL     1      -2.410  11.864  19.512  0.00  0.00    +0.000 A 
ATOM     31  C   UNL     1      -3.805  11.985  19.189  0.00  0.00    +0.000 A 
ATOM     32  C   UNL     1      -4.851  12.683  19.840  0.00  0.00    +0.000 A 
ATOM     33  C   UNL     1      -6.143  12.677  19.302  0.00  0.00    +0.000 A 
ATOM     34  C   UNL     1      -6.414  11.991  18.126  0.00  0.00    +0.000 A 
ATOM     35  C   UNL     1      -5.406  11.285  17.472  0.00  0.00    +0.000 A 
ATOM     36  C   UNL     1      -4.111  11.286  18.023  0.00  0.00    +0.000 A 
ATOM     37  S   UNL     1      -2.744  10.462  17.412  0.00  0.00    +0.000 S 
ENDBRANCH   3  29
TORSDOF 6
ENDMDL
MODEL 9
REMARK VINA RESULT:      -7.9      3.176      5.171
REMARK  Name = 
REMARK  6 active torsions:
REMARK  status: ('A' for Active; 'I' for Inactive)
REMARK    1  A    between atoms: N_1  and  C_2
REMARK    2  A    between atoms: C_2  and  C_3
REMARK    3  A    between atoms: C_3  and  C_4
REMARK    4  A    between atoms: C_4  and  N_5
REMARK    5  A    between atoms: C_7  and  C_8
REMARK    6  A    between atoms: C_10  and  C_11
REMARK                            x       y       z     vdW  Elec       q    Type
REMARK                         _______ _______ _______ _____ _____    ______ ____
ROOT
ATOM      1  C   UNL     1       1.559   9.498  18.798  0.00  0.00    +0.000 A 
ATOM      2  C   UNL     1       0.181   9.768  18.793  0.00  0.00    +0.000 A 
ATOM      3  C   UNL     1      -0.328  11.065  18.592  0.00  0.00    +0.000 A 
ATOM      4  C   UNL     1       0.621  12.085  18.416  0.00  0.00    +0.000 A 
ATOM      5  N   UNL     1       0.502  13.442  18.248  0.00  0.00    +0.000 N 
ATOM      6  N   UNL     1       1.666  14.093  18.090  0.00  0.00    +0.000 NA
ATOM      7  C   UNL     1       2.575  13.118  18.175  0.00  0.00    +0.000 A 
ATOM      8  C   UNL     1       1.991  11.853  18.394  0.00  0.00    +0.000 A 
ATOM      9  C   UNL     1       2.470  10.545  18.574  0.00  0.00    +0.000 A 
ATOM     10  H   UNL     1      -0.362  13.972  18.215  0.00  0.00    +0.000 HD
ENDROOT
BRANCH   1  13
ATOM     11  N   UNL     1       2.171   6.141  20.052  0.00  0.00    +0.000 N 
ATOM     12  C   UNL     1       1.577   7.379  20.117  0.00  0.00    +0.000 A 
ATOM     13  C   UNL     1       2.043   8.149  19.065  0.00  0.00    +0.000 A 
ATOM     14  C   UNL     1       2.964   7.330  18.347  0.00  0.00    +0.000 A 
ATOM     15  N   UNL     1       3.671   7.609  17.230  0.00  0.00    +0.000 NA
ATOM     16  C   UNL     1       4.424   6.607  16.784  0.00  0.00    +0.000 A 
ATOM     17  N   UNL     1       5.155   6.842  15.632  0.00  0.00    +0.000 N 
ATOM     18  N   UNL     1       4.573   5.404  17.355  0.00  0.00    +0.000 NA
ATOM     19  C   UNL     1       3.864   5.123  18.468  0.00  0.00    +0.000 A 
ATOM     20  C   UNL     1       3.035   6.098  18.986  0.00  0.00    +0.000 A 
ATOM     21  H   UNL     1       5.314   7.834  15.536  0.00  0.00    +0.000 HD
ATOM     22  H   UNL     1       5.966   6.239  15.627  0.00  0.00    +0.000 HD
BRANCH  11  23
ATOM     23  C   UNL     1       1.843   5.047  20.952  0.00  0.00    +0.000 C 
BRANCH  23  24
ATOM     24  C   UNL     1       0.978   3.966  20.293  0.00  0.00    +0.000 C 
BRANCH  24  25
ATOM     25  C   UNL     1       1.350   2.548  20.721  0.00  0.00    +0.000 C 
BRANCH  25  26
ATOM     26  N   UNL     1       1.904   2.548  22.071  0.00  0.00    +0.000 NA
ATOM     27  H   UNL     1       2.453   1.701  22.207  0.00  0.00    +0.000 HD
ATOM     28  H   UNL     1       1.149   2.511  22.753  0.00  0.00    +0.000 HD
ENDBRANCH  25  26
ENDBRANCH  24  25
ENDBRANCH  23  24
ENDBRANCH  11  23
ENDBRANCH   1  13
BRANCH   3  29
ATOM     29  C   UNL     1      -1.768  11.353  18.612  0.00  0.00    +0.000 A 
ATOM     30  C   UNL     1      -2.731  11.025  17.677  0.00  0.00    +0.000 A 
ATOM     31  C   UNL     1      -4.061  11.415  18.061  0.00  0.00    +0.000 A 
ATOM     32  C   UNL     1      -5.306  11.226  17.414  0.00  0.00    +0.000 A 
ATOM     33  C   UNL     1      -6.487  11.675  18.016  0.00  0.00    +0.000 A 
ATOM     34  C   UNL     1      -6.453  12.307  19.251  0.00  0.00    +0.000 A 
ATOM     35  C   UNL     1      -5.239  12.517  19.904  0.00  0.00    +0.000 A 
ATOM     36  C   UNL     1      -4.054  12.072  19.289  0.00  0.00    +0.000 A 
ATOM     37  S   UNL     1      -2.464  12.259  19.890  0.00  0.00    +0.000 S 
ENDBRANCH   3  29
TORSDOF 6
ENDMDL
