MODEL 1
REMARK VINA RESULT:      -8.0      0.000      0.000
REMARK  Name = 
REMARK  6 active torsions:
REMARK  status: ('A' for Active; 'I' for Inactive)
REMARK    1  A    between atoms: N_3  and  C_4
REMARK    2  A    between atoms: C_7  and  C_8
REMARK    3  A    between atoms: N_14  and  C_15
REMARK    4  A    between atoms: C_19  and  C_21
REMARK    5  A    between atoms: C_21  and  C_22
REMARK    6  A    between atoms: C_22  and  C_23
REMARK                            x       y       z     vdW  Elec       q    Type
REMARK                         _______ _______ _______ _____ _____    ______ ____
ROOT
ATOM      1  O   UNL     1       7.142   9.352  17.055  0.00  0.00    +0.000 OA
ATOM      2  C   UNL     1       7.673   8.448  17.693  0.00  0.00    +0.000 C 
ATOM      3  N   UNL     1       8.644   8.580  18.644  0.00  0.00    +0.000 N 
ATOM      4  N   UNL     1       7.269   7.185  17.400  0.00  0.00    +0.000 N 
ATOM      5  H   UNL     1       9.119   7.738  18.924  0.00  0.00    +0.000 HD
ATOM      6  H   UNL     1       6.536   7.223  16.701  0.00  0.00    +0.000 HD
ENDROOT
BRANCH   4   7
ATOM      7  C   UNL     1       7.554   5.900  18.031  0.00  0.00    +0.000 C 
ATOM      8  C   UNL     1       7.174   4.754  17.085  0.00  0.00    +0.000 C 
ATOM      9  C   UNL     1       5.662   4.610  16.964  0.00  0.00    +0.000 C 
ATOM     10  N   UNL     1       5.082   4.428  18.289  0.00  0.00    +0.000 N 
ATOM     11  C   UNL     1       4.416   3.245  18.557  0.00  0.00    +0.000 C 
ATOM     12  O   UNL     1       4.236   2.385  17.694  0.00  0.00    +0.000 OA
ATOM     13  C   UNL     1       5.334   5.520  19.231  0.00  0.00    +0.000 C 
ATOM     14  C   UNL     1       6.837   5.767  19.385  0.00  0.00    +0.000 C 
BRANCH  11  15
ATOM     15  C   UNL     1       3.900   3.028  19.965  0.00  0.00    +0.000 C 
BRANCH  15  16
ATOM     16  C   UNL     1       2.425   2.627  19.964  0.00  0.00    +0.000 C 
BRANCH  16  17
ATOM     17  C   UNL     1       1.597   3.380  20.995  0.00  0.00    +0.000 C 
ATOM     18  F   UNL     1       1.112   2.580  21.969  0.00  0.00    +0.000 F 
ATOM     19  F   UNL     1       2.370   4.311  21.606  0.00  0.00    +0.000 F 
ATOM     20  F   UNL     1       0.566   4.038  20.427  0.00  0.00    +0.000 F 
ENDBRANCH  16  17
ENDBRANCH  15  16
ENDBRANCH  11  15
ENDBRANCH   4   7
BRANCH   3  21
ATOM     21  C   UNL     1       9.234   9.792  19.057  0.00  0.00    +0.000 A 
ATOM     22  C   UNL     1       9.161  10.266  20.369  0.00  0.00    +0.000 A 
ATOM     23  C   UNL     1       9.714  11.505  20.709  0.00  0.00    +0.000 A 
ATOM     24  C   UNL     1      10.351  12.294  19.746  0.00  0.00    +0.000 A 
ATOM     25  C   UNL     1      10.450  11.801  18.435  0.00  0.00    +0.000 A 
ATOM     26  C   UNL     1       9.908  10.556  18.098  0.00  0.00    +0.000 A 
BRANCH  24  27
ATOM     27  C   UNL     1      10.914  13.647  20.104  0.00  0.00    +0.000 C 
ATOM     28  F   UNL     1      12.262  13.739  19.932  0.00  0.00    +0.000 F 
ATOM     29  F   UNL     1      10.375  14.649  19.357  0.00  0.00    +0.000 F 
ATOM     30  F   UNL     1      10.681  13.980  21.403  0.00  0.00    +0.000 F 
ENDBRANCH  24  27
ENDBRANCH   3  21
TORSDOF 6
ENDMDL
MODEL 2
REMARK VINA RESULT:      -7.8      0.567      1.016
REMARK  Name = 
REMARK  6 active torsions:
REMARK  status: ('A' for Active; 'I' for Inactive)
REMARK    1  A    between atoms: N_3  and  C_4
REMARK    2  A    between atoms: C_7  and  C_8
REMARK    3  A    between atoms: N_14  and  C_15
REMARK    4  A    between atoms: C_19  and  C_21
REMARK    5  A    between atoms: C_21  and  C_22
REMARK    6  A    between atoms: C_22  and  C_23
REMARK                            x       y       z     vdW  Elec       q    Type
REMARK                         _______ _______ _______ _____ _____    ______ ____
ROOT
ATOM      1  O   UNL     1       7.112   9.369  17.097  0.00  0.00    +0.000 OA
ATOM      2  C   UNL     1       7.656   8.464  17.722  0.00  0.00    +0.000 C 
ATOM      3  N   UNL     1       8.650   8.595  18.649  0.00  0.00    +0.000 N 
ATOM      4  N   UNL     1       7.241   7.203  17.442  0.00  0.00    +0.000 N 
ATOM      5  H   UNL     1       9.130   7.751  18.919  0.00  0.00    +0.000 HD
ATOM      6  H   UNL     1       6.490   7.242  16.761  0.00  0.00    +0.000 HD
ENDROOT
BRANCH   4   7
ATOM      7  C   UNL     1       7.537   5.917  18.067  0.00  0.00    +0.000 C 
ATOM      8  C   UNL     1       7.195   4.773  17.104  0.00  0.00    +0.000 C 
ATOM      9  C   UNL     1       5.688   4.603  16.953  0.00  0.00    +0.000 C 
ATOM     10  N   UNL     1       5.087   4.399  18.266  0.00  0.00    +0.000 N 
ATOM     11  C   UNL     1       4.437   3.202  18.512  0.00  0.00    +0.000 C 
ATOM     12  O   UNL     1       4.289   2.347  17.637  0.00  0.00    +0.000 OA
ATOM     13  C   UNL     1       5.302   5.487  19.222  0.00  0.00    +0.000 C 
ATOM     14  C   UNL     1       6.797   5.760  19.406  0.00  0.00    +0.000 C 
BRANCH  11  15
ATOM     15  C   UNL     1       3.900   2.964  19.907  0.00  0.00    +0.000 C 
BRANCH  15  16
ATOM     16  C   UNL     1       2.376   2.838  19.905  0.00  0.00    +0.000 C 
BRANCH  16  17
ATOM     17  C   UNL     1       1.662   4.182  19.888  0.00  0.00    +0.000 C 
ATOM     18  F   UNL     1       0.400   4.116  20.364  0.00  0.00    +0.000 F 
ATOM     19  F   UNL     1       2.329   5.061  20.676  0.00  0.00    +0.000 F 
ATOM     20  F   UNL     1       1.625   4.716  18.650  0.00  0.00    +0.000 F 
ENDBRANCH  16  17
ENDBRANCH  15  16
ENDBRANCH  11  15
ENDBRANCH   4   7
BRANCH   3  21
ATOM     21  C   UNL     1       9.255   9.805  19.045  0.00  0.00    +0.000 A 
ATOM     22  C   UNL     1       9.240  10.267  20.365  0.00  0.00    +0.000 A 
ATOM     23  C   UNL     1       9.803  11.504  20.690  0.00  0.00    +0.000 A 
ATOM     24  C   UNL     1      10.393  12.305  19.706  0.00  0.00    +0.000 A 
ATOM     25  C   UNL     1      10.434  11.824  18.388  0.00  0.00    +0.000 A 
ATOM     26  C   UNL     1       9.881  10.580  18.065  0.00  0.00    +0.000 A 
BRANCH  24  27
ATOM     27  C   UNL     1      10.967  13.656  20.051  0.00  0.00    +0.000 C 
ATOM     28  F   UNL     1      10.610  14.101  21.288  0.00  0.00    +0.000 F 
ATOM     29  F   UNL     1      12.329  13.662  20.033  0.00  0.00    +0.000 F 
ATOM     30  F   UNL     1      10.576  14.626  19.179  0.00  0.00    +0.000 F 
ENDBRANCH  24  27
ENDBRANCH   3  21
TORSDOF 6
ENDMDL
MODEL 3
REMARK VINA RESULT:      -7.8      6.493      8.464
REMARK  Name = 
REMARK  6 active torsions:
REMARK  status: ('A' for Active; 'I' for Inactive)
REMARK    1  A    between atoms: N_3  and  C_4
REMARK    2  A    between atoms: C_7  and  C_8
REMARK    3  A    between atoms: N_14  and  C_15
REMARK    4  A    between atoms: C_19  and  C_21
REMARK    5  A    between atoms: C_21  and  C_22
REMARK    6  A    between atoms: C_22  and  C_23
REMARK                            x       y       z     vdW  Elec       q    Type
REMARK                         _______ _______ _______ _____ _____    ______ ____
ROOT
ATOM      1  O   UNL     1       0.924   5.347  20.604  0.00  0.00    +0.000 OA
ATOM      2  C   UNL     1       1.999   5.833  20.268  0.00  0.00    +0.000 C 
ATOM      3  N   UNL     1       2.336   7.156  20.278  0.00  0.00    +0.000 N 
ATOM      4  N   UNL     1       2.940   4.964  19.817  0.00  0.00    +0.000 N 
ATOM      5  H   UNL     1       3.175   7.413  19.783  0.00  0.00    +0.000 HD
ATOM      6  H   UNL     1       2.579   4.019  19.881  0.00  0.00    +0.000 HD
ENDROOT
BRANCH   4   7
ATOM      7  C   UNL     1       4.349   5.142  19.478  0.00  0.00    +0.000 C 
ATOM      8  C   UNL     1       4.523   6.375  18.583  0.00  0.00    +0.000 C 
ATOM      9  C   UNL     1       3.988   6.122  17.178  0.00  0.00    +0.000 C 
ATOM     10  N   UNL     1       4.643   4.949  16.612  0.00  0.00    +0.000 N 
ATOM     11  C   UNL     1       5.413   5.112  15.474  0.00  0.00    +0.000 C 
ATOM     12  O   UNL     1       5.498   6.194  14.890  0.00  0.00    +0.000 OA
ATOM     13  C   UNL     1       4.458   3.710  17.370  0.00  0.00    +0.000 C 
ATOM     14  C   UNL     1       4.931   3.882  18.816  0.00  0.00    +0.000 C 
BRANCH  11  15
ATOM     15  C   UNL     1       6.163   3.905  14.949  0.00  0.00    +0.000 C 
BRANCH  15  16
ATOM     16  C   UNL     1       6.970   4.249  13.697  0.00  0.00    +0.000 C 
BRANCH  16  17
ATOM     17  C   UNL     1       6.369   3.680  12.420  0.00  0.00    +0.000 C 
ATOM     18  F   UNL     1       5.024   3.783  12.378  0.00  0.00    +0.000 F 
ATOM     19  F   UNL     1       6.846   4.363  11.350  0.00  0.00    +0.000 F 
ATOM     20  F   UNL     1       6.706   2.386  12.240  0.00  0.00    +0.000 F 
ENDBRANCH  16  17
ENDBRANCH  15  16
ENDBRANCH  11  15
ENDBRANCH   4   7
BRANCH   3  21
ATOM     21  C   UNL     1       1.492   8.219  20.659  0.00  0.00    +0.000 A 
ATOM     22  C   UNL     1       0.957   9.132  19.746  0.00  0.00    +0.000 A 
ATOM     23  C   UNL     1       0.174  10.203  20.188  0.00  0.00    +0.000 A 
ATOM     24  C   UNL     1      -0.090  10.384  21.549  0.00  0.00    +0.000 A 
ATOM     25  C   UNL     1       0.422   9.448  22.461  0.00  0.00    +0.000 A 
ATOM     26  C   UNL     1       1.195   8.369  22.018  0.00  0.00    +0.000 A 
BRANCH  24  27
ATOM     27  C   UNL     1      -0.903  11.560  22.029  0.00  0.00    +0.000 C 
ATOM     28  F   UNL     1      -1.615  11.305  23.163  0.00  0.00    +0.000 F 
ATOM     29  F   UNL     1      -0.131  12.645  22.312  0.00  0.00    +0.000 F 
ATOM     30  F   UNL     1      -1.812  11.977  21.106  0.00  0.00    +0.000 F 
ENDBRANCH  24  27
ENDBRANCH   3  21
TORSDOF 6
ENDMDL
MODEL 4
REMARK VINA RESULT:      -7.7      6.549      8.453
REMARK  Name = 
REMARK  6 active torsions:
REMARK  status: ('A' for Active; 'I' for Inactive)
REMARK    1  A    between atoms: N_3  and  C_4
REMARK    2  A    between atoms: C_7  and  C_8
REMARK    3  A    between atoms: N_14  and  C_15
REMARK    4  A    between atoms: C_19  and  C_21
REMARK    5  A    between atoms: C_21  and  C_22
REMARK    6  A    between atoms: C_22  and  C_23
REMARK                            x       y       z     vdW  Elec       q    Type
REMARK                         _______ _______ _______ _____ _____    ______ ____
ROOT
ATOM      1  O   UNL     1       0.820   5.358  20.604  0.00  0.00    +0.000 OA
ATOM      2  C   UNL     1       1.926   5.789  20.296  0.00  0.00    +0.000 C 
ATOM      3  N   UNL     1       2.338   7.090  20.345  0.00  0.00    +0.000 N 
ATOM      4  N   UNL     1       2.822   4.879  19.835  0.00  0.00    +0.000 N 
ATOM      5  H   UNL     1       3.198   7.310  19.868  0.00  0.00    +0.000 HD
ATOM      6  H   UNL     1       2.406   3.955  19.869  0.00  0.00    +0.000 HD
ENDROOT
BRANCH   4   7
ATOM      7  C   UNL     1       4.244   4.984  19.520  0.00  0.00    +0.000 C 
ATOM      8  C   UNL     1       4.507   6.247  18.692  0.00  0.00    +0.000 C 
ATOM      9  C   UNL     1       3.976   6.103  17.271  0.00  0.00    +0.000 C 
ATOM     10  N   UNL     1       4.562   4.921  16.650  0.00  0.00    +0.000 N 
ATOM     11  C   UNL     1       5.356   5.093  15.530  0.00  0.00    +0.000 C 
ATOM     12  O   UNL     1       5.517   6.196  15.005  0.00  0.00    +0.000 OA
ATOM     13  C   UNL     1       4.288   3.659  17.339  0.00  0.00    +0.000 C 
ATOM     14  C   UNL     1       4.752   3.725  18.797  0.00  0.00    +0.000 C 
BRANCH  11  15
ATOM     15  C   UNL     1       6.034   3.870  14.950  0.00  0.00    +0.000 C 
BRANCH  15  16
ATOM     16  C   UNL     1       6.933   4.236  13.768  0.00  0.00    +0.000 C 
BRANCH  16  17
ATOM     17  C   UNL     1       6.426   3.696  12.438  0.00  0.00    +0.000 C 
ATOM     18  F   UNL     1       6.715   2.391  12.254  0.00  0.00    +0.000 F 
ATOM     19  F   UNL     1       5.075   3.807  12.388  0.00  0.00    +0.000 F 
ATOM     20  F   UNL     1       6.915   4.395  11.393  0.00  0.00    +0.000 F 
ENDBRANCH  16  17
ENDBRANCH  15  16
ENDBRANCH  11  15
ENDBRANCH   4   7
BRANCH   3  21
ATOM     21  C   UNL     1       1.551   8.190  20.743  0.00  0.00    +0.000 A 
ATOM     22  C   UNL     1       1.192   8.427  22.073  0.00  0.00    +0.000 A 
ATOM     23  C   UNL     1       0.359   9.501  22.403  0.00  0.00    +0.000 A 
ATOM     24  C   UNL     1      -0.131  10.359  21.413  0.00  0.00    +0.000 A 
ATOM     25  C   UNL     1       0.257  10.136  20.082  0.00  0.00    +0.000 A 
ATOM     26  C   UNL     1       1.100   9.069  19.754  0.00  0.00    +0.000 A 
BRANCH  24  27
ATOM     27  C   UNL     1      -1.060  11.494  21.764  0.00  0.00    +0.000 C 
ATOM     28  F   UNL     1      -1.847  11.240  22.847  0.00  0.00    +0.000 F 
ATOM     29  F   UNL     1      -0.389  12.643  22.055  0.00  0.00    +0.000 F 
ATOM     30  F   UNL     1      -1.911  11.804  20.749  0.00  0.00    +0.000 F 
ENDBRANCH  24  27
ENDBRANCH   3  21
TORSDOF 6
ENDMDL
MODEL 5
REMARK VINA RESULT:      -7.7      6.510      8.395
REMARK  Name = 
REMARK  6 active torsions:
REMARK  status: ('A' for Active; 'I' for Inactive)
REMARK    1  A    between atoms: N_3  and  C_4
REMARK    2  A    between atoms: C_7  and  C_8
REMARK    3  A    between atoms: N_14  and  C_15
REMARK    4  A    between atoms: C_19  and  C_21
REMARK    5  A    between atoms: C_21  and  C_22
REMARK    6  A    between atoms: C_22  and  C_23
REMARK                            x       y       z     vdW  Elec       q    Type
REMARK                         _______ _______ _______ _____ _____    ______ ____
ROOT
ATOM      1  O   UNL     1       0.979   5.225  20.574  0.00  0.00    +0.000 OA
ATOM      2  C   UNL     1       2.072   5.638  20.202  0.00  0.00    +0.000 C 
ATOM      3  N   UNL     1       2.459   6.944  20.098  0.00  0.00    +0.000 N 
ATOM      4  N   UNL     1       2.979   4.699  19.830  0.00  0.00    +0.000 N 
ATOM      5  H   UNL     1       3.308   7.124  19.585  0.00  0.00    +0.000 HD
ATOM      6  H   UNL     1       2.583   3.777  19.974  0.00  0.00    +0.000 HD
ENDROOT
BRANCH   4   7
ATOM      7  C   UNL     1       4.394   4.793  19.482  0.00  0.00    +0.000 C 
ATOM      8  C   UNL     1       4.653   6.073  18.678  0.00  0.00    +0.000 C 
ATOM      9  C   UNL     1       4.085   5.970  17.268  0.00  0.00    +0.000 C 
ATOM     10  N   UNL     1       4.640   4.796  16.604  0.00  0.00    +0.000 N 
ATOM     11  C   UNL     1       5.407   4.985  15.468  0.00  0.00    +0.000 C 
ATOM     12  O   UNL     1       5.570   6.099  14.966  0.00  0.00    +0.000 OA
ATOM     13  C   UNL     1       4.366   3.521  17.270  0.00  0.00    +0.000 C 
ATOM     14  C   UNL     1       4.868   3.546  18.716  0.00  0.00    +0.000 C 
BRANCH  11  15
ATOM     15  C   UNL     1       6.055   3.768  14.842  0.00  0.00    +0.000 C 
BRANCH  15  16
ATOM     16  C   UNL     1       6.953   4.154  13.667  0.00  0.00    +0.000 C 
BRANCH  16  17
ATOM     17  C   UNL     1       6.419   3.684  12.322  0.00  0.00    +0.000 C 
ATOM     18  F   UNL     1       5.076   3.781  12.224  0.00  0.00    +0.000 F 
ATOM     19  F   UNL     1       6.937   4.454  11.333  0.00  0.00    +0.000 F 
ATOM     20  F   UNL     1       6.778   2.411  12.056  0.00  0.00    +0.000 F 
ENDBRANCH  16  17
ENDBRANCH  15  16
ENDBRANCH  11  15
ENDBRANCH   4   7
BRANCH   3  21
ATOM     21  C   UNL     1       1.657   8.067  20.384  0.00  0.00    +0.000 A 
ATOM     22  C   UNL     1       1.082   8.293  21.637  0.00  0.00    +0.000 A 
ATOM     23  C   UNL     1       0.245   9.393  21.847  0.00  0.00    +0.000 A 
ATOM     24  C   UNL     1      -0.034  10.290  20.811  0.00  0.00    +0.000 A 
ATOM     25  C   UNL     1       0.570  10.078  19.561  0.00  0.00    +0.000 A 
ATOM     26  C   UNL     1       1.417   8.984  19.355  0.00  0.00    +0.000 A 
BRANCH  24  27
ATOM     27  C   UNL     1      -0.966  11.455  21.027  0.00  0.00    +0.000 C 
ATOM     28  F   UNL     1      -1.949  11.549  20.088  0.00  0.00    +0.000 F 
ATOM     29  F   UNL     1      -1.605  11.394  22.228  0.00  0.00    +0.000 F 
ATOM     30  F   UNL     1      -0.318  12.652  21.008  0.00  0.00    +0.000 F 
ENDBRANCH  24  27
ENDBRANCH   3  21
TORSDOF 6
ENDMDL
MODEL 6
REMARK VINA RESULT:      -7.7      6.506      8.417
REMARK  Name = 
REMARK  6 active torsions:
REMARK  status: ('A' for Active; 'I' for Inactive)
REMARK    1  A    between atoms: N_3  and  C_4
REMARK    2  A    between atoms: C_7  and  C_8
REMARK    3  A    between atoms: N_14  and  C_15
REMARK    4  A    between atoms: C_19  and  C_21
REMARK    5  A    between atoms: C_21  and  C_22
REMARK    6  A    between atoms: C_22  and  C_23
REMARK                            x       y       z     vdW  Elec       q    Type
REMARK                         _______ _______ _______ _____ _____    ______ ____
ROOT
ATOM      1  O   UNL     1       0.849   5.396  20.626  0.00  0.00    +0.000 OA
ATOM      2  C   UNL     1       1.935   5.873  20.312  0.00  0.00    +0.000 C 
ATOM      3  N   UNL     1       2.291   7.190  20.351  0.00  0.00    +0.000 N 
ATOM      4  N   UNL     1       2.868   4.999  19.853  0.00  0.00    +0.000 N 
ATOM      5  H   UNL     1       3.140   7.444  19.871  0.00  0.00    +0.000 HD
ATOM      6  H   UNL     1       2.492   4.058  19.894  0.00  0.00    +0.000 HD
ENDROOT
BRANCH   4   7
ATOM      7  C   UNL     1       4.283   5.162  19.533  0.00  0.00    +0.000 C 
ATOM      8  C   UNL     1       4.481   6.390  18.637  0.00  0.00    +0.000 C 
ATOM      9  C   UNL     1       3.963   6.139  17.226  0.00  0.00    +0.000 C 
ATOM     10  N   UNL     1       4.613   4.958  16.671  0.00  0.00    +0.000 N 
ATOM     11  C   UNL     1       5.400   5.111  15.543  0.00  0.00    +0.000 C 
ATOM     12  O   UNL     1       5.503   6.190  14.958  0.00  0.00    +0.000 OA
ATOM     13  C   UNL     1       4.405   3.723  17.429  0.00  0.00    +0.000 C 
ATOM     14  C   UNL     1       4.861   3.895  18.881  0.00  0.00    +0.000 C 
BRANCH  11  15
ATOM     15  C   UNL     1       6.145   3.895  15.032  0.00  0.00    +0.000 C 
BRANCH  15  16
ATOM     16  C   UNL     1       6.933   4.216  13.761  0.00  0.00    +0.000 C 
BRANCH  16  17
ATOM     17  C   UNL     1       6.288   3.664  12.498  0.00  0.00    +0.000 C 
ATOM     18  F   UNL     1       6.477   2.336  12.346  0.00  0.00    +0.000 F 
ATOM     19  F   UNL     1       4.947   3.863  12.549  0.00  0.00    +0.000 F 
ATOM     20  F   UNL     1       6.735   4.290  11.391  0.00  0.00    +0.000 F 
ENDBRANCH  16  17
ENDBRANCH  15  16
ENDBRANCH  11  15
ENDBRANCH   4   7
BRANCH   3  21
ATOM     21  C   UNL     1       1.460   8.258  20.745  0.00  0.00    +0.000 A 
ATOM     22  C   UNL     1       0.870   9.140  19.835  0.00  0.00    +0.000 A 
ATOM     23  C   UNL     1       0.103  10.218  20.286  0.00  0.00    +0.000 A 
ATOM     24  C   UNL     1      -0.092  10.437  21.654  0.00  0.00    +0.000 A 
ATOM     25  C   UNL     1       0.474   9.532  22.564  0.00  0.00    +0.000 A 
ATOM     26  C   UNL     1       1.232   8.446  22.112  0.00  0.00    +0.000 A 
BRANCH  24  27
ATOM     27  C   UNL     1      -0.889  11.621  22.141  0.00  0.00    +0.000 C 
ATOM     28  F   UNL     1      -0.158  12.766  22.243  0.00  0.00    +0.000 F 
ATOM     29  F   UNL     1      -1.933  11.919  21.319  0.00  0.00    +0.000 F 
ATOM     30  F   UNL     1      -1.429  11.414  23.373  0.00  0.00    +0.000 F 
ENDBRANCH  24  27
ENDBRANCH   3  21
TORSDOF 6
ENDMDL
MODEL 7
REMARK VINA RESULT:      -7.7      6.467      8.505
REMARK  Name = 
REMARK  6 active torsions:
REMARK  status: ('A' for Active; 'I' for Inactive)
REMARK    1  A    between atoms: N_3  and  C_4
REMARK    2  A    between atoms: C_7  and  C_8
REMARK    3  A    between atoms: N_14  and  C_15
REMARK    4  A    between atoms: C_19  and  C_21
REMARK    5  A    between atoms: C_21  and  C_22
REMARK    6  A    between atoms: C_22  and  C_23
REMARK                            x       y       z     vdW  Elec       q    Type
REMARK                         _______ _______ _______ _____ _____    ______ ____
ROOT
ATOM      1  O   UNL     1       1.038   5.350  20.546  0.00  0.00    +0.000 OA
ATOM      2  C   UNL     1       2.092   5.889  20.223  0.00  0.00    +0.000 C 
ATOM      3  N   UNL     1       2.372   7.225  20.263  0.00  0.00    +0.000 N 
ATOM      4  N   UNL     1       3.069   5.071  19.754  0.00  0.00    +0.000 N 
ATOM      5  H   UNL     1       3.200   7.527  19.775  0.00  0.00    +0.000 HD
ATOM      6  H   UNL     1       2.748   4.110  19.795  0.00  0.00    +0.000 HD
ENDROOT
BRANCH   4   7
ATOM      7  C   UNL     1       4.469   5.315  19.420  0.00  0.00    +0.000 C 
ATOM      8  C   UNL     1       4.588   6.561  18.535  0.00  0.00    +0.000 C 
ATOM      9  C   UNL     1       4.070   6.296  17.127  0.00  0.00    +0.000 C 
ATOM     10  N   UNL     1       4.778   5.158  16.553  0.00  0.00    +0.000 N 
ATOM     11  C   UNL     1       5.543   5.365  15.418  0.00  0.00    +0.000 C 
ATOM     12  O   UNL     1       5.580   6.455  14.844  0.00  0.00    +0.000 OA
ATOM     13  C   UNL     1       4.648   3.906  17.300  0.00  0.00    +0.000 C 
ATOM     14  C   UNL     1       5.109   4.089  18.749  0.00  0.00    +0.000 C 
BRANCH  11  15
ATOM     15  C   UNL     1       6.348   4.198  14.887  0.00  0.00    +0.000 C 
BRANCH  15  16
ATOM     16  C   UNL     1       5.602   3.465  13.772  0.00  0.00    +0.000 C 
BRANCH  16  17
ATOM     17  C   UNL     1       6.244   3.639  12.403  0.00  0.00    +0.000 C 
ATOM     18  F   UNL     1       7.154   4.636  12.370  0.00  0.00    +0.000 F 
ATOM     19  F   UNL     1       6.900   2.502  12.062  0.00  0.00    +0.000 F 
ATOM     20  F   UNL     1       5.325   3.865  11.442  0.00  0.00    +0.000 F 
ENDBRANCH  16  17
ENDBRANCH  15  16
ENDBRANCH  11  15
ENDBRANCH   4   7
BRANCH   3  21
ATOM     21  C   UNL     1       1.485   8.242  20.668  0.00  0.00    +0.000 A 
ATOM     22  C   UNL     1       0.944   9.178  19.781  0.00  0.00    +0.000 A 
ATOM     23  C   UNL     1       0.116  10.203  20.248  0.00  0.00    +0.000 A 
ATOM     24  C   UNL     1      -0.190  10.313  21.608  0.00  0.00    +0.000 A 
ATOM     25  C   UNL     1       0.329   9.354  22.492  0.00  0.00    +0.000 A 
ATOM     26  C   UNL     1       1.148   8.321  22.023  0.00  0.00    +0.000 A 
BRANCH  24  27
ATOM     27  C   UNL     1      -1.053  11.441  22.117  0.00  0.00    +0.000 C 
ATOM     28  F   UNL     1      -1.949  11.900  21.199  0.00  0.00    +0.000 F 
ATOM     29  F   UNL     1      -1.789  11.082  23.205  0.00  0.00    +0.000 F 
ATOM     30  F   UNL     1      -0.323  12.524  22.499  0.00  0.00    +0.000 F 
ENDBRANCH  24  27
ENDBRANCH   3  21
TORSDOF 6
ENDMDL
MODEL 8
REMARK VINA RESULT:      -7.6      0.747      1.034
REMARK  Name = 
REMARK  6 active torsions:
REMARK  status: ('A' for Active; 'I' for Inactive)
REMARK    1  A    between atoms: N_3  and  C_4
REMARK    2  A    between atoms: C_7  and  C_8
REMARK    3  A    between atoms: N_14  and  C_15
REMARK    4  A    between atoms: C_19  and  C_21
REMARK    5  A    between atoms: C_21  and  C_22
REMARK    6  A    between atoms: C_22  and  C_23
REMARK                            x       y       z     vdW  Elec       q    Type
REMARK                         _______ _______ _______ _____ _____    ______ ____
ROOT
ATOM      1  O   UNL     1       7.101   9.342  17.058  0.00  0.00    +0.000 OA
ATOM      2  C   UNL     1       7.638   8.436  17.687  0.00  0.00    +0.000 C 
ATOM      3  N   UNL     1       8.592   8.568  18.655  0.00  0.00    +0.000 N 
ATOM      4  N   UNL     1       7.262   7.172  17.366  0.00  0.00    +0.000 N 
ATOM      5  H   UNL     1       9.078   7.729  18.928  0.00  0.00    +0.000 HD
ATOM      6  H   UNL     1       6.538   7.209  16.657  0.00  0.00    +0.000 HD
ENDROOT
BRANCH   4   7
ATOM      7  C   UNL     1       7.560   5.880  17.978  0.00  0.00    +0.000 C 
ATOM      8  C   UNL     1       7.170   4.744  17.025  0.00  0.00    +0.000 C 
ATOM      9  C   UNL     1       5.657   4.596  16.924  0.00  0.00    +0.000 C 
ATOM     10  N   UNL     1       5.097   4.397  18.255  0.00  0.00    +0.000 N 
ATOM     11  C   UNL     1       4.438   3.209  18.520  0.00  0.00    +0.000 C 
ATOM     12  O   UNL     1       4.249   2.358  17.649  0.00  0.00    +0.000 OA
ATOM     13  C   UNL     1       5.359   5.479  19.206  0.00  0.00    +0.000 C 
ATOM     14  C   UNL     1       6.863   5.731  19.341  0.00  0.00    +0.000 C 
BRANCH  11  15
ATOM     15  C   UNL     1       3.944   2.975  19.932  0.00  0.00    +0.000 C 
BRANCH  15  16
ATOM     16  C   UNL     1       2.653   3.747  20.208  0.00  0.00    +0.000 C 
BRANCH  16  17
ATOM     17  C   UNL     1       1.422   3.098  19.593  0.00  0.00    +0.000 C 
ATOM     18  F   UNL     1       1.184   3.509  18.329  0.00  0.00    +0.000 F 
ATOM     19  F   UNL     1       1.596   1.754  19.538  0.00  0.00    +0.000 F 
ATOM     20  F   UNL     1       0.315   3.320  20.331  0.00  0.00    +0.000 F 
ENDBRANCH  16  17
ENDBRANCH  15  16
ENDBRANCH  11  15
ENDBRANCH   4   7
BRANCH   3  21
ATOM     21  C   UNL     1       9.154   9.782  19.098  0.00  0.00    +0.000 A 
ATOM     22  C   UNL     1       9.058  10.229  20.419  0.00  0.00    +0.000 A 
ATOM     23  C   UNL     1       9.582  11.471  20.790  0.00  0.00    +0.000 A 
ATOM     24  C   UNL     1      10.214  12.291  19.850  0.00  0.00    +0.000 A 
ATOM     25  C   UNL     1      10.338  11.827  18.531  0.00  0.00    +0.000 A 
ATOM     26  C   UNL     1       9.823  10.579  18.163  0.00  0.00    +0.000 A 
BRANCH  24  27
ATOM     27  C   UNL     1      10.747  13.647  20.241  0.00  0.00    +0.000 C 
ATOM     28  F   UNL     1      12.074  13.808  19.978  0.00  0.00    +0.000 F 
ATOM     29  F   UNL     1      10.114  14.662  19.591  0.00  0.00    +0.000 F 
ATOM     30  F   UNL     1      10.598  13.902  21.570  0.00  0.00    +0.000 F 
ENDBRANCH  24  27
ENDBRANCH   3  21
TORSDOF 6
ENDMDL
MODEL 9
REMARK VINA RESULT:      -7.3      7.648     10.097
REMARK  Name = 
REMARK  6 active torsions:
REMARK  status: ('A' for Active; 'I' for Inactive)
REMARK    1  A    between atoms: N_3  and  C_4
REMARK    2  A    between atoms: C_7  and  C_8
REMARK    3  A    between atoms: N_14  and  C_15
REMARK    4  A    between atoms: C_19  and  C_21
REMARK    5  A    between atoms: C_21  and  C_22
REMARK    6  A    between atoms: C_22  and  C_23
REMARK                            x       y       z     vdW  Elec       q    Type
REMARK                         _______ _______ _______ _____ _____    ______ ____
ROOT
ATOM      1  O   UNL     1       2.528  10.316  17.522  0.00  0.00    +0.000 OA
ATOM      2  C   UNL     1       1.593   9.912  18.206  0.00  0.00    +0.000 C 
ATOM      3  N   UNL     1       1.479   8.682  18.788  0.00  0.00    +0.000 N 
ATOM      4  N   UNL     1       0.556  10.772  18.378  0.00  0.00    +0.000 N 
ATOM      5  H   UNL     1       0.569   8.433  19.141  0.00  0.00    +0.000 HD
ATOM      6  H   UNL     1       0.772  11.650  17.920  0.00  0.00    +0.000 HD
ENDROOT
BRANCH   4   7
ATOM      7  C   UNL     1      -0.632  10.709  19.224  0.00  0.00    +0.000 C 
ATOM      8  C   UNL     1      -1.598  11.842  18.858  0.00  0.00    +0.000 C 
ATOM      9  C   UNL     1      -1.070  13.195  19.321  0.00  0.00    +0.000 C 
ATOM     10  N   UNL     1      -0.809  13.152  20.754  0.00  0.00    +0.000 N 
ATOM     11  C   UNL     1      -1.529  13.999  21.578  0.00  0.00    +0.000 C 
ATOM     12  O   UNL     1      -2.320  14.831  21.131  0.00  0.00    +0.000 OA
ATOM     13  C   UNL     1       0.166  12.145  21.177  0.00  0.00    +0.000 C 
ATOM     14  C   UNL     1      -0.262  10.749  20.716  0.00  0.00    +0.000 C 
BRANCH  11  15
ATOM     15  C   UNL     1      -1.317  13.879  23.073  0.00  0.00    +0.000 C 
BRANCH  15  16
ATOM     16  C   UNL     1      -2.640  13.668  23.811  0.00  0.00    +0.000 C 
BRANCH  16  17
ATOM     17  C   UNL     1      -3.238  12.287  23.589  0.00  0.00    +0.000 C 
ATOM     18  F   UNL     1      -2.305  11.315  23.505  0.00  0.00    +0.000 F 
ATOM     19  F   UNL     1      -4.041  11.967  24.633  0.00  0.00    +0.000 F 
ATOM     20  F   UNL     1      -4.003  12.244  22.479  0.00  0.00    +0.000 F 
ENDBRANCH  16  17
ENDBRANCH  15  16
ENDBRANCH  11  15
ENDBRANCH   4   7
BRANCH   3  21
ATOM     21  C   UNL     1       2.414   7.633  18.690  0.00  0.00    +0.000 A 
ATOM     22  C   UNL     1       3.310   7.508  17.624  0.00  0.00    +0.000 A 
ATOM     23  C   UNL     1       4.175   6.413  17.548  0.00  0.00    +0.000 A 
ATOM     24  C   UNL     1       4.166   5.422  18.534  0.00  0.00    +0.000 A 
ATOM     25  C   UNL     1       3.288   5.566  19.620  0.00  0.00    +0.000 A 
ATOM     26  C   UNL     1       2.430   6.668  19.702  0.00  0.00    +0.000 A 
BRANCH  24  27
ATOM     27  C   UNL     1       5.074   4.221  18.433  0.00  0.00    +0.000 C 
ATOM     28  F   UNL     1       5.001   3.583  17.232  0.00  0.00    +0.000 F 
ATOM     29  F   UNL     1       6.385   4.546  18.602  0.00  0.00    +0.000 F 
ATOM     30  F   UNL     1       4.796   3.278  19.374  0.00  0.00    +0.000 F 
ENDBRANCH  24  27
ENDBRANCH   3  21
TORSDOF 6
ENDMDL
