MODEL 1
REMARK VINA RESULT:      -8.9      0.000      0.000
REMARK  Name = 
REMARK  11 active torsions:
REMARK  status: ('A' for Active; 'I' for Inactive)
REMARK    1  A    between atoms: C_2  and  CA_3
REMARK    2  A    between atoms: CA_3  and  CB_4
REMARK    3  A    between atoms: CA_3  and  N_11
REMARK    4  A    between atoms: CB_4  and  CG_5
REMARK    5  A    between atoms: C_12  and  CA_14
REMARK    6  A    between atoms: CA_14  and  CB_15
REMARK    7  A    between atoms: CA_14  and  N_22
REMARK    8  A    between atoms: CB_15  and  CG_16
REMARK    9  A    between atoms: C_23  and  O_25
REMARK   10  A    between atoms: O_25  and  C_26
REMARK   11  A    between atoms: C_26  and  C_27
REMARK                            x       y       z     vdW  Elec       q    Type
REMARK                         _______ _______ _______ _____ _____    ______ ____
ROOT
ATOM      1  CA  PHE A   1       6.731   5.053  16.835  0.00  0.00    +0.000 C 
ENDROOT
BRANCH   1   3
ATOM      2  N   PHE A   1       4.406   4.912  17.678  0.00  0.00    +0.000 N 
ATOM      3  C   PHE A   1       5.744   4.725  17.969  0.00  0.00    +0.000 C 
ATOM      4  O   PHE A   1       6.116   4.235  19.036  0.00  0.00    +0.000 OA
ATOM      5  H   PHE A   1       4.131   5.352  16.799  0.00  0.00    +0.000 HD
BRANCH   2   6
ATOM      6  CA  PHE A   1       3.343   4.593  18.629  0.00  0.00    +0.000 C 
BRANCH   6   8
ATOM      7  O   PHE A   1       3.229   2.161  18.598  0.00  0.00    +0.000 OA
ATOM      8  C   PHE A   1       3.526   3.190  19.200  0.00  0.00    +0.000 C 
ENDBRANCH   6   8
BRANCH   6   9
ATOM      9  CB  PHE A   1       3.187   5.626  19.756  0.00  0.00    +0.000 C 
BRANCH   9  10
ATOM     10  CG  PHE A   1       2.395   6.878  19.501  0.00  0.00    +0.000 A 
ATOM     11  CD1 PHE A   1       1.708   7.487  20.559  0.00  0.00    +0.000 A 
ATOM     12  CE1 PHE A   1       1.159   8.758  20.384  0.00  0.00    +0.000 A 
ATOM     13  CZ  PHE A   1       1.256   9.408  19.138  0.00  0.00    +0.000 A 
ATOM     14  CE2 PHE A   1       1.850   8.745  18.046  0.00  0.00    +0.000 A 
ATOM     15  CD2 PHE A   1       2.427   7.489  18.233  0.00  0.00    +0.000 A 
ENDBRANCH   9  10
ENDBRANCH   6   9
ENDBRANCH   2   6
ENDBRANCH   1   3
BRANCH   1  16
ATOM     16  N   PHE A   1       7.679   6.087  17.269  0.00  0.00    +0.000 N 
ATOM     17  C   UNK A   0       7.288   7.376  17.487  0.00  0.00    +0.000 C 
ATOM     18  O   UNK A   0       6.166   7.787  17.231  0.00  0.00    +0.000 OA
ATOM     19  H   PHE A   1       8.635   5.840  17.486  0.00  0.00    +0.000 HD
BRANCH  17  20
ATOM     20  O   UNK A   0       8.317   8.142  17.960  0.00  0.00    +0.000 OA
BRANCH  20  21
ATOM     21  C   UNK A   0       8.129   9.598  17.924  0.00  0.00    +0.000 C 
BRANCH  21  22
ATOM     22  C   UNK A   0       9.277  10.386  18.612  0.00  0.00    +0.000 A 
ATOM     23  C   UNK A   0      10.136  10.994  17.865  0.00  0.00    +0.000 A 
ATOM     24  C   UNK A   0      11.089  11.864  18.359  0.00  0.00    +0.000 A 
ATOM     25  C   UNK A   0      11.402  11.886  19.669  0.00  0.00    +0.000 A 
ATOM     26  C   UNK A   0      10.418  11.413  20.520  0.00  0.00    +0.000 A 
ATOM     27  C   UNK A   0       9.304  10.731  19.985  0.00  0.00    +0.000 A 
ENDBRANCH  21  22
ENDBRANCH  20  21
ENDBRANCH  17  20
ENDBRANCH   1  16
BRANCH   1  28
ATOM     28  CB  PHE A   1       5.930   5.517  15.594  0.00  0.00    +0.000 C 
BRANCH  28  29
ATOM     29  CG  PHE A   1       6.367   4.843  14.312  0.00  0.00    +0.000 A 
ATOM     30  CD1 PHE A   1       7.486   5.300  13.606  0.00  0.00    +0.000 A 
ATOM     31  CE1 PHE A   1       7.774   4.798  12.336  0.00  0.00    +0.000 A 
ATOM     32  CZ  PHE A   1       6.981   3.794  11.783  0.00  0.00    +0.000 A 
ATOM     33  CE2 PHE A   1       5.932   3.254  12.524  0.00  0.00    +0.000 A 
ATOM     34  CD2 PHE A   1       5.624   3.777  13.782  0.00  0.00    +0.000 A 
ENDBRANCH  28  29
ENDBRANCH   1  28
TORSDOF 11
ENDMDL
MODEL 2
REMARK VINA RESULT:      -8.8      3.600      7.193
REMARK  Name = 
REMARK  11 active torsions:
REMARK  status: ('A' for Active; 'I' for Inactive)
REMARK    1  A    between atoms: C_2  and  CA_3
REMARK    2  A    between atoms: CA_3  and  CB_4
REMARK    3  A    between atoms: CA_3  and  N_11
REMARK    4  A    between atoms: CB_4  and  CG_5
REMARK    5  A    between atoms: C_12  and  CA_14
REMARK    6  A    between atoms: CA_14  and  CB_15
REMARK    7  A    between atoms: CA_14  and  N_22
REMARK    8  A    between atoms: CB_15  and  CG_16
REMARK    9  A    between atoms: C_23  and  O_25
REMARK   10  A    between atoms: O_25  and  C_26
REMARK   11  A    between atoms: C_26  and  C_27
REMARK                            x       y       z     vdW  Elec       q    Type
REMARK                         _______ _______ _______ _____ _____    ______ ____
ROOT
ATOM      1  CA  PHE A   1       3.060   6.815  18.341  0.00  0.00    +0.000 C 
ENDROOT
BRANCH   1   3
ATOM      2  N   PHE A   1       1.483   8.288  19.557  0.00  0.00    +0.000 N 
ATOM      3  C   PHE A   1       2.237   8.112  18.412  0.00  0.00    +0.000 C 
ATOM      4  O   PHE A   1       2.320   8.985  17.546  0.00  0.00    +0.000 OA
ATOM      5  H   PHE A   1       1.407   7.534  20.239  0.00  0.00    +0.000 HD
BRANCH   2   6
ATOM      6  CA  PHE A   1       0.691   9.493  19.798  0.00  0.00    +0.000 C 
BRANCH   6   8
ATOM      7  O   PHE A   1       0.765  10.838  21.826  0.00  0.00    +0.000 OA
ATOM      8  C   PHE A   1       1.353  10.377  20.851  0.00  0.00    +0.000 C 
ENDBRANCH   6   8
BRANCH   6   9
ATOM      9  CB  PHE A   1       0.380  10.297  18.526  0.00  0.00    +0.000 C 
BRANCH   9  10
ATOM     10  CG  PHE A   1      -1.052  10.583  18.170  0.00  0.00    +0.000 A 
ATOM     11  CD1 PHE A   1      -1.699   9.786  17.216  0.00  0.00    +0.000 A 
ATOM     12  CE1 PHE A   1      -3.078   9.900  17.042  0.00  0.00    +0.000 A 
ATOM     13  CZ  PHE A   1      -3.813  10.840  17.792  0.00  0.00    +0.000 A 
ATOM     14  CE2 PHE A   1      -3.143  11.714  18.670  0.00  0.00    +0.000 A 
ATOM     15  CD2 PHE A   1      -1.768  11.576  18.864  0.00  0.00    +0.000 A 
ENDBRANCH   9  10
ENDBRANCH   6   9
ENDBRANCH   2   6
ENDBRANCH   1   3
BRANCH   1  16
ATOM     16  N   PHE A   1       4.061   6.905  17.270  0.00  0.00    +0.000 N 
ATOM     17  C   UNK A   0       5.319   6.400  17.416  0.00  0.00    +0.000 C 
ATOM     18  O   UNK A   0       5.740   5.946  18.470  0.00  0.00    +0.000 OA
ATOM     19  H   PHE A   1       3.805   7.284  16.368  0.00  0.00    +0.000 HD
BRANCH  17  20
ATOM     20  O   UNK A   0       6.050   6.525  16.267  0.00  0.00    +0.000 OA
BRANCH  20  21
ATOM     21  C   UNK A   0       7.015   5.457  15.975  0.00  0.00    +0.000 C 
BRANCH  21  22
ATOM     22  C   UNK A   0       6.782   4.773  14.600  0.00  0.00    +0.000 A 
ATOM     23  C   UNK A   0       5.683   4.123  14.417  0.00  0.00    +0.000 A 
ATOM     24  C   UNK A   0       5.291   3.627  13.189  0.00  0.00    +0.000 A 
ATOM     25  C   UNK A   0       6.168   3.499  12.175  0.00  0.00    +0.000 A 
ATOM     26  C   UNK A   0       7.276   4.327  12.243  0.00  0.00    +0.000 A 
ATOM     27  C   UNK A   0       7.542   5.037  13.434  0.00  0.00    +0.000 A 
ENDBRANCH  21  22
ENDBRANCH  20  21
ENDBRANCH  17  20
ENDBRANCH   1  16
BRANCH   1  28
ATOM     28  CB  PHE A   1       2.098   5.625  18.106  0.00  0.00    +0.000 C 
BRANCH  28  29
ATOM     29  CG  PHE A   1       2.219   4.539  19.153  0.00  0.00    +0.000 A 
ATOM     30  CD1 PHE A   1       1.292   4.442  20.198  0.00  0.00    +0.000 A 
ATOM     31  CE1 PHE A   1       1.512   3.562  21.258  0.00  0.00    +0.000 A 
ATOM     32  CZ  PHE A   1       2.628   2.728  21.257  0.00  0.00    +0.000 A 
ATOM     33  CE2 PHE A   1       3.497   2.738  20.168  0.00  0.00    +0.000 A 
ATOM     34  CD2 PHE A   1       3.296   3.640  19.122  0.00  0.00    +0.000 A 
ENDBRANCH  28  29
ENDBRANCH   1  28
TORSDOF 11
ENDMDL
MODEL 3
REMARK VINA RESULT:      -8.7      3.169      7.864
REMARK  Name = 
REMARK  11 active torsions:
REMARK  status: ('A' for Active; 'I' for Inactive)
REMARK    1  A    between atoms: C_2  and  CA_3
REMARK    2  A    between atoms: CA_3  and  CB_4
REMARK    3  A    between atoms: CA_3  and  N_11
REMARK    4  A    between atoms: CB_4  and  CG_5
REMARK    5  A    between atoms: C_12  and  CA_14
REMARK    6  A    between atoms: CA_14  and  CB_15
REMARK    7  A    between atoms: CA_14  and  N_22
REMARK    8  A    between atoms: CB_15  and  CG_16
REMARK    9  A    between atoms: C_23  and  O_25
REMARK   10  A    between atoms: O_25  and  C_26
REMARK   11  A    between atoms: C_26  and  C_27
REMARK                            x       y       z     vdW  Elec       q    Type
REMARK                         _______ _______ _______ _____ _____    ______ ____
ROOT
ATOM      1  CA  PHE A   1       2.957   6.086  17.804  0.00  0.00    +0.000 C 
ENDROOT
BRANCH   1   3
ATOM      2  N   PHE A   1       5.378   5.709  18.174  0.00  0.00    +0.000 N 
ATOM      3  C   PHE A   1       4.417   6.265  17.351  0.00  0.00    +0.000 C 
ATOM      4  O   PHE A   1       4.706   6.787  16.273  0.00  0.00    +0.000 OA
ATOM      5  H   PHE A   1       5.112   5.315  19.076  0.00  0.00    +0.000 HD
BRANCH   2   6
ATOM      6  CA  PHE A   1       6.803   5.747  17.854  0.00  0.00    +0.000 C 
BRANCH   6   8
ATOM      7  O   PHE A   1       7.515   5.383  20.154  0.00  0.00    +0.000 OA
ATOM      8  C   PHE A   1       7.636   6.011  19.104  0.00  0.00    +0.000 C 
ENDBRANCH   6   8
BRANCH   6   9
ATOM      9  CB  PHE A   1       7.307   4.496  17.115  0.00  0.00    +0.000 C 
BRANCH   9  10
ATOM     10  CG  PHE A   1       7.006   4.336  15.652  0.00  0.00    +0.000 A 
ATOM     11  CD1 PHE A   1       5.892   3.586  15.254  0.00  0.00    +0.000 A 
ATOM     12  CE1 PHE A   1       5.480   3.616  13.921  0.00  0.00    +0.000 A 
ATOM     13  CZ  PHE A   1       6.204   4.362  12.971  0.00  0.00    +0.000 A 
ATOM     14  CE2 PHE A   1       7.387   5.024  13.353  0.00  0.00    +0.000 A 
ATOM     15  CD2 PHE A   1       7.778   5.019  14.693  0.00  0.00    +0.000 A 
ENDBRANCH   9  10
ENDBRANCH   6   9
ENDBRANCH   2   6
ENDBRANCH   1   3
BRANCH   1  16
ATOM     16  N   PHE A   1       2.770   6.642  19.150  0.00  0.00    +0.000 N 
ATOM     17  C   UNK A   0       2.126   7.827  19.355  0.00  0.00    +0.000 C 
ATOM     18  O   UNK A   0       1.765   8.559  18.445  0.00  0.00    +0.000 OA
ATOM     19  H   PHE A   1       3.057   6.113  19.962  0.00  0.00    +0.000 HD
BRANCH  17  20
ATOM     20  O   UNK A   0       1.999   8.109  20.687  0.00  0.00    +0.000 OA
BRANCH  20  21
ATOM     21  C   UNK A   0       0.647   8.029  21.255  0.00  0.00    +0.000 C 
BRANCH  21  22
ATOM     22  C   UNK A   0       0.054   9.413  21.636  0.00  0.00    +0.000 A 
ATOM     23  C   UNK A   0      -0.682   9.495  22.692  0.00  0.00    +0.000 A 
ATOM     24  C   UNK A   0      -1.115  10.694  23.223  0.00  0.00    +0.000 A 
ATOM     25  C   UNK A   0      -1.080  11.831  22.503  0.00  0.00    +0.000 A 
ATOM     26  C   UNK A   0      -0.157  11.847  21.470  0.00  0.00    +0.000 A 
ATOM     27  C   UNK A   0       0.479  10.647  21.086  0.00  0.00    +0.000 A 
ENDBRANCH  21  22
ENDBRANCH  20  21
ENDBRANCH  17  20
ENDBRANCH   1  16
BRANCH   1  28
ATOM     28  CB  PHE A   1       2.607   4.578  17.771  0.00  0.00    +0.000 C 
BRANCH  28  29
ATOM     29  CG  PHE A   1       2.408   3.978  19.146  0.00  0.00    +0.000 A 
ATOM     30  CD1 PHE A   1       3.473   3.380  19.830  0.00  0.00    +0.000 A 
ATOM     31  CE1 PHE A   1       3.246   2.668  21.008  0.00  0.00    +0.000 A 
ATOM     32  CZ  PHE A   1       1.963   2.594  21.546  0.00  0.00    +0.000 A 
ATOM     33  CE2 PHE A   1       0.916   3.279  20.933  0.00  0.00    +0.000 A 
ATOM     34  CD2 PHE A   1       1.136   3.966  19.737  0.00  0.00    +0.000 A 
ENDBRANCH  28  29
ENDBRANCH   1  28
TORSDOF 11
ENDMDL
MODEL 4
REMARK VINA RESULT:      -8.6      3.884      8.921
REMARK  Name = 
REMARK  11 active torsions:
REMARK  status: ('A' for Active; 'I' for Inactive)
REMARK    1  A    between atoms: C_2  and  CA_3
REMARK    2  A    between atoms: CA_3  and  CB_4
REMARK    3  A    between atoms: CA_3  and  N_11
REMARK    4  A    between atoms: CB_4  and  CG_5
REMARK    5  A    between atoms: C_12  and  CA_14
REMARK    6  A    between atoms: CA_14  and  CB_15
REMARK    7  A    between atoms: CA_14  and  N_22
REMARK    8  A    between atoms: CB_15  and  CG_16
REMARK    9  A    between atoms: C_23  and  O_25
REMARK   10  A    between atoms: O_25  and  C_26
REMARK   11  A    between atoms: C_26  and  C_27
REMARK                            x       y       z     vdW  Elec       q    Type
REMARK                         _______ _______ _______ _____ _____    ______ ____
ROOT
ATOM      1  CA  PHE A   1       1.722   8.302  19.997  0.00  0.00    +0.000 C 
ENDROOT
BRANCH   1   3
ATOM      2  N   PHE A   1       2.596   6.421  18.643  0.00  0.00    +0.000 N 
ATOM      3  C   PHE A   1       2.045   6.804  19.850  0.00  0.00    +0.000 C 
ATOM      4  O   PHE A   1       1.909   6.014  20.786  0.00  0.00    +0.000 OA
ATOM      5  H   PHE A   1       2.664   7.090  17.876  0.00  0.00    +0.000 HD
BRANCH   2   6
ATOM      6  CA  PHE A   1       3.009   5.045  18.370  0.00  0.00    +0.000 C 
BRANCH   6   8
ATOM      7  O   PHE A   1       2.017   3.367  16.911  0.00  0.00    +0.000 OA
ATOM      8  C   PHE A   1       1.864   4.245  17.757  0.00  0.00    +0.000 C 
ENDBRANCH   6   8
BRANCH   6   9
ATOM      9  CB  PHE A   1       4.276   4.937  17.507  0.00  0.00    +0.000 C 
BRANCH   9  10
ATOM     10  CG  PHE A   1       5.512   5.686  17.919  0.00  0.00    +0.000 A 
ATOM     11  CD1 PHE A   1       6.263   5.231  19.011  0.00  0.00    +0.000 A 
ATOM     12  CE1 PHE A   1       7.520   5.783  19.262  0.00  0.00    +0.000 A 
ATOM     13  CZ  PHE A   1       8.015   6.820  18.447  0.00  0.00    +0.000 A 
ATOM     14  CE2 PHE A   1       7.211   7.349  17.419  0.00  0.00    +0.000 A 
ATOM     15  CD2 PHE A   1       5.968   6.774  17.151  0.00  0.00    +0.000 A 
ENDBRANCH   9  10
ENDBRANCH   6   9
ENDBRANCH   2   6
ENDBRANCH   1   3
BRANCH   1  16
ATOM     16  N   PHE A   1       0.523   8.485  20.825  0.00  0.00    +0.000 N 
ATOM     17  C   UNK A   0       0.557   9.183  21.996  0.00  0.00    +0.000 C 
ATOM     18  O   UNK A   0       1.591   9.602  22.496  0.00  0.00    +0.000 OA
ATOM     19  H   PHE A   1      -0.374   8.153  20.498  0.00  0.00    +0.000 HD
BRANCH  17  20
ATOM     20  O   UNK A   0      -0.686   9.293  22.555  0.00  0.00    +0.000 OA
BRANCH  20  21
ATOM     21  C   UNK A   0      -0.895  10.401  23.495  0.00  0.00    +0.000 C 
BRANCH  21  22
ATOM     22  C   UNK A   0      -1.449  11.687  22.822  0.00  0.00    +0.000 A 
ATOM     23  C   UNK A   0      -2.686  11.996  23.018  0.00  0.00    +0.000 A 
ATOM     24  C   UNK A   0      -3.238  13.198  22.619  0.00  0.00    +0.000 A 
ATOM     25  C   UNK A   0      -2.622  13.985  21.717  0.00  0.00    +0.000 A 
ATOM     26  C   UNK A   0      -1.252  13.809  21.617  0.00  0.00    +0.000 A 
ATOM     27  C   UNK A   0      -0.645  12.699  22.243  0.00  0.00    +0.000 A 
ENDBRANCH  21  22
ENDBRANCH  20  21
ENDBRANCH  17  20
ENDBRANCH   1  16
BRANCH   1  28
ATOM     28  CB  PHE A   1       1.525   8.910  18.587  0.00  0.00    +0.000 C 
BRANCH  28  29
ATOM     29  CG  PHE A   1       0.755  10.213  18.598  0.00  0.00    +0.000 A 
ATOM     30  CD1 PHE A   1      -0.617  10.240  18.320  0.00  0.00    +0.000 A 
ATOM     31  CE1 PHE A   1      -1.280  11.455  18.149  0.00  0.00    +0.000 A 
ATOM     32  CZ  PHE A   1      -0.593  12.657  18.312  0.00  0.00    +0.000 A 
ATOM     33  CE2 PHE A   1       0.745  12.642  18.698  0.00  0.00    +0.000 A 
ATOM     34  CD2 PHE A   1       1.418  11.426  18.839  0.00  0.00    +0.000 A 
ENDBRANCH  28  29
ENDBRANCH   1  28
TORSDOF 11
ENDMDL
MODEL 5
REMARK VINA RESULT:      -8.6      3.662      6.916
REMARK  Name = 
REMARK  11 active torsions:
REMARK  status: ('A' for Active; 'I' for Inactive)
REMARK    1  A    between atoms: C_2  and  CA_3
REMARK    2  A    between atoms: CA_3  and  CB_4
REMARK    3  A    between atoms: CA_3  and  N_11
REMARK    4  A    between atoms: CB_4  and  CG_5
REMARK    5  A    between atoms: C_12  and  CA_14
REMARK    6  A    between atoms: CA_14  and  CB_15
REMARK    7  A    between atoms: CA_14  and  N_22
REMARK    8  A    between atoms: CB_15  and  CG_16
REMARK    9  A    between atoms: C_23  and  O_25
REMARK   10  A    between atoms: O_25  and  C_26
REMARK   11  A    between atoms: C_26  and  C_27
REMARK                            x       y       z     vdW  Elec       q    Type
REMARK                         _______ _______ _______ _____ _____    ______ ____
ROOT
ATOM      1  CA  PHE A   1       3.123   6.787  18.457  0.00  0.00    +0.000 C 
ENDROOT
BRANCH   1   3
ATOM      2  N   PHE A   1       1.612   8.692  18.931  0.00  0.00    +0.000 N 
ATOM      3  C   PHE A   1       2.518   8.140  18.045  0.00  0.00    +0.000 C 
ATOM      4  O   PHE A   1       2.891   8.741  17.036  0.00  0.00    +0.000 OA
ATOM      5  H   PHE A   1       1.297   8.156  19.740  0.00  0.00    +0.000 HD
BRANCH   2   6
ATOM      6  CA  PHE A   1       0.993   9.998  18.710  0.00  0.00    +0.000 C 
BRANCH   6   8
ATOM      7  O   PHE A   1      -1.105  10.697  17.692  0.00  0.00    +0.000 OA
ATOM      8  C   PHE A   1      -0.471   9.845  18.311  0.00  0.00    +0.000 C 
ENDBRANCH   6   8
BRANCH   6   9
ATOM      9  CB  PHE A   1       1.139  10.963  19.897  0.00  0.00    +0.000 C 
BRANCH   9  10
ATOM     10  CG  PHE A   1       0.113  10.938  20.995  0.00  0.00    +0.000 A 
ATOM     11  CD1 PHE A   1       0.162   9.927  21.963  0.00  0.00    +0.000 A 
ATOM     12  CE1 PHE A   1      -0.641  10.020  23.100  0.00  0.00    +0.000 A 
ATOM     13  CZ  PHE A   1      -1.527  11.104  23.256  0.00  0.00    +0.000 A 
ATOM     14  CE2 PHE A   1      -1.652  12.060  22.230  0.00  0.00    +0.000 A 
ATOM     15  CD2 PHE A   1      -0.826  11.981  21.109  0.00  0.00    +0.000 A 
ENDBRANCH   9  10
ENDBRANCH   6   9
ENDBRANCH   2   6
ENDBRANCH   1   3
BRANCH   1  16
ATOM     16  N   PHE A   1       4.533   6.716  18.054  0.00  0.00    +0.000 N 
ATOM     17  C   UNK A   0       5.435   5.942  18.724  0.00  0.00    +0.000 C 
ATOM     18  O   UNK A   0       5.170   5.350  19.760  0.00  0.00    +0.000 OA
ATOM     19  H   PHE A   1       4.846   7.192  17.219  0.00  0.00    +0.000 HD
BRANCH  17  20
ATOM     20  O   UNK A   0       6.665   5.969  18.128  0.00  0.00    +0.000 OA
BRANCH  20  21
ATOM     21  C   UNK A   0       7.169   4.699  17.589  0.00  0.00    +0.000 C 
BRANCH  21  22
ATOM     22  C   UNK A   0       6.781   4.460  16.104  0.00  0.00    +0.000 A 
ATOM     23  C   UNK A   0       5.625   3.949  15.847  0.00  0.00    +0.000 A 
ATOM     24  C   UNK A   0       5.105   3.855  14.571  0.00  0.00    +0.000 A 
ATOM     25  C   UNK A   0       5.890   3.983  13.485  0.00  0.00    +0.000 A 
ATOM     26  C   UNK A   0       7.060   4.697  13.683  0.00  0.00    +0.000 A 
ATOM     27  C   UNK A   0       7.470   5.013  14.996  0.00  0.00    +0.000 A 
ENDBRANCH  21  22
ENDBRANCH  20  21
ENDBRANCH  17  20
ENDBRANCH   1  16
BRANCH   1  28
ATOM     28  CB  PHE A   1       2.298   5.652  17.801  0.00  0.00    +0.000 C 
BRANCH  28  29
ATOM     29  CG  PHE A   1       2.015   4.498  18.737  0.00  0.00    +0.000 A 
ATOM     30  CD1 PHE A   1       2.023   3.177  18.272  0.00  0.00    +0.000 A 
ATOM     31  CE1 PHE A   1       1.581   2.137  19.091  0.00  0.00    +0.000 A 
ATOM     32  CZ  PHE A   1       1.183   2.397  20.400  0.00  0.00    +0.000 A 
ATOM     33  CE2 PHE A   1       1.276   3.691  20.908  0.00  0.00    +0.000 A 
ATOM     34  CD2 PHE A   1       1.689   4.738  20.080  0.00  0.00    +0.000 A 
ENDBRANCH  28  29
ENDBRANCH   1  28
TORSDOF 11
ENDMDL
MODEL 6
REMARK VINA RESULT:      -8.5      3.755      8.051
REMARK  Name = 
REMARK  11 active torsions:
REMARK  status: ('A' for Active; 'I' for Inactive)
REMARK    1  A    between atoms: C_2  and  CA_3
REMARK    2  A    between atoms: CA_3  and  CB_4
REMARK    3  A    between atoms: CA_3  and  N_11
REMARK    4  A    between atoms: CB_4  and  CG_5
REMARK    5  A    between atoms: C_12  and  CA_14
REMARK    6  A    between atoms: CA_14  and  CB_15
REMARK    7  A    between atoms: CA_14  and  N_22
REMARK    8  A    between atoms: CB_15  and  CG_16
REMARK    9  A    between atoms: C_23  and  O_25
REMARK   10  A    between atoms: O_25  and  C_26
REMARK   11  A    between atoms: C_26  and  C_27
REMARK                            x       y       z     vdW  Elec       q    Type
REMARK                         _______ _______ _______ _____ _____    ______ ____
ROOT
ATOM      1  CA  PHE A   1       2.620   6.374  18.051  0.00  0.00    +0.000 C 
ENDROOT
BRANCH   1   3
ATOM      2  N   PHE A   1       4.577   5.084  17.250  0.00  0.00    +0.000 N 
ATOM      3  C   PHE A   1       4.089   6.329  17.596  0.00  0.00    +0.000 C 
ATOM      4  O   PHE A   1       4.759   7.354  17.456  0.00  0.00    +0.000 OA
ATOM      5  H   PHE A   1       4.011   4.250  17.410  0.00  0.00    +0.000 HD
BRANCH   2   6
ATOM      6  CA  PHE A   1       5.934   4.885  16.746  0.00  0.00    +0.000 C 
BRANCH   6   8
ATOM      7  O   PHE A   1       6.687   4.965  19.060  0.00  0.00    +0.000 OA
ATOM      8  C   PHE A   1       6.913   4.653  17.893  0.00  0.00    +0.000 C 
ENDBRANCH   6   8
BRANCH   6   9
ATOM      9  CB  PHE A   1       6.049   3.768  15.695  0.00  0.00    +0.000 C 
BRANCH   9  10
ATOM     10  CG  PHE A   1       6.410   4.125  14.280  0.00  0.00    +0.000 A 
ATOM     11  CD1 PHE A   1       7.384   5.103  14.043  0.00  0.00    +0.000 A 
ATOM     12  CE1 PHE A   1       7.882   5.282  12.752  0.00  0.00    +0.000 A 
ATOM     13  CZ  PHE A   1       7.379   4.513  11.684  0.00  0.00    +0.000 A 
ATOM     14  CE2 PHE A   1       6.323   3.608  11.908  0.00  0.00    +0.000 A 
ATOM     15  CD2 PHE A   1       5.850   3.409  13.206  0.00  0.00    +0.000 A 
ENDBRANCH   9  10
ENDBRANCH   6   9
ENDBRANCH   2   6
ENDBRANCH   1   3
BRANCH   1  16
ATOM     16  N   PHE A   1       2.523   6.934  19.405  0.00  0.00    +0.000 N 
ATOM     17  C   UNK A   0       1.837   8.085  19.660  0.00  0.00    +0.000 C 
ATOM     18  O   UNK A   0       1.356   8.786  18.782  0.00  0.00    +0.000 OA
ATOM     19  H   PHE A   1       2.910   6.430  20.191  0.00  0.00    +0.000 HD
BRANCH  17  20
ATOM     20  O   UNK A   0       1.814   8.374  20.996  0.00  0.00    +0.000 OA
BRANCH  20  21
ATOM     21  C   UNK A   0       0.494   8.451  21.636  0.00  0.00    +0.000 C 
BRANCH  21  22
ATOM     22  C   UNK A   0       0.054   9.901  21.972  0.00  0.00    +0.000 A 
ATOM     23  C   UNK A   0       0.443  10.856  21.196  0.00  0.00    +0.000 A 
ATOM     24  C   UNK A   0      -0.027  12.151  21.294  0.00  0.00    +0.000 A 
ATOM     25  C   UNK A   0      -0.665  12.582  22.399  0.00  0.00    +0.000 A 
ATOM     26  C   UNK A   0      -1.262  11.591  23.160  0.00  0.00    +0.000 A 
ATOM     27  C   UNK A   0      -0.968  10.236  22.894  0.00  0.00    +0.000 A 
ENDBRANCH  21  22
ENDBRANCH  20  21
ENDBRANCH  17  20
ENDBRANCH   1  16
BRANCH   1  28
ATOM     28  CB  PHE A   1       2.038   4.940  17.999  0.00  0.00    +0.000 C 
BRANCH  28  29
ATOM     29  CG  PHE A   1       2.174   4.189  19.306  0.00  0.00    +0.000 A 
ATOM     30  CD1 PHE A   1       3.368   3.539  19.639  0.00  0.00    +0.000 A 
ATOM     31  CE1 PHE A   1       3.428   2.698  20.751  0.00  0.00    +0.000 A 
ATOM     32  CZ  PHE A   1       2.314   2.543  21.573  0.00  0.00    +0.000 A 
ATOM     33  CE2 PHE A   1       1.156   3.272  21.313  0.00  0.00    +0.000 A 
ATOM     34  CD2 PHE A   1       1.084   4.090  20.183  0.00  0.00    +0.000 A 
ENDBRANCH  28  29
ENDBRANCH   1  28
TORSDOF 11
ENDMDL
MODEL 7
REMARK VINA RESULT:      -8.5      3.710      8.507
REMARK  Name = 
REMARK  11 active torsions:
REMARK  status: ('A' for Active; 'I' for Inactive)
REMARK    1  A    between atoms: C_2  and  CA_3
REMARK    2  A    between atoms: CA_3  and  CB_4
REMARK    3  A    between atoms: CA_3  and  N_11
REMARK    4  A    between atoms: CB_4  and  CG_5
REMARK    5  A    between atoms: C_12  and  CA_14
REMARK    6  A    between atoms: CA_14  and  CB_15
REMARK    7  A    between atoms: CA_14  and  N_22
REMARK    8  A    between atoms: CB_15  and  CG_16
REMARK    9  A    between atoms: C_23  and  O_25
REMARK   10  A    between atoms: O_25  and  C_26
REMARK   11  A    between atoms: C_26  and  C_27
REMARK                            x       y       z     vdW  Elec       q    Type
REMARK                         _______ _______ _______ _____ _____    ______ ____
ROOT
ATOM      1  CA  PHE A   1       3.007   7.416  18.468  0.00  0.00    +0.000 C 
ENDROOT
BRANCH   1   3
ATOM      2  N   PHE A   1       4.862   5.869  17.916  0.00  0.00    +0.000 N 
ATOM      3  C   PHE A   1       4.119   6.960  17.507  0.00  0.00    +0.000 C 
ATOM      4  O   PHE A   1       4.273   7.475  16.398  0.00  0.00    +0.000 OA
ATOM      5  H   PHE A   1       4.735   5.487  18.853  0.00  0.00    +0.000 HD
BRANCH   2   6
ATOM      6  CA  PHE A   1       5.915   5.282  17.090  0.00  0.00    +0.000 C 
BRANCH   6   8
ATOM      7  O   PHE A   1       7.249   5.034  19.112  0.00  0.00    +0.000 OA
ATOM      8  C   PHE A   1       7.015   4.680  17.958  0.00  0.00    +0.000 C 
ENDBRANCH   6   8
BRANCH   6   9
ATOM      9  CB  PHE A   1       5.402   4.256  16.067  0.00  0.00    +0.000 C 
BRANCH   9  10
ATOM     10  CG  PHE A   1       5.889   4.329  14.647  0.00  0.00    +0.000 A 
ATOM     11  CD1 PHE A   1       7.052   5.052  14.352  0.00  0.00    +0.000 A 
ATOM     12  CE1 PHE A   1       7.631   4.942  13.087  0.00  0.00    +0.000 A 
ATOM     13  CZ  PHE A   1       7.027   4.142  12.097  0.00  0.00    +0.000 A 
ATOM     14  CE2 PHE A   1       5.799   3.505  12.363  0.00  0.00    +0.000 A 
ATOM     15  CD2 PHE A   1       5.240   3.591  13.639  0.00  0.00    +0.000 A 
ENDBRANCH   9  10
ENDBRANCH   6   9
ENDBRANCH   2   6
ENDBRANCH   1   3
BRANCH   1  16
ATOM     16  N   PHE A   1       2.553   6.289  19.292  0.00  0.00    +0.000 N 
ATOM     17  C   UNK A   0       1.878   6.479  20.462  0.00  0.00    +0.000 C 
ATOM     18  O   UNK A   0       1.704   7.580  20.963  0.00  0.00    +0.000 OA
ATOM     19  H   PHE A   1       2.674   5.340  18.964  0.00  0.00    +0.000 HD
BRANCH  17  20
ATOM     20  O   UNK A   0       1.486   5.292  21.018  0.00  0.00    +0.000 OA
BRANCH  20  21
ATOM     21  C   UNK A   0       0.868   4.310  20.117  0.00  0.00    +0.000 C 
BRANCH  21  22
ATOM     22  C   UNK A   0       1.884   3.312  19.500  0.00  0.00    +0.000 A 
ATOM     23  C   UNK A   0       1.709   2.935  18.278  0.00  0.00    +0.000 A 
ATOM     24  C   UNK A   0       2.637   2.195  17.573  0.00  0.00    +0.000 A 
ATOM     25  C   UNK A   0       3.631   1.538  18.201  0.00  0.00    +0.000 A 
ATOM     26  C   UNK A   0       3.976   2.039  19.445  0.00  0.00    +0.000 A 
ATOM     27  C   UNK A   0       3.144   2.996  20.066  0.00  0.00    +0.000 A 
ENDBRANCH  21  22
ENDBRANCH  20  21
ENDBRANCH  17  20
ENDBRANCH   1  16
BRANCH   1  28
ATOM     28  CB  PHE A   1       1.841   8.005  17.638  0.00  0.00    +0.000 C 
BRANCH  28  29
ATOM     29  CG  PHE A   1       1.413   9.383  18.097  0.00  0.00    +0.000 A 
ATOM     30  CD1 PHE A   1       0.093   9.630  18.492  0.00  0.00    +0.000 A 
ATOM     31  CE1 PHE A   1      -0.339  10.935  18.735  0.00  0.00    +0.000 A 
ATOM     32  CZ  PHE A   1       0.557  11.998  18.642  0.00  0.00    +0.000 A 
ATOM     33  CE2 PHE A   1       1.898  11.750  18.358  0.00  0.00    +0.000 A 
ATOM     34  CD2 PHE A   1       2.325  10.449  18.085  0.00  0.00    +0.000 A 
ENDBRANCH  28  29
ENDBRANCH   1  28
TORSDOF 11
ENDMDL
MODEL 8
REMARK VINA RESULT:      -8.5      3.928      6.967
REMARK  Name = 
REMARK  11 active torsions:
REMARK  status: ('A' for Active; 'I' for Inactive)
REMARK    1  A    between atoms: C_2  and  CA_3
REMARK    2  A    between atoms: CA_3  and  CB_4
REMARK    3  A    between atoms: CA_3  and  N_11
REMARK    4  A    between atoms: CB_4  and  CG_5
REMARK    5  A    between atoms: C_12  and  CA_14
REMARK    6  A    between atoms: CA_14  and  CB_15
REMARK    7  A    between atoms: CA_14  and  N_22
REMARK    8  A    between atoms: CB_15  and  CG_16
REMARK    9  A    between atoms: C_23  and  O_25
REMARK   10  A    between atoms: O_25  and  C_26
REMARK   11  A    between atoms: C_26  and  C_27
REMARK                            x       y       z     vdW  Elec       q    Type
REMARK                         _______ _______ _______ _____ _____    ______ ____
ROOT
ATOM      1  CA  PHE A   1       4.980   4.014  18.005  0.00  0.00    +0.000 C 
ENDROOT
BRANCH   1   3
ATOM      2  N   PHE A   1       3.591   6.043  18.309  0.00  0.00    +0.000 N 
ATOM      3  C   PHE A   1       4.687   5.327  18.752  0.00  0.00    +0.000 C 
ATOM      4  O   PHE A   1       5.330   5.669  19.746  0.00  0.00    +0.000 OA
ATOM      5  H   PHE A   1       3.099   5.753  17.463  0.00  0.00    +0.000 HD
BRANCH   2   6
ATOM      6  CA  PHE A   1       3.149   7.279  18.950  0.00  0.00    +0.000 C 
BRANCH   6   8
ATOM      7  O   PHE A   1       2.898   8.168  16.697  0.00  0.00    +0.000 OA
ATOM      8  C   PHE A   1       2.858   8.357  17.911  0.00  0.00    +0.000 C 
ENDBRANCH   6   8
BRANCH   6   9
ATOM      9  CB  PHE A   1       1.952   7.095  19.897  0.00  0.00    +0.000 C 
BRANCH   9  10
ATOM     10  CG  PHE A   1       1.338   8.302  20.549  0.00  0.00    +0.000 A 
ATOM     11  CD1 PHE A   1       0.647   9.234  19.764  0.00  0.00    +0.000 A 
ATOM     12  CE1 PHE A   1      -0.109  10.230  20.382  0.00  0.00    +0.000 A 
ATOM     13  CZ  PHE A   1      -0.145  10.326  21.787  0.00  0.00    +0.000 A 
ATOM     14  CE2 PHE A   1       0.640   9.456  22.569  0.00  0.00    +0.000 A 
ATOM     15  CD2 PHE A   1       1.369   8.441  21.949  0.00  0.00    +0.000 A 
ENDBRANCH   9  10
ENDBRANCH   6   9
ENDBRANCH   2   6
ENDBRANCH   1   3
BRANCH   1  16
ATOM     16  N   PHE A   1       5.706   4.290  16.758  0.00  0.00    +0.000 N 
ATOM     17  C   UNK A   0       7.063   4.424  16.730  0.00  0.00    +0.000 C 
ATOM     18  O   UNK A   0       7.755   4.439  17.738  0.00  0.00    +0.000 OA
ATOM     19  H   PHE A   1       5.210   4.315  15.878  0.00  0.00    +0.000 HD
BRANCH  17  20
ATOM     20  O   UNK A   0       7.527   4.598  15.456  0.00  0.00    +0.000 OA
BRANCH  20  21
ATOM     21  C   UNK A   0       6.563   5.081  14.459  0.00  0.00    +0.000 C 
BRANCH  21  22
ATOM     22  C   UNK A   0       6.271   4.054  13.332  0.00  0.00    +0.000 A 
ATOM     23  C   UNK A   0       5.042   3.837  13.004  0.00  0.00    +0.000 A 
ATOM     24  C   UNK A   0       4.672   3.084  11.907  0.00  0.00    +0.000 A 
ATOM     25  C   UNK A   0       5.545   2.257  11.300  0.00  0.00    +0.000 A 
ATOM     26  C   UNK A   0       6.881   2.575  11.478  0.00  0.00    +0.000 A 
ATOM     27  C   UNK A   0       7.245   3.541  12.441  0.00  0.00    +0.000 A 
ENDBRANCH  21  22
ENDBRANCH  20  21
ENDBRANCH  17  20
ENDBRANCH   1  16
BRANCH   1  28
ATOM     28  CB  PHE A   1       3.641   3.291  17.722  0.00  0.00    +0.000 C 
BRANCH  28  29
ATOM     29  CG  PHE A   1       2.804   3.069  18.963  0.00  0.00    +0.000 A 
ATOM     30  CD1 PHE A   1       1.433   3.354  18.966  0.00  0.00    +0.000 A 
ATOM     31  CE1 PHE A   1       0.708   3.326  20.157  0.00  0.00    +0.000 A 
ATOM     32  CZ  PHE A   1       1.330   2.956  21.348  0.00  0.00    +0.000 A 
ATOM     33  CE2 PHE A   1       2.667   2.564  21.337  0.00  0.00    +0.000 A 
ATOM     34  CD2 PHE A   1       3.402   2.622  20.151  0.00  0.00    +0.000 A 
ENDBRANCH  28  29
ENDBRANCH   1  28
TORSDOF 11
ENDMDL
MODEL 9
REMARK VINA RESULT:      -8.5      3.773      8.339
REMARK  Name = 
REMARK  11 active torsions:
REMARK  status: ('A' for Active; 'I' for Inactive)
REMARK    1  A    between atoms: C_2  and  CA_3
REMARK    2  A    between atoms: CA_3  and  CB_4
REMARK    3  A    between atoms: CA_3  and  N_11
REMARK    4  A    between atoms: CB_4  and  CG_5
REMARK    5  A    between atoms: C_12  and  CA_14
REMARK    6  A    between atoms: CA_14  and  CB_15
REMARK    7  A    between atoms: CA_14  and  N_22
REMARK    8  A    between atoms: CB_15  and  CG_16
REMARK    9  A    between atoms: C_23  and  O_25
REMARK   10  A    between atoms: O_25  and  C_26
REMARK   11  A    between atoms: C_26  and  C_27
REMARK                            x       y       z     vdW  Elec       q    Type
REMARK                         _______ _______ _______ _____ _____    ______ ____
ROOT
ATOM      1  CA  PHE A   1       1.803   7.299  19.664  0.00  0.00    +0.000 C 
ENDROOT
BRANCH   1   3
ATOM      2  N   PHE A   1       3.781   6.638  18.329  0.00  0.00    +0.000 N 
ATOM      3  C   PHE A   1       2.607   7.365  18.354  0.00  0.00    +0.000 C 
ATOM      4  O   PHE A   1       2.181   7.951  17.357  0.00  0.00    +0.000 OA
ATOM      5  H   PHE A   1       4.125   6.192  19.180  0.00  0.00    +0.000 HD
BRANCH   2   6
ATOM      6  CA  PHE A   1       4.628   6.554  17.140  0.00  0.00    +0.000 C 
BRANCH   6   8
ATOM      7  O   PHE A   1       6.945   6.543  17.888  0.00  0.00    +0.000 OA
ATOM      8  C   PHE A   1       6.000   7.164  17.405  0.00  0.00    +0.000 C 
ENDBRANCH   6   8
BRANCH   6   9
ATOM      9  CB  PHE A   1       4.761   5.132  16.571  0.00  0.00    +0.000 C 
BRANCH   9  10
ATOM     10  CG  PHE A   1       4.237   3.970  17.368  0.00  0.00    +0.000 A 
ATOM     11  CD1 PHE A   1       3.135   3.249  16.893  0.00  0.00    +0.000 A 
ATOM     12  CE1 PHE A   1       2.783   2.045  17.504  0.00  0.00    +0.000 A 
ATOM     13  CZ  PHE A   1       3.506   1.576  18.619  0.00  0.00    +0.000 A 
ATOM     14  CE2 PHE A   1       4.544   2.359  19.160  0.00  0.00    +0.000 A 
ATOM     15  CD2 PHE A   1       4.913   3.547  18.528  0.00  0.00    +0.000 A 
ENDBRANCH   9  10
ENDBRANCH   6   9
ENDBRANCH   2   6
ENDBRANCH   1   3
BRANCH   1  16
ATOM     16  N   PHE A   1       1.589   8.650  20.199  0.00  0.00    +0.000 N 
ATOM     17  C   UNK A   0       0.611   8.916  21.112  0.00  0.00    +0.000 C 
ATOM     18  O   UNK A   0      -0.220   8.092  21.462  0.00  0.00    +0.000 OA
ATOM     19  H   PHE A   1       2.218   9.400  19.947  0.00  0.00    +0.000 HD
BRANCH  17  20
ATOM     20  O   UNK A   0       0.648  10.219  21.526  0.00  0.00    +0.000 OA
BRANCH  20  21
ATOM     21  C   UNK A   0       0.566  11.249  20.482  0.00  0.00    +0.000 C 
BRANCH  21  22
ATOM     22  C   UNK A   0      -0.698  11.124  19.588  0.00  0.00    +0.000 A 
ATOM     23  C   UNK A   0      -1.727  11.846  19.878  0.00  0.00    +0.000 A 
ATOM     24  C   UNK A   0      -2.835  11.949  19.059  0.00  0.00    +0.000 A 
ATOM     25  C   UNK A   0      -3.061  11.060  18.074  0.00  0.00    +0.000 A 
ATOM     26  C   UNK A   0      -1.938  10.399  17.605  0.00  0.00    +0.000 A 
ATOM     27  C   UNK A   0      -0.723  10.497  18.318  0.00  0.00    +0.000 A 
ENDBRANCH  21  22
ENDBRANCH  20  21
ENDBRANCH  17  20
ENDBRANCH   1  16
BRANCH   1  28
ATOM     28  CB  PHE A   1       2.571   6.414  20.677  0.00  0.00    +0.000 C 
BRANCH  28  29
ATOM     29  CG  PHE A   1       1.998   5.020  20.811  0.00  0.00    +0.000 A 
ATOM     30  CD1 PHE A   1       2.459   4.147  21.803  0.00  0.00    +0.000 A 
ATOM     31  CE1 PHE A   1       2.064   2.808  21.805  0.00  0.00    +0.000 A 
ATOM     32  CZ  PHE A   1       1.160   2.343  20.853  0.00  0.00    +0.000 A 
ATOM     33  CE2 PHE A   1       0.610   3.230  19.930  0.00  0.00    +0.000 A 
ATOM     34  CD2 PHE A   1       1.028   4.562  19.907  0.00  0.00    +0.000 A 
ENDBRANCH  28  29
ENDBRANCH   1  28
TORSDOF 11
ENDMDL
