MODEL 1
REMARK VINA RESULT:      -8.1      0.000      0.000
REMARK  Name = 
REMARK  7 active torsions:
REMARK  status: ('A' for Active; 'I' for Inactive)
REMARK    1  A    between atoms: C_1  and  O_2
REMARK    2  A    between atoms: O_2  and  C_3
REMARK    3  A    between atoms: C_3  and  C_5
REMARK    4  A    between atoms: N_9  and  C_10
REMARK    5  A    between atoms: C_10  and  C_11
REMARK    6  A    between atoms: C_15  and  C_16
REMARK    7  A    between atoms: C_24  and  C_25
REMARK                            x       y       z     vdW  Elec       q    Type
REMARK                         _______ _______ _______ _____ _____    ______ ____
ROOT
ATOM      1  C   UNL     1       1.711   8.561  18.736  0.00  0.00    +0.000 A 
ATOM      2  C   UNL     1       2.698   8.652  17.760  0.00  0.00    +0.000 A 
ATOM      3  C   UNL     1       3.582   7.591  17.561  0.00  0.00    +0.000 A 
ATOM      4  C   UNL     1       3.484   6.378  18.291  0.00  0.00    +0.000 A 
ATOM      5  C   UNL     1       4.228   5.181  18.014  0.00  0.00    +0.000 A 
ATOM      6  C   UNL     1       4.070   4.105  18.904  0.00  0.00    +0.000 A 
ATOM      7  C   UNL     1       3.221   4.233  19.988  0.00  0.00    +0.000 A 
ATOM      8  N   UNL     1       2.456   5.325  20.223  0.00  0.00    +0.000 NA
ATOM      9  C   UNL     1       2.571   6.355  19.375  0.00  0.00    +0.000 A 
ATOM     10  C   UNL     1       1.712   7.432  19.569  0.00  0.00    +0.000 A 
ENDROOT
BRANCH   5  11
ATOM     11  C   UNL     1       5.112   4.993  16.821  0.00  0.00    +0.000 A 
ATOM     12  C   UNL     1       6.478   5.346  16.858  0.00  0.00    +0.000 A 
ATOM     13  C   UNL     1       7.315   5.172  15.749  0.00  0.00    +0.000 A 
ATOM     14  C   UNL     1       6.791   4.669  14.568  0.00  0.00    +0.000 A 
ATOM     15  F   UNL     1       7.580   4.541  13.493  0.00  0.00    +0.000 F 
ATOM     16  C   UNL     1       5.462   4.289  14.493  0.00  0.00    +0.000 A 
ATOM     17  C   UNL     1       4.645   4.412  15.623  0.00  0.00    +0.000 A 
ENDBRANCH   5  11
BRANCH   7  18
ATOM     18  C   UNL     1       3.114   3.113  20.977  0.00  0.00    +0.000 C 
ATOM     19  N   UNL     1       2.126   3.241  21.914  0.00  0.00    +0.000 N 
ATOM     20  O   UNL     1       3.869   2.148  20.965  0.00  0.00    +0.000 OA
ATOM     21  H   UNL     1       1.530   4.062  21.911  0.00  0.00    +0.000 HD
ATOM     22  H   UNL     1       2.016   2.529  22.622  0.00  0.00    +0.000 HD
ENDBRANCH   7  18
BRANCH   1  23
ATOM     23  C   UNL     1       0.628   9.605  18.853  0.00  0.00    +0.000 C 
BRANCH  23  28
ATOM     24  C   UNL     1       0.953  11.178  20.831  0.00  0.00    +0.000 A 
ATOM     25  C   UNL     1       1.326  12.513  20.850  0.00  0.00    +0.000 A 
ATOM     26  N   UNL     1       1.666  12.967  19.606  0.00  0.00    +0.000 NA
ATOM     27  C   UNL     1       1.501  11.934  18.814  0.00  0.00    +0.000 A 
ATOM     28  N   UNL     1       1.063  10.832  19.503  0.00  0.00    +0.000 N 
BRANCH  24  29
ATOM     29  C   UNL     1       0.528  10.344  21.928  0.00  0.00    +0.000 C 
ATOM     30  O   UNL     1       1.261   9.689  22.654  0.00  0.00    +0.000 OA
BRANCH  29  32
ATOM     31  C   UNL     1      -1.330  11.141  23.135  0.00  0.00    +0.000 C 
ATOM     32  O   UNL     1      -0.830  10.390  22.031  0.00  0.00    +0.000 OA
ENDBRANCH  29  32
ENDBRANCH  24  29
ENDBRANCH  23  28
ENDBRANCH   1  23
TORSDOF 6
ENDMDL
MODEL 2
REMARK VINA RESULT:      -8.0      0.900      1.257
REMARK  Name = 
REMARK  7 active torsions:
REMARK  status: ('A' for Active; 'I' for Inactive)
REMARK    1  A    between atoms: C_1  and  O_2
REMARK    2  A    between atoms: O_2  and  C_3
REMARK    3  A    between atoms: C_3  and  C_5
REMARK    4  A    between atoms: N_9  and  C_10
REMARK    5  A    between atoms: C_10  and  C_11
REMARK    6  A    between atoms: C_15  and  C_16
REMARK    7  A    between atoms: C_24  and  C_25
REMARK                            x       y       z     vdW  Elec       q    Type
REMARK                         _______ _______ _______ _____ _____    ______ ____
ROOT
ATOM      1  C   UNL     1       1.957   8.050  18.744  0.00  0.00    +0.000 A 
ATOM      2  C   UNL     1       2.834   8.266  17.686  0.00  0.00    +0.000 A 
ATOM      3  C   UNL     1       3.781   7.295  17.356  0.00  0.00    +0.000 A 
ATOM      4  C   UNL     1       3.856   6.050  18.032  0.00  0.00    +0.000 A 
ATOM      5  C   UNL     1       4.666   4.936  17.630  0.00  0.00    +0.000 A 
ATOM      6  C   UNL     1       4.686   3.815  18.478  0.00  0.00    +0.000 A 
ATOM      7  C   UNL     1       3.937   3.824  19.641  0.00  0.00    +0.000 A 
ATOM      8  N   UNL     1       3.110   4.835  19.997  0.00  0.00    +0.000 NA
ATOM      9  C   UNL     1       3.056   5.904  19.193  0.00  0.00    +0.000 A 
ATOM     10  C   UNL     1       2.132   6.893  19.518  0.00  0.00    +0.000 A 
ENDROOT
BRANCH   5  11
ATOM     11  C   UNL     1       5.444   4.873  16.353  0.00  0.00    +0.000 A 
ATOM     12  C   UNL     1       4.890   4.307  15.184  0.00  0.00    +0.000 A 
ATOM     13  C   UNL     1       5.608   4.245  13.984  0.00  0.00    +0.000 A 
ATOM     14  C   UNL     1       6.908   4.723  13.937  0.00  0.00    +0.000 A 
ATOM     15  F   UNL     1       7.611   4.627  12.801  0.00  0.00    +0.000 F 
ATOM     16  C   UNL     1       7.484   5.306  15.053  0.00  0.00    +0.000 A 
ATOM     17  C   UNL     1       6.741   5.416  16.234  0.00  0.00    +0.000 A 
ENDBRANCH   5  11
BRANCH   7  18
ATOM     18  C   UNL     1       4.021   2.660  20.581  0.00  0.00    +0.000 C 
ATOM     19  N   UNL     1       5.054   1.792  20.358  0.00  0.00    +0.000 N 
ATOM     20  O   UNL     1       3.212   2.482  21.483  0.00  0.00    +0.000 OA
ATOM     21  H   UNL     1       5.696   1.956  19.591  0.00  0.00    +0.000 HD
ATOM     22  H   UNL     1       5.153   0.976  20.946  0.00  0.00    +0.000 HD
ENDBRANCH   7  18
BRANCH   1  23
ATOM     23  C   UNL     1       0.807   8.989  19.010  0.00  0.00    +0.000 C 
BRANCH  23  28
ATOM     24  C   UNL     1       1.042  10.894  20.687  0.00  0.00    +0.000 A 
ATOM     25  C   UNL     1       1.428  12.209  20.486  0.00  0.00    +0.000 A 
ATOM     26  N   UNL     1       1.841  12.430  19.201  0.00  0.00    +0.000 NA
ATOM     27  C   UNL     1       1.707  11.271  18.601  0.00  0.00    +0.000 A 
ATOM     28  N   UNL     1       1.219  10.312  19.451  0.00  0.00    +0.000 N 
BRANCH  24  29
ATOM     29  C   UNL     1       0.547  10.272  21.891  0.00  0.00    +0.000 C 
ATOM     30  O   UNL     1       1.226   9.695  22.728  0.00  0.00    +0.000 OA
BRANCH  29  32
ATOM     31  C   UNL     1      -1.288  11.121  23.097  0.00  0.00    +0.000 C 
ATOM     32  O   UNL     1      -0.806  10.419  21.953  0.00  0.00    +0.000 OA
ENDBRANCH  29  32
ENDBRANCH  24  29
ENDBRANCH  23  28
ENDBRANCH   1  23
TORSDOF 6
ENDMDL
MODEL 3
REMARK VINA RESULT:      -8.0      1.002      1.185
REMARK  Name = 
REMARK  7 active torsions:
REMARK  status: ('A' for Active; 'I' for Inactive)
REMARK    1  A    between atoms: C_1  and  O_2
REMARK    2  A    between atoms: O_2  and  C_3
REMARK    3  A    between atoms: C_3  and  C_5
REMARK    4  A    between atoms: N_9  and  C_10
REMARK    5  A    between atoms: C_10  and  C_11
REMARK    6  A    between atoms: C_15  and  C_16
REMARK    7  A    between atoms: C_24  and  C_25
REMARK                            x       y       z     vdW  Elec       q    Type
REMARK                         _______ _______ _______ _____ _____    ______ ____
ROOT
ATOM      1  C   UNL     1       1.538   9.075  18.784  0.00  0.00    +0.000 A 
ATOM      2  C   UNL     1       2.656   9.018  17.959  0.00  0.00    +0.000 A 
ATOM      3  C   UNL     1       3.428   7.856  17.910  0.00  0.00    +0.000 A 
ATOM      4  C   UNL     1       3.085   6.689  18.640  0.00  0.00    +0.000 A 
ATOM      5  C   UNL     1       3.713   5.406  18.497  0.00  0.00    +0.000 A 
ATOM      6  C   UNL     1       3.306   4.387  19.375  0.00  0.00    +0.000 A 
ATOM      7  C   UNL     1       2.333   4.650  20.322  0.00  0.00    +0.000 A 
ATOM      8  N   UNL     1       1.678   5.830  20.424  0.00  0.00    +0.000 NA
ATOM      9  C   UNL     1       2.032   6.809  19.582  0.00  0.00    +0.000 A 
ATOM     10  C   UNL     1       1.287   7.984  19.629  0.00  0.00    +0.000 A 
ENDROOT
BRANCH   5  11
ATOM     11  C   UNL     1       4.728   5.075  17.447  0.00  0.00    +0.000 A 
ATOM     12  C   UNL     1       6.100   5.342  17.645  0.00  0.00    +0.000 A 
ATOM     13  C   UNL     1       7.059   5.035  16.671  0.00  0.00    +0.000 A 
ATOM     14  C   UNL     1       6.657   4.482  15.466  0.00  0.00    +0.000 A 
ATOM     15  F   UNL     1       7.567   4.226  14.516  0.00  0.00    +0.000 F 
ATOM     16  C   UNL     1       5.325   4.183  15.237  0.00  0.00    +0.000 A 
ATOM     17  C   UNL     1       4.379   4.440  16.237  0.00  0.00    +0.000 A 
ENDBRANCH   5  11
BRANCH   7  18
ATOM     18  C   UNL     1       1.957   3.586  21.307  0.00  0.00    +0.000 C 
ATOM     19  N   UNL     1       0.841   2.857  20.996  0.00  0.00    +0.000 N 
ATOM     20  O   UNL     1       2.592   3.383  22.335  0.00  0.00    +0.000 OA
ATOM     21  H   UNL     1       0.325   3.061  20.147  0.00  0.00    +0.000 HD
ATOM     22  H   UNL     1       0.524   2.138  21.630  0.00  0.00    +0.000 HD
ENDBRANCH   7  18
BRANCH   1  23
ATOM     23  C   UNL     1       0.581  10.239  18.723  0.00  0.00    +0.000 C 
BRANCH  23  28
ATOM     24  C   UNL     1       0.726  11.961  20.597  0.00  0.00    +0.000 A 
ATOM     25  C   UNL     1       1.336  13.205  20.612  0.00  0.00    +0.000 A 
ATOM     26  N   UNL     1       2.045  13.441  19.466  0.00  0.00    +0.000 NA
ATOM     27  C   UNL     1       1.874  12.364  18.737  0.00  0.00    +0.000 A 
ATOM     28  N   UNL     1       1.079  11.444  19.370  0.00  0.00    +0.000 N 
BRANCH  24  29
ATOM     29  C   UNL     1      -0.102  11.350  21.607  0.00  0.00    +0.000 C 
ATOM     30  O   UNL     1      -1.293  11.564  21.780  0.00  0.00    +0.000 OA
BRANCH  29  32
ATOM     31  C   UNL     1      -0.068   9.414  22.946  0.00  0.00    +0.000 C 
ATOM     32  O   UNL     1       0.651  10.492  22.351  0.00  0.00    +0.000 OA
ENDBRANCH  29  32
ENDBRANCH  24  29
ENDBRANCH  23  28
ENDBRANCH   1  23
TORSDOF 6
ENDMDL
MODEL 4
REMARK VINA RESULT:      -7.8      3.944      7.635
REMARK  Name = 
REMARK  7 active torsions:
REMARK  status: ('A' for Active; 'I' for Inactive)
REMARK    1  A    between atoms: C_1  and  O_2
REMARK    2  A    between atoms: O_2  and  C_3
REMARK    3  A    between atoms: C_3  and  C_5
REMARK    4  A    between atoms: N_9  and  C_10
REMARK    5  A    between atoms: C_10  and  C_11
REMARK    6  A    between atoms: C_15  and  C_16
REMARK    7  A    between atoms: C_24  and  C_25
REMARK                            x       y       z     vdW  Elec       q    Type
REMARK                         _______ _______ _______ _____ _____    ______ ____
ROOT
ATOM      1  C   UNL     1       3.863   7.102  16.946  0.00  0.00    +0.000 A 
ATOM      2  C   UNL     1       3.147   8.261  17.223  0.00  0.00    +0.000 A 
ATOM      3  C   UNL     1       2.293   8.306  18.327  0.00  0.00    +0.000 A 
ATOM      4  C   UNL     1       2.160   7.216  19.225  0.00  0.00    +0.000 A 
ATOM      5  C   UNL     1       1.456   7.253  20.476  0.00  0.00    +0.000 A 
ATOM      6  C   UNL     1       1.348   6.048  21.190  0.00  0.00    +0.000 A 
ATOM      7  C   UNL     1       1.915   4.895  20.677  0.00  0.00    +0.000 A 
ATOM      8  N   UNL     1       2.645   4.857  19.537  0.00  0.00    +0.000 NA
ATOM      9  C   UNL     1       2.783   5.998  18.851  0.00  0.00    +0.000 A 
ATOM     10  C   UNL     1       3.614   5.969  17.735  0.00  0.00    +0.000 A 
ENDROOT
BRANCH   5  11
ATOM     11  C   UNL     1       0.880   8.493  21.085  0.00  0.00    +0.000 A 
ATOM     12  C   UNL     1       0.786   9.695  20.350  0.00  0.00    +0.000 A 
ATOM     13  C   UNL     1       0.247  10.860  20.908  0.00  0.00    +0.000 A 
ATOM     14  C   UNL     1      -0.180  10.854  22.226  0.00  0.00    +0.000 A 
ATOM     15  F   UNL     1      -0.658  11.978  22.776  0.00  0.00    +0.000 F 
ATOM     16  C   UNL     1      -0.127   9.692  22.978  0.00  0.00    +0.000 A 
ATOM     17  C   UNL     1       0.360   8.516  22.396  0.00  0.00    +0.000 A 
ENDBRANCH   5  11
BRANCH   7  18
ATOM     18  C   UNL     1       1.732   3.597  21.402  0.00  0.00    +0.000 C 
ATOM     19  N   UNL     1       0.727   2.795  20.935  0.00  0.00    +0.000 N 
ATOM     20  O   UNL     1       2.423   3.273  22.360  0.00  0.00    +0.000 OA
ATOM     21  H   UNL     1       0.159   3.099  20.152  0.00  0.00    +0.000 HD
ATOM     22  H   UNL     1       0.539   1.915  21.394  0.00  0.00    +0.000 HD
ENDBRANCH   7  18
BRANCH   1  23
ATOM     23  C   UNL     1       4.928   7.078  15.878  0.00  0.00    +0.000 C 
BRANCH  23  28
ATOM     24  C   UNL     1       6.934   5.692  16.621  0.00  0.00    +0.000 A 
ATOM     25  C   UNL     1       7.413   4.490  16.125  0.00  0.00    +0.000 A 
ATOM     26  N   UNL     1       6.583   3.961  15.175  0.00  0.00    +0.000 NA
ATOM     27  C   UNL     1       5.601   4.824  15.069  0.00  0.00    +0.000 A 
ATOM     28  N   UNL     1       5.769   5.891  15.913  0.00  0.00    +0.000 N 
BRANCH  24  29
ATOM     29  C   UNL     1       7.516   6.552  17.621  0.00  0.00    +0.000 C 
ATOM     30  O   UNL     1       7.668   6.274  18.802  0.00  0.00    +0.000 OA
BRANCH  29  32
ATOM     31  C   UNL     1       8.107   8.805  17.964  0.00  0.00    +0.000 C 
ATOM     32  O   UNL     1       7.870   7.737  17.049  0.00  0.00    +0.000 OA
ENDBRANCH  29  32
ENDBRANCH  24  29
ENDBRANCH  23  28
ENDBRANCH   1  23
TORSDOF 6
ENDMDL
MODEL 5
REMARK VINA RESULT:      -7.8      0.551      1.210
REMARK  Name = 
REMARK  7 active torsions:
REMARK  status: ('A' for Active; 'I' for Inactive)
REMARK    1  A    between atoms: C_1  and  O_2
REMARK    2  A    between atoms: O_2  and  C_3
REMARK    3  A    between atoms: C_3  and  C_5
REMARK    4  A    between atoms: N_9  and  C_10
REMARK    5  A    between atoms: C_10  and  C_11
REMARK    6  A    between atoms: C_15  and  C_16
REMARK    7  A    between atoms: C_24  and  C_25
REMARK                            x       y       z     vdW  Elec       q    Type
REMARK                         _______ _______ _______ _____ _____    ______ ____
ROOT
ATOM      1  C   UNL     1       1.665   8.690  18.805  0.00  0.00    +0.000 A 
ATOM      2  C   UNL     1       2.658   8.783  17.837  0.00  0.00    +0.000 A 
ATOM      3  C   UNL     1       3.535   7.716  17.634  0.00  0.00    +0.000 A 
ATOM      4  C   UNL     1       3.423   6.497  18.351  0.00  0.00    +0.000 A 
ATOM      5  C   UNL     1       4.158   5.297  18.067  0.00  0.00    +0.000 A 
ATOM      6  C   UNL     1       3.986   4.213  18.946  0.00  0.00    +0.000 A 
ATOM      7  C   UNL     1       3.130   4.338  20.025  0.00  0.00    +0.000 A 
ATOM      8  N   UNL     1       2.373   5.434  20.266  0.00  0.00    +0.000 NA
ATOM      9  C   UNL     1       2.502   6.471  19.429  0.00  0.00    +0.000 A 
ATOM     10  C   UNL     1       1.650   7.554  19.627  0.00  0.00    +0.000 A 
ENDROOT
BRANCH   5  11
ATOM     11  C   UNL     1       5.048   5.112  16.878  0.00  0.00    +0.000 A 
ATOM     12  C   UNL     1       4.591   4.455  15.716  0.00  0.00    +0.000 A 
ATOM     13  C   UNL     1       5.414   4.278  14.597  0.00  0.00    +0.000 A 
ATOM     14  C   UNL     1       6.724   4.730  14.632  0.00  0.00    +0.000 A 
ATOM     15  F   UNL     1       7.527   4.526  13.579  0.00  0.00    +0.000 F 
ATOM     16  C   UNL     1       7.208   5.400  15.743  0.00  0.00    +0.000 A 
ATOM     17  C   UNL     1       6.362   5.623  16.836  0.00  0.00    +0.000 A 
ENDBRANCH   5  11
BRANCH   7  18
ATOM     18  C   UNL     1       3.008   3.209  21.003  0.00  0.00    +0.000 C 
ATOM     19  N   UNL     1       2.042   3.356  21.961  0.00  0.00    +0.000 N 
ATOM     20  O   UNL     1       3.731   2.221  20.964  0.00  0.00    +0.000 OA
ATOM     21  H   UNL     1       1.472   4.195  21.979  0.00  0.00    +0.000 HD
ATOM     22  H   UNL     1       1.924   2.639  22.662  0.00  0.00    +0.000 HD
ENDBRANCH   7  18
BRANCH   1  23
ATOM     23  C   UNL     1       0.590   9.742  18.925  0.00  0.00    +0.000 C 
BRANCH  23  28
ATOM     24  C   UNL     1       0.736  11.700  20.550  0.00  0.00    +0.000 A 
ATOM     25  C   UNL     1       1.324  12.944  20.388  0.00  0.00    +0.000 A 
ATOM     26  N   UNL     1       2.009  13.036  19.207  0.00  0.00    +0.000 NA
ATOM     27  C   UNL     1       1.845  11.869  18.632  0.00  0.00    +0.000 A 
ATOM     28  N   UNL     1       1.077  11.029  19.396  0.00  0.00    +0.000 N 
BRANCH  24  29
ATOM     29  C   UNL     1      -0.064  11.216  21.648  0.00  0.00    +0.000 C 
ATOM     30  O   UNL     1      -1.241  11.482  21.847  0.00  0.00    +0.000 OA
BRANCH  29  32
ATOM     31  C   UNL     1       0.020   9.284  22.991  0.00  0.00    +0.000 C 
ATOM     32  O   UNL     1       0.697  10.413  22.443  0.00  0.00    +0.000 OA
ENDBRANCH  29  32
ENDBRANCH  24  29
ENDBRANCH  23  28
ENDBRANCH   1  23
TORSDOF 6
ENDMDL
MODEL 6
REMARK VINA RESULT:      -7.8      3.949      7.628
REMARK  Name = 
REMARK  7 active torsions:
REMARK  status: ('A' for Active; 'I' for Inactive)
REMARK    1  A    between atoms: C_1  and  O_2
REMARK    2  A    between atoms: O_2  and  C_3
REMARK    3  A    between atoms: C_3  and  C_5
REMARK    4  A    between atoms: N_9  and  C_10
REMARK    5  A    between atoms: C_10  and  C_11
REMARK    6  A    between atoms: C_15  and  C_16
REMARK    7  A    between atoms: C_24  and  C_25
REMARK                            x       y       z     vdW  Elec       q    Type
REMARK                         _______ _______ _______ _____ _____    ______ ____
ROOT
ATOM      1  C   UNL     1       3.856   7.083  16.896  0.00  0.00    +0.000 A 
ATOM      2  C   UNL     1       3.147   8.245  17.176  0.00  0.00    +0.000 A 
ATOM      3  C   UNL     1       2.301   8.295  18.287  0.00  0.00    +0.000 A 
ATOM      4  C   UNL     1       2.171   7.208  19.188  0.00  0.00    +0.000 A 
ATOM      5  C   UNL     1       1.478   7.250  20.445  0.00  0.00    +0.000 A 
ATOM      6  C   UNL     1       1.371   6.047  21.162  0.00  0.00    +0.000 A 
ATOM      7  C   UNL     1       1.929   4.892  20.646  0.00  0.00    +0.000 A 
ATOM      8  N   UNL     1       2.650   4.848  19.502  0.00  0.00    +0.000 NA
ATOM      9  C   UNL     1       2.786   5.987  18.812  0.00  0.00    +0.000 A 
ATOM     10  C   UNL     1       3.608   5.952  17.690  0.00  0.00    +0.000 A 
ENDROOT
BRANCH   5  11
ATOM     11  C   UNL     1       0.911   8.494  21.055  0.00  0.00    +0.000 A 
ATOM     12  C   UNL     1       0.512   8.530  22.409  0.00  0.00    +0.000 A 
ATOM     13  C   UNL     1      -0.018   9.688  22.991  0.00  0.00    +0.000 A 
ATOM     14  C   UNL     1      -0.187  10.826  22.219  0.00  0.00    +0.000 A 
ATOM     15  F   UNL     1      -0.731  11.923  22.762  0.00  0.00    +0.000 F 
ATOM     16  C   UNL     1       0.212  10.844  20.893  0.00  0.00    +0.000 A 
ATOM     17  C   UNL     1       0.792   9.700  20.333  0.00  0.00    +0.000 A 
ENDBRANCH   5  11
BRANCH   7  18
ATOM     18  C   UNL     1       1.746   3.595  21.376  0.00  0.00    +0.000 C 
ATOM     19  N   UNL     1       0.729   2.800  20.924  0.00  0.00    +0.000 N 
ATOM     20  O   UNL     1       2.448   3.267  22.324  0.00  0.00    +0.000 OA
ATOM     21  H   UNL     1       0.152   3.108  20.149  0.00  0.00    +0.000 HD
ATOM     22  H   UNL     1       0.541   1.922  21.387  0.00  0.00    +0.000 HD
ENDBRANCH   7  18
BRANCH   1  23
ATOM     23  C   UNL     1       4.913   7.052  15.820  0.00  0.00    +0.000 C 
BRANCH  23  28
ATOM     24  C   UNL     1       6.928   5.654  16.512  0.00  0.00    +0.000 A 
ATOM     25  C   UNL     1       7.376   4.440  16.017  0.00  0.00    +0.000 A 
ATOM     26  N   UNL     1       6.507   3.907  15.106  0.00  0.00    +0.000 NA
ATOM     27  C   UNL     1       5.531   4.779  15.021  0.00  0.00    +0.000 A 
ATOM     28  N   UNL     1       5.741   5.857  15.843  0.00  0.00    +0.000 N 
BRANCH  24  29
ATOM     29  C   UNL     1       7.555   6.522  17.478  0.00  0.00    +0.000 C 
ATOM     30  O   UNL     1       7.802   7.709  17.319  0.00  0.00    +0.000 OA
BRANCH  29  32
ATOM     31  C   UNL     1       6.710   5.461  19.403  0.00  0.00    +0.000 C 
ATOM     32  O   UNL     1       7.840   5.812  18.606  0.00  0.00    +0.000 OA
ENDBRANCH  29  32
ENDBRANCH  24  29
ENDBRANCH  23  28
ENDBRANCH   1  23
TORSDOF 6
ENDMDL
MODEL 7
REMARK VINA RESULT:      -7.7      1.151      1.167
REMARK  Name = 
REMARK  7 active torsions:
REMARK  status: ('A' for Active; 'I' for Inactive)
REMARK    1  A    between atoms: C_1  and  O_2
REMARK    2  A    between atoms: O_2  and  C_3
REMARK    3  A    between atoms: C_3  and  C_5
REMARK    4  A    between atoms: N_9  and  C_10
REMARK    5  A    between atoms: C_10  and  C_11
REMARK    6  A    between atoms: C_15  and  C_16
REMARK    7  A    between atoms: C_24  and  C_25
REMARK                            x       y       z     vdW  Elec       q    Type
REMARK                         _______ _______ _______ _____ _____    ______ ____
ROOT
ATOM      1  C   UNL     1       2.108   8.118  18.742  0.00  0.00    +0.000 A 
ATOM      2  C   UNL     1       2.973   8.300  17.668  0.00  0.00    +0.000 A 
ATOM      3  C   UNL     1       3.877   7.293  17.324  0.00  0.00    +0.000 A 
ATOM      4  C   UNL     1       3.918   6.048  18.002  0.00  0.00    +0.000 A 
ATOM      5  C   UNL     1       4.679   4.903  17.589  0.00  0.00    +0.000 A 
ATOM      6  C   UNL     1       4.672   3.784  18.440  0.00  0.00    +0.000 A 
ATOM      7  C   UNL     1       3.945   3.824  19.615  0.00  0.00    +0.000 A 
ATOM      8  N   UNL     1       3.162   4.865  19.984  0.00  0.00    +0.000 NA
ATOM      9  C   UNL     1       3.134   5.934  19.178  0.00  0.00    +0.000 A 
ATOM     10  C   UNL     1       2.253   6.957  19.516  0.00  0.00    +0.000 A 
ENDROOT
BRANCH   5  11
ATOM     11  C   UNL     1       5.431   4.809  16.298  0.00  0.00    +0.000 A 
ATOM     12  C   UNL     1       6.759   5.274  16.188  0.00  0.00    +0.000 A 
ATOM     13  C   UNL     1       7.473   5.190  14.987  0.00  0.00    +0.000 A 
ATOM     14  C   UNL     1       6.858   4.665  13.861  0.00  0.00    +0.000 A 
ATOM     15  F   UNL     1       7.524   4.621  12.699  0.00  0.00    +0.000 F 
ATOM     16  C   UNL     1       5.564   4.177  13.928  0.00  0.00    +0.000 A 
ATOM     17  C   UNL     1       4.876   4.212  15.146  0.00  0.00    +0.000 A 
ENDBRANCH   5  11
BRANCH   7  18
ATOM     18  C   UNL     1       4.002   2.659  20.557  0.00  0.00    +0.000 C 
ATOM     19  N   UNL     1       4.996   1.752  20.317  0.00  0.00    +0.000 N 
ATOM     20  O   UNL     1       3.205   2.514  21.476  0.00  0.00    +0.000 OA
ATOM     21  H   UNL     1       5.629   1.889  19.537  0.00  0.00    +0.000 HD
ATOM     22  H   UNL     1       5.075   0.934  20.905  0.00  0.00    +0.000 HD
ENDBRANCH   7  18
BRANCH   1  23
ATOM     23  C   UNL     1       0.998   9.100  19.026  0.00  0.00    +0.000 C 
BRANCH  23  28
ATOM     24  C   UNL     1       1.191  11.381  20.146  0.00  0.00    +0.000 A 
ATOM     25  C   UNL     1       1.676  12.578  19.642  0.00  0.00    +0.000 A 
ATOM     26  N   UNL     1       2.221  12.425  18.397  0.00  0.00    +0.000 NA
ATOM     27  C   UNL     1       2.072  11.152  18.118  0.00  0.00    +0.000 A 
ATOM     28  N   UNL     1       1.449  10.479  19.137  0.00  0.00    +0.000 N 
BRANCH  24  29
ATOM     29  C   UNL     1       0.548  11.129  21.412  0.00  0.00    +0.000 C 
ATOM     30  O   UNL     1       0.852  10.251  22.205  0.00  0.00    +0.000 OA
BRANCH  29  32
ATOM     31  C   UNL     1      -1.573  11.868  20.704  0.00  0.00    +0.000 C 
ATOM     32  O   UNL     1      -0.465  12.023  21.590  0.00  0.00    +0.000 OA
ENDBRANCH  29  32
ENDBRANCH  24  29
ENDBRANCH  23  28
ENDBRANCH   1  23
TORSDOF 6
ENDMDL
MODEL 8
REMARK VINA RESULT:      -7.7      3.986      8.128
REMARK  Name = 
REMARK  7 active torsions:
REMARK  status: ('A' for Active; 'I' for Inactive)
REMARK    1  A    between atoms: C_1  and  O_2
REMARK    2  A    between atoms: O_2  and  C_3
REMARK    3  A    between atoms: C_3  and  C_5
REMARK    4  A    between atoms: N_9  and  C_10
REMARK    5  A    between atoms: C_10  and  C_11
REMARK    6  A    between atoms: C_15  and  C_16
REMARK    7  A    between atoms: C_24  and  C_25
REMARK                            x       y       z     vdW  Elec       q    Type
REMARK                         _______ _______ _______ _____ _____    ______ ____
ROOT
ATOM      1  C   UNL     1       4.217   6.956  17.118  0.00  0.00    +0.000 A 
ATOM      2  C   UNL     1       3.507   8.135  17.319  0.00  0.00    +0.000 A 
ATOM      3  C   UNL     1       2.549   8.208  18.331  0.00  0.00    +0.000 A 
ATOM      4  C   UNL     1       2.299   7.127  19.215  0.00  0.00    +0.000 A 
ATOM      5  C   UNL     1       1.475   7.190  20.389  0.00  0.00    +0.000 A 
ATOM      6  C   UNL     1       1.264   5.992  21.093  0.00  0.00    +0.000 A 
ATOM      7  C   UNL     1       1.850   4.823  20.643  0.00  0.00    +0.000 A 
ATOM      8  N   UNL     1       2.689   4.759  19.582  0.00  0.00    +0.000 NA
ATOM      9  C   UNL     1       2.924   5.892  18.910  0.00  0.00    +0.000 A 
ATOM     10  C   UNL     1       3.861   5.835  17.883  0.00  0.00    +0.000 A 
ENDROOT
BRANCH   5  11
ATOM     11  C   UNL     1       0.873   8.448  20.933  0.00  0.00    +0.000 A 
ATOM     12  C   UNL     1       0.785   8.677  22.323  0.00  0.00    +0.000 A 
ATOM     13  C   UNL     1       0.226   9.851  22.843  0.00  0.00    +0.000 A 
ATOM     14  C   UNL     1      -0.285  10.807  21.980  0.00  0.00    +0.000 A 
ATOM     15  F   UNL     1      -0.858  11.912  22.475  0.00  0.00    +0.000 F 
ATOM     16  C   UNL     1      -0.201  10.634  20.609  0.00  0.00    +0.000 A 
ATOM     17  C   UNL     1       0.410   9.484  20.095  0.00  0.00    +0.000 A 
ENDBRANCH   5  11
BRANCH   7  18
ATOM     18  C   UNL     1       1.561   3.534  21.350  0.00  0.00    +0.000 C 
ATOM     19  N   UNL     1       0.580   2.759  20.793  0.00  0.00    +0.000 N 
ATOM     20  O   UNL     1       2.149   3.194  22.369  0.00  0.00    +0.000 OA
ATOM     21  H   UNL     1       0.097   3.076  19.960  0.00  0.00    +0.000 HD
ATOM     22  H   UNL     1       0.325   1.887  21.235  0.00  0.00    +0.000 HD
ENDBRANCH   7  18
BRANCH   1  23
ATOM     23  C   UNL     1       5.383   6.899  16.162  0.00  0.00    +0.000 C 
BRANCH  23  28
ATOM     24  C   UNL     1       7.089   5.036  15.824  0.00  0.00    +0.000 A 
ATOM     25  C   UNL     1       7.829   4.331  16.760  0.00  0.00    +0.000 A 
ATOM     26  N   UNL     1       7.662   4.828  18.023  0.00  0.00    +0.000 NA
ATOM     27  C   UNL     1       6.822   5.825  17.884  0.00  0.00    +0.000 A 
ATOM     28  N   UNL     1       6.438   5.988  16.578  0.00  0.00    +0.000 N 
BRANCH  24  29
ATOM     29  C   UNL     1       6.995   4.823  14.400  0.00  0.00    +0.000 C 
ATOM     30  O   UNL     1       7.607   5.443  13.543  0.00  0.00    +0.000 OA
BRANCH  29  32
ATOM     31  C   UNL     1       5.983   3.446  12.781  0.00  0.00    +0.000 C 
ATOM     32  O   UNL     1       6.107   3.820  14.152  0.00  0.00    +0.000 OA
ENDBRANCH  29  32
ENDBRANCH  24  29
ENDBRANCH  23  28
ENDBRANCH   1  23
TORSDOF 6
ENDMDL
MODEL 9
REMARK VINA RESULT:      -7.6      1.729      2.349
REMARK  Name = 
REMARK  7 active torsions:
REMARK  status: ('A' for Active; 'I' for Inactive)
REMARK    1  A    between atoms: C_1  and  O_2
REMARK    2  A    between atoms: O_2  and  C_3
REMARK    3  A    between atoms: C_3  and  C_5
REMARK    4  A    between atoms: N_9  and  C_10
REMARK    5  A    between atoms: C_10  and  C_11
REMARK    6  A    between atoms: C_15  and  C_16
REMARK    7  A    between atoms: C_24  and  C_25
REMARK                            x       y       z     vdW  Elec       q    Type
REMARK                         _______ _______ _______ _____ _____    ______ ____
ROOT
ATOM      1  C   UNL     1       0.932   8.611  20.260  0.00  0.00    +0.000 A 
ATOM      2  C   UNL     1       1.840   8.837  19.232  0.00  0.00    +0.000 A 
ATOM      3  C   UNL     1       2.680   7.806  18.804  0.00  0.00    +0.000 A 
ATOM      4  C   UNL     1       2.609   6.498  19.348  0.00  0.00    +0.000 A 
ATOM      5  C   UNL     1       3.298   5.348  18.835  0.00  0.00    +0.000 A 
ATOM      6  C   UNL     1       3.183   4.151  19.563  0.00  0.00    +0.000 A 
ATOM      7  C   UNL     1       2.425   4.124  20.719  0.00  0.00    +0.000 A 
ATOM      8  N   UNL     1       1.709   5.177  21.177  0.00  0.00    +0.000 NA
ATOM      9  C   UNL     1       1.783   6.322  20.487  0.00  0.00    +0.000 A 
ATOM     10  C   UNL     1       0.969   7.369  20.911  0.00  0.00    +0.000 A 
ENDROOT
BRANCH   5  11
ATOM     11  C   UNL     1       4.081   5.331  17.559  0.00  0.00    +0.000 A 
ATOM     12  C   UNL     1       4.532   6.528  16.961  0.00  0.00    +0.000 A 
ATOM     13  C   UNL     1       5.266   6.525  15.769  0.00  0.00    +0.000 A 
ATOM     14  C   UNL     1       5.537   5.323  15.135  0.00  0.00    +0.000 A 
ATOM     15  F   UNL     1       6.204   5.319  13.973  0.00  0.00    +0.000 F 
ATOM     16  C   UNL     1       5.134   4.123  15.697  0.00  0.00    +0.000 A 
ATOM     17  C   UNL     1       4.449   4.130  16.918  0.00  0.00    +0.000 A 
ENDBRANCH   5  11
BRANCH   7  18
ATOM     18  C   UNL     1       2.368   2.867  21.534  0.00  0.00    +0.000 C 
ATOM     19  N   UNL     1       1.143   2.555  22.057  0.00  0.00    +0.000 N 
ATOM     20  O   UNL     1       3.352   2.167  21.736  0.00  0.00    +0.000 OA
ATOM     21  H   UNL     1       0.351   3.165  21.888  0.00  0.00    +0.000 HD
ATOM     22  H   UNL     1       1.044   1.731  22.633  0.00  0.00    +0.000 HD
ENDBRANCH   7  18
BRANCH   1  23
ATOM     23  C   UNL     1      -0.112   9.639  20.620  0.00  0.00    +0.000 C 
BRANCH  23  28
ATOM     24  C   UNL     1       0.108  11.899  19.462  0.00  0.00    +0.000 A 
ATOM     25  C   UNL     1      -0.611  12.424  18.399  0.00  0.00    +0.000 A 
ATOM     26  N   UNL     1      -1.471  11.507  17.862  0.00  0.00    +0.000 NA
ATOM     27  C   UNL     1      -1.303  10.424  18.583  0.00  0.00    +0.000 A 
ATOM     28  N   UNL     1      -0.368  10.610  19.568  0.00  0.00    +0.000 N 
BRANCH  24  29
ATOM     29  C   UNL     1       1.102  12.542  20.285  0.00  0.00    +0.000 C 
ATOM     30  O   UNL     1       0.975  12.829  21.467  0.00  0.00    +0.000 OA
BRANCH  29  32
ATOM     31  C   UNL     1       2.916  13.987  19.878  0.00  0.00    +0.000 C 
ATOM     32  O   UNL     1       2.214  12.792  19.539  0.00  0.00    +0.000 OA
ENDBRANCH  29  32
ENDBRANCH  24  29
ENDBRANCH  23  28
ENDBRANCH   1  23
TORSDOF 6
ENDMDL
