MODEL 1
REMARK VINA RESULT:      -8.7      0.000      0.000
REMARK  Name = 
REMARK  5 active torsions:
REMARK  status: ('A' for Active; 'I' for Inactive)
REMARK    1  A    between atoms: C_2  and  C_5
REMARK    2  A    between atoms: N_3  and  O_4
REMARK    3  A    between atoms: C_8  and  C_9
REMARK    4  A    between atoms: C_17  and  C_18
REMARK    5  A    between atoms: C_21  and  C_22
REMARK                            x       y       z     vdW  Elec       q    Type
REMARK                         _______ _______ _______ _____ _____    ______ ____
ROOT
ATOM      1  C   UNL     1      -0.689  12.144  21.808  0.00  0.00    +0.000 C 
ATOM      2  O   UNL     1       0.368  12.695  21.512  0.00  0.00    +0.000 OA
ATOM      3  N   UNL     1      -0.940  10.789  21.586  0.00  0.00    +0.000 N 
ATOM      4  C   UNL     1       0.067   9.845  21.336  0.00  0.00    +0.000 A 
ATOM      5  N   UNL     1       0.190   8.931  22.310  0.00  0.00    +0.000 NA
ATOM      6  N   UNL     1       1.146   8.102  21.885  0.00  0.00    +0.000 N 
ATOM      7  C   UNL     1       1.523   8.285  20.588  0.00  0.00    +0.000 A 
ATOM      8  C   UNL     1       2.339   7.470  19.773  0.00  0.00    +0.000 A 
ATOM      9  C   UNL     1       2.607   7.797  18.429  0.00  0.00    +0.000 A 
ATOM     10  C   UNL     1       2.038   9.016  18.001  0.00  0.00    +0.000 A 
ATOM     11  C   UNL     1       1.200   9.851  18.853  0.00  0.00    +0.000 A 
ATOM     12  C   UNL     1       0.909   9.474  20.190  0.00  0.00    +0.000 A 
ATOM     13  H   UNL     1      -1.538  10.399  22.304  0.00  0.00    +0.000 HD
ATOM     14  H   UNL     1       1.466   7.367  22.506  0.00  0.00    +0.000 HD
ENDROOT
BRANCH   1  18
ATOM     15  C   UNL     1      -3.627  14.816  23.793  0.00  0.00    +0.000 A 
ATOM     16  C   UNL     1      -2.327  14.644  24.278  0.00  0.00    +0.000 A 
ATOM     17  C   UNL     1      -1.434  13.745  23.643  0.00  0.00    +0.000 A 
ATOM     18  C   UNL     1      -1.786  12.995  22.496  0.00  0.00    +0.000 A 
ATOM     19  C   UNL     1      -3.110  13.133  22.052  0.00  0.00    +0.000 A 
ATOM     20  C   UNL     1      -4.007  14.034  22.690  0.00  0.00    +0.000 A 
BRANCH  15  22
ATOM     21  O   UNL     1      -5.813  15.707  24.113  0.00  0.00    +0.000 OA
ATOM     22  C   UNL     1      -4.605  15.829  24.329  0.00  0.00    +0.000 C 
ATOM     23  N   UNL     1      -4.131  16.898  25.059  0.00  0.00    +0.000 N 
ATOM     24  H   UNL     1      -3.186  17.032  25.401  0.00  0.00    +0.000 HD
BRANCH  23  25
ATOM     25  O   UNL     1      -5.100  17.810  25.554  0.00  0.00    +0.000 OA
ATOM     26  H   UNL     1      -4.541  18.546  25.890  0.00  0.00    +0.000 HD
ENDBRANCH  23  25
ENDBRANCH  15  22
ENDBRANCH   1  18
BRANCH   9  27
ATOM     27  C   UNL     1       3.378   6.807  17.567  0.00  0.00    +0.000 A 
ATOM     28  C   UNL     1       3.363   5.411  17.756  0.00  0.00    +0.000 A 
ATOM     29  C   UNL     1       4.275   4.547  17.092  0.00  0.00    +0.000 A 
ATOM     30  C   UNL     1       5.239   5.045  16.203  0.00  0.00    +0.000 A 
ATOM     31  C   UNL     1       5.198   6.409  15.915  0.00  0.00    +0.000 A 
ATOM     32  C   UNL     1       4.278   7.252  16.568  0.00  0.00    +0.000 A 
BRANCH  30  33
ATOM     33  C   UNL     1       6.327   4.179  15.603  0.00  0.00    +0.000 C 
ATOM     34  F   UNL     1       7.461   4.114  16.353  0.00  0.00    +0.000 F 
ATOM     35  F   UNL     1       5.935   2.889  15.406  0.00  0.00    +0.000 F 
ATOM     36  F   UNL     1       6.726   4.629  14.376  0.00  0.00    +0.000 F 
ENDBRANCH  30  33
ENDBRANCH   9  27
TORSDOF 5
ENDMDL
MODEL 2
REMARK VINA RESULT:      -8.5      1.423      1.987
REMARK  Name = 
REMARK  5 active torsions:
REMARK  status: ('A' for Active; 'I' for Inactive)
REMARK    1  A    between atoms: C_2  and  C_5
REMARK    2  A    between atoms: N_3  and  O_4
REMARK    3  A    between atoms: C_8  and  C_9
REMARK    4  A    between atoms: C_17  and  C_18
REMARK    5  A    between atoms: C_21  and  C_22
REMARK                            x       y       z     vdW  Elec       q    Type
REMARK                         _______ _______ _______ _____ _____    ______ ____
ROOT
ATOM      1  C   UNL     1      -1.203  11.723  22.158  0.00  0.00    +0.000 C 
ATOM      2  O   UNL     1      -1.700  10.609  22.299  0.00  0.00    +0.000 OA
ATOM      3  N   UNL     1      -0.205  12.009  21.224  0.00  0.00    +0.000 N 
ATOM      4  C   UNL     1       0.091  11.184  20.129  0.00  0.00    +0.000 A 
ATOM      5  N   UNL     1      -0.187  11.752  18.946  0.00  0.00    +0.000 NA
ATOM      6  N   UNL     1       0.197  10.856  18.035  0.00  0.00    +0.000 N 
ATOM      7  C   UNL     1       0.911   9.807  18.533  0.00  0.00    +0.000 A 
ATOM      8  C   UNL     1       1.632   8.810  17.841  0.00  0.00    +0.000 A 
ATOM      9  C   UNL     1       2.346   7.804  18.521  0.00  0.00    +0.000 A 
ATOM     10  C   UNL     1       2.231   7.856  19.927  0.00  0.00    +0.000 A 
ATOM     11  C   UNL     1       1.480   8.889  20.631  0.00  0.00    +0.000 A 
ATOM     12  C   UNL     1       0.807   9.918  19.922  0.00  0.00    +0.000 A 
ATOM     13  H   UNL     1      -0.290  12.953  20.867  0.00  0.00    +0.000 HD
ATOM     14  H   UNL     1       0.007  11.042  17.057  0.00  0.00    +0.000 HD
ENDROOT
BRANCH   1  18
ATOM     15  C   UNL     1      -2.639  15.227  24.476  0.00  0.00    +0.000 A 
ATOM     16  C   UNL     1      -1.358  15.175  23.917  0.00  0.00    +0.000 A 
ATOM     17  C   UNL     1      -0.920  14.018  23.224  0.00  0.00    +0.000 A 
ATOM     18  C   UNL     1      -1.737  12.876  23.044  0.00  0.00    +0.000 A 
ATOM     19  C   UNL     1      -2.999  12.918  23.657  0.00  0.00    +0.000 A 
ATOM     20  C   UNL     1      -3.437  14.079  24.354  0.00  0.00    +0.000 A 
BRANCH  15  22
ATOM     21  O   UNL     1      -2.499  17.315  25.614  0.00  0.00    +0.000 OA
ATOM     22  C   UNL     1      -3.230  16.450  25.126  0.00  0.00    +0.000 C 
ATOM     23  N   UNL     1      -4.601  16.588  25.175  0.00  0.00    +0.000 N 
ATOM     24  H   UNL     1      -5.289  16.012  24.704  0.00  0.00    +0.000 HD
BRANCH  23  25
ATOM     25  O   UNL     1      -5.100  17.770  25.783  0.00  0.00    +0.000 OA
ATOM     26  H   UNL     1      -5.117  18.401  25.030  0.00  0.00    +0.000 HD
ENDBRANCH  23  25
ENDBRANCH  15  22
ENDBRANCH   1  18
BRANCH   9  27
ATOM     27  C   UNL     1       3.215   6.844  17.720  0.00  0.00    +0.000 A 
ATOM     28  C   UNL     1       3.123   5.440  17.793  0.00  0.00    +0.000 A 
ATOM     29  C   UNL     1       4.102   4.586  17.220  0.00  0.00    +0.000 A 
ATOM     30  C   UNL     1       5.217   5.102  16.542  0.00  0.00    +0.000 A 
ATOM     31  C   UNL     1       5.270   6.484  16.360  0.00  0.00    +0.000 A 
ATOM     32  C   UNL     1       4.283   7.319  16.920  0.00  0.00    +0.000 A 
BRANCH  30  33
ATOM     33  C   UNL     1       6.359   4.233  16.060  0.00  0.00    +0.000 C 
ATOM     34  F   UNL     1       5.986   2.971  15.709  0.00  0.00    +0.000 F 
ATOM     35  F   UNL     1       7.002   4.748  14.974  0.00  0.00    +0.000 F 
ATOM     36  F   UNL     1       7.325   4.075  17.013  0.00  0.00    +0.000 F 
ENDBRANCH  30  33
ENDBRANCH   9  27
TORSDOF 5
ENDMDL
MODEL 3
REMARK VINA RESULT:      -8.4      1.463      1.879
REMARK  Name = 
REMARK  5 active torsions:
REMARK  status: ('A' for Active; 'I' for Inactive)
REMARK    1  A    between atoms: C_2  and  C_5
REMARK    2  A    between atoms: N_3  and  O_4
REMARK    3  A    between atoms: C_8  and  C_9
REMARK    4  A    between atoms: C_17  and  C_18
REMARK    5  A    between atoms: C_21  and  C_22
REMARK                            x       y       z     vdW  Elec       q    Type
REMARK                         _______ _______ _______ _____ _____    ______ ____
ROOT
ATOM      1  C   UNL     1      -1.074  11.613  21.355  0.00  0.00    +0.000 C 
ATOM      2  O   UNL     1      -0.081  12.293  21.108  0.00  0.00    +0.000 OA
ATOM      3  N   UNL     1      -1.138  10.235  21.141  0.00  0.00    +0.000 N 
ATOM      4  C   UNL     1      -0.007   9.425  20.962  0.00  0.00    +0.000 A 
ATOM      5  N   UNL     1       0.177   8.544  21.956  0.00  0.00    +0.000 NA
ATOM      6  N   UNL     1       1.253   7.840  21.598  0.00  0.00    +0.000 N 
ATOM      7  C   UNL     1       1.677   8.058  20.321  0.00  0.00    +0.000 A 
ATOM      8  C   UNL     1       2.634   7.346  19.565  0.00  0.00    +0.000 A 
ATOM      9  C   UNL     1       2.934   7.693  18.233  0.00  0.00    +0.000 A 
ATOM     10  C   UNL     1       2.239   8.825  17.754  0.00  0.00    +0.000 A 
ATOM     11  C   UNL     1       1.255   9.554  18.545  0.00  0.00    +0.000 A 
ATOM     12  C   UNL     1       0.939   9.155  19.871  0.00  0.00    +0.000 A 
ATOM     13  H   UNL     1      -1.721   9.778  21.832  0.00  0.00    +0.000 HD
ATOM     14  H   UNL     1       1.628   7.158  22.247  0.00  0.00    +0.000 HD
ENDROOT
BRANCH   1  18
ATOM     15  C   UNL     1      -4.775  13.546  22.865  0.00  0.00    +0.000 A 
ATOM     16  C   UNL     1      -4.338  13.697  21.544  0.00  0.00    +0.000 A 
ATOM     17  C   UNL     1      -3.125  13.102  21.114  0.00  0.00    +0.000 A 
ATOM     18  C   UNL     1      -2.308  12.323  21.967  0.00  0.00    +0.000 A 
ATOM     19  C   UNL     1      -2.727  12.225  23.302  0.00  0.00    +0.000 A 
ATOM     20  C   UNL     1      -3.943  12.824  23.735  0.00  0.00    +0.000 A 
BRANCH  15  22
ATOM     21  O   UNL     1      -6.762  13.357  24.165  0.00  0.00    +0.000 OA
ATOM     22  C   UNL     1      -6.100  14.042  23.380  0.00  0.00    +0.000 C 
ATOM     23  N   UNL     1      -6.568  15.268  22.959  0.00  0.00    +0.000 N 
ATOM     24  H   UNL     1      -6.062  15.963  22.423  0.00  0.00    +0.000 HD
BRANCH  23  25
ATOM     25  O   UNL     1      -7.814  15.690  23.493  0.00  0.00    +0.000 OA
ATOM     26  H   UNL     1      -7.542  16.381  24.138  0.00  0.00    +0.000 HD
ENDBRANCH  23  25
ENDBRANCH  15  22
ENDBRANCH   1  18
BRANCH   9  27
ATOM     27  C   UNL     1       3.872   6.801  17.430  0.00  0.00    +0.000 A 
ATOM     28  C   UNL     1       4.801   7.275  16.483  0.00  0.00    +0.000 A 
ATOM     29  C   UNL     1       5.481   6.406  15.590  0.00  0.00    +0.000 A 
ATOM     30  C   UNL     1       5.265   5.020  15.609  0.00  0.00    +0.000 A 
ATOM     31  C   UNL     1       4.436   4.518  16.612  0.00  0.00    +0.000 A 
ATOM     32  C   UNL     1       3.779   5.390  17.503  0.00  0.00    +0.000 A 
BRANCH  30  33
ATOM     33  C   UNL     1       5.846   4.084  14.571  0.00  0.00    +0.000 C 
ATOM     34  F   UNL     1       7.017   4.517  14.028  0.00  0.00    +0.000 F 
ATOM     35  F   UNL     1       6.100   2.836  15.059  0.00  0.00    +0.000 F 
ATOM     36  F   UNL     1       5.000   3.896  13.515  0.00  0.00    +0.000 F 
ENDBRANCH  30  33
ENDBRANCH   9  27
TORSDOF 5
ENDMDL
MODEL 4
REMARK VINA RESULT:      -8.4      0.978      1.564
REMARK  Name = 
REMARK  5 active torsions:
REMARK  status: ('A' for Active; 'I' for Inactive)
REMARK    1  A    between atoms: C_2  and  C_5
REMARK    2  A    between atoms: N_3  and  O_4
REMARK    3  A    between atoms: C_8  and  C_9
REMARK    4  A    between atoms: C_17  and  C_18
REMARK    5  A    between atoms: C_21  and  C_22
REMARK                            x       y       z     vdW  Elec       q    Type
REMARK                         _______ _______ _______ _____ _____    ______ ____
ROOT
ATOM      1  C   UNL     1      -0.924  12.082  21.435  0.00  0.00    +0.000 C 
ATOM      2  O   UNL     1       0.145  12.650  21.226  0.00  0.00    +0.000 OA
ATOM      3  N   UNL     1      -1.135  10.723  21.193  0.00  0.00    +0.000 N 
ATOM      4  C   UNL     1      -0.097   9.795  21.028  0.00  0.00    +0.000 A 
ATOM      5  N   UNL     1      -0.039   8.883  22.010  0.00  0.00    +0.000 NA
ATOM      6  N   UNL     1       0.961   8.069  21.666  0.00  0.00    +0.000 N 
ATOM      7  C   UNL     1       1.441   8.258  20.404  0.00  0.00    +0.000 A 
ATOM      8  C   UNL     1       2.333   7.457  19.660  0.00  0.00    +0.000 A 
ATOM      9  C   UNL     1       2.706   7.789  18.342  0.00  0.00    +0.000 A 
ATOM     10  C   UNL     1       2.155   8.999  17.868  0.00  0.00    +0.000 A 
ATOM     11  C   UNL     1       1.237   9.820  18.647  0.00  0.00    +0.000 A 
ATOM     12  C   UNL     1       0.842   9.438  19.956  0.00  0.00    +0.000 A 
ATOM     13  H   UNL     1      -1.784  10.324  21.861  0.00  0.00    +0.000 HD
ATOM     14  H   UNL     1       1.240   7.339  22.311  0.00  0.00    +0.000 HD
ENDROOT
BRANCH   1  18
ATOM     15  C   UNL     1      -4.431  14.212  23.131  0.00  0.00    +0.000 A 
ATOM     16  C   UNL     1      -4.528  13.396  21.999  0.00  0.00    +0.000 A 
ATOM     17  C   UNL     1      -3.375  12.771  21.461  0.00  0.00    +0.000 A 
ATOM     18  C   UNL     1      -2.087  12.916  22.029  0.00  0.00    +0.000 A 
ATOM     19  C   UNL     1      -1.992  13.781  23.129  0.00  0.00    +0.000 A 
ATOM     20  C   UNL     1      -3.149  14.410  23.669  0.00  0.00    +0.000 A 
BRANCH  15  22
ATOM     21  O   UNL     1      -5.546  15.966  24.296  0.00  0.00    +0.000 OA
ATOM     22  C   UNL     1      -5.612  14.822  23.840  0.00  0.00    +0.000 C 
ATOM     23  N   UNL     1      -6.767  14.082  23.978  0.00  0.00    +0.000 N 
ATOM     24  H   UNL     1      -6.977  13.192  23.541  0.00  0.00    +0.000 HD
BRANCH  23  25
ATOM     25  O   UNL     1      -7.852  14.715  24.638  0.00  0.00    +0.000 OA
ATOM     26  H   UNL     1      -8.474  13.967  24.781  0.00  0.00    +0.000 HD
ENDBRANCH  23  25
ENDBRANCH  15  22
ENDBRANCH   1  18
BRANCH   9  27
ATOM     27  C   UNL     1       3.560   6.811  17.547  0.00  0.00    +0.000 A 
ATOM     28  C   UNL     1       3.799   5.475  17.926  0.00  0.00    +0.000 A 
ATOM     29  C   UNL     1       4.786   4.673  17.294  0.00  0.00    +0.000 A 
ATOM     30  C   UNL     1       5.575   5.173  16.247  0.00  0.00    +0.000 A 
ATOM     31  C   UNL     1       5.279   6.454  15.781  0.00  0.00    +0.000 A 
ATOM     32  C   UNL     1       4.286   7.233  16.406  0.00  0.00    +0.000 A 
BRANCH  30  33
ATOM     33  C   UNL     1       6.740   4.407  15.659  0.00  0.00    +0.000 C 
ATOM     34  F   UNL     1       7.407   5.076  14.678  0.00  0.00    +0.000 F 
ATOM     35  F   UNL     1       7.681   4.070  16.586  0.00  0.00    +0.000 F 
ATOM     36  F   UNL     1       6.349   3.226  15.094  0.00  0.00    +0.000 F 
ENDBRANCH  30  33
ENDBRANCH   9  27
TORSDOF 5
ENDMDL
MODEL 5
REMARK VINA RESULT:      -8.2      1.423      2.088
REMARK  Name = 
REMARK  5 active torsions:
REMARK  status: ('A' for Active; 'I' for Inactive)
REMARK    1  A    between atoms: C_2  and  C_5
REMARK    2  A    between atoms: N_3  and  O_4
REMARK    3  A    between atoms: C_8  and  C_9
REMARK    4  A    between atoms: C_17  and  C_18
REMARK    5  A    between atoms: C_21  and  C_22
REMARK                            x       y       z     vdW  Elec       q    Type
REMARK                         _______ _______ _______ _____ _____    ______ ____
ROOT
ATOM      1  C   UNL     1      -1.078  11.528  21.879  0.00  0.00    +0.000 C 
ATOM      2  O   UNL     1      -1.716  10.489  21.732  0.00  0.00    +0.000 OA
ATOM      3  N   UNL     1       0.134  11.787  21.235  0.00  0.00    +0.000 N 
ATOM      4  C   UNL     1       0.581  11.078  20.111  0.00  0.00    +0.000 A 
ATOM      5  N   UNL     1       0.648  11.830  19.002  0.00  0.00    +0.000 NA
ATOM      6  N   UNL     1       1.130  11.014  18.062  0.00  0.00    +0.000 N 
ATOM      7  C   UNL     1       1.588   9.817  18.526  0.00  0.00    +0.000 A 
ATOM      8  C   UNL     1       2.334   8.825  17.853  0.00  0.00    +0.000 A 
ATOM      9  C   UNL     1       2.755   7.646  18.500  0.00  0.00    +0.000 A 
ATOM     10  C   UNL     1       2.325   7.531  19.840  0.00  0.00    +0.000 A 
ATOM     11  C   UNL     1       1.552   8.560  20.524  0.00  0.00    +0.000 A 
ATOM     12  C   UNL     1       1.180   9.760  19.861  0.00  0.00    +0.000 A 
ATOM     13  H   UNL     1       0.239  12.772  21.023  0.00  0.00    +0.000 HD
ATOM     14  H   UNL     1       1.193  11.351  17.108  0.00  0.00    +0.000 HD
ENDROOT
BRANCH   1  18
ATOM     15  C   UNL     1      -2.688  14.872  24.317  0.00  0.00    +0.000 A 
ATOM     16  C   UNL     1      -1.401  14.899  23.768  0.00  0.00    +0.000 A 
ATOM     17  C   UNL     1      -0.907  13.790  23.035  0.00  0.00    +0.000 A 
ATOM     18  C   UNL     1      -1.670  12.622  22.804  0.00  0.00    +0.000 A 
ATOM     19  C   UNL     1      -2.937  12.583  23.406  0.00  0.00    +0.000 A 
ATOM     20  C   UNL     1      -3.433  13.695  24.143  0.00  0.00    +0.000 A 
BRANCH  15  22
ATOM     21  O   UNL     1      -2.664  16.825  25.680  0.00  0.00    +0.000 OA
ATOM     22  C   UNL     1      -3.338  16.041  25.008  0.00  0.00    +0.000 C 
ATOM     23  N   UNL     1      -4.700  16.221  24.885  0.00  0.00    +0.000 N 
ATOM     24  H   UNL     1      -5.327  15.720  24.267  0.00  0.00    +0.000 HD
BRANCH  23  25
ATOM     25  O   UNL     1      -5.254  17.350  25.544  0.00  0.00    +0.000 OA
ATOM     26  H   UNL     1      -6.158  17.392  25.159  0.00  0.00    +0.000 HD
ENDBRANCH  23  25
ENDBRANCH  15  22
ENDBRANCH   1  18
BRANCH   9  27
ATOM     27  C   UNL     1       3.673   6.684  17.759  0.00  0.00    +0.000 A 
ATOM     28  C   UNL     1       4.848   7.069  17.084  0.00  0.00    +0.000 A 
ATOM     29  C   UNL     1       5.541   6.190  16.210  0.00  0.00    +0.000 A 
ATOM     30  C   UNL     1       5.091   4.882  15.977  0.00  0.00    +0.000 A 
ATOM     31  C   UNL     1       3.995   4.443  16.721  0.00  0.00    +0.000 A 
ATOM     32  C   UNL     1       3.326   5.320  17.597  0.00  0.00    +0.000 A 
BRANCH  30  33
ATOM     33  C   UNL     1       5.708   3.974  14.935  0.00  0.00    +0.000 C 
ATOM     34  F   UNL     1       5.806   2.672  15.322  0.00  0.00    +0.000 F 
ATOM     35  F   UNL     1       5.017   3.963  13.760  0.00  0.00    +0.000 F 
ATOM     36  F   UNL     1       6.978   4.355  14.607  0.00  0.00    +0.000 F 
ENDBRANCH  30  33
ENDBRANCH   9  27
TORSDOF 5
ENDMDL
MODEL 6
REMARK VINA RESULT:      -8.2      1.097      1.579
REMARK  Name = 
REMARK  5 active torsions:
REMARK  status: ('A' for Active; 'I' for Inactive)
REMARK    1  A    between atoms: C_2  and  C_5
REMARK    2  A    between atoms: N_3  and  O_4
REMARK    3  A    between atoms: C_8  and  C_9
REMARK    4  A    between atoms: C_17  and  C_18
REMARK    5  A    between atoms: C_21  and  C_22
REMARK                            x       y       z     vdW  Elec       q    Type
REMARK                         _______ _______ _______ _____ _____    ______ ____
ROOT
ATOM      1  C   UNL     1      -1.140  11.864  21.164  0.00  0.00    +0.000 C 
ATOM      2  O   UNL     1      -0.139  12.515  20.876  0.00  0.00    +0.000 OA
ATOM      3  N   UNL     1      -1.214  10.474  21.050  0.00  0.00    +0.000 N 
ATOM      4  C   UNL     1      -0.088   9.645  20.939  0.00  0.00    +0.000 A 
ATOM      5  N   UNL     1       0.081   8.836  21.996  0.00  0.00    +0.000 NA
ATOM      6  N   UNL     1       1.154   8.100  21.697  0.00  0.00    +0.000 N 
ATOM      7  C   UNL     1       1.588   8.221  20.411  0.00  0.00    +0.000 A 
ATOM      8  C   UNL     1       2.545   7.449  19.716  0.00  0.00    +0.000 A 
ATOM      9  C   UNL     1       2.857   7.696  18.364  0.00  0.00    +0.000 A 
ATOM     10  C   UNL     1       2.175   8.796  17.800  0.00  0.00    +0.000 A 
ATOM     11  C   UNL     1       1.191   9.588  18.528  0.00  0.00    +0.000 A 
ATOM     12  C   UNL     1       0.863   9.288  19.877  0.00  0.00    +0.000 A 
ATOM     13  H   UNL     1      -1.805  10.073  21.768  0.00  0.00    +0.000 HD
ATOM     14  H   UNL     1       1.519   7.464  22.397  0.00  0.00    +0.000 HD
ENDROOT
BRANCH   1  18
ATOM     15  C   UNL     1      -4.473  14.246  22.875  0.00  0.00    +0.000 A 
ATOM     16  C   UNL     1      -3.385  13.821  23.646  0.00  0.00    +0.000 A 
ATOM     17  C   UNL     1      -2.365  13.022  23.072  0.00  0.00    +0.000 A 
ATOM     18  C   UNL     1      -2.372  12.626  21.714  0.00  0.00    +0.000 A 
ATOM     19  C   UNL     1      -3.495  13.010  20.965  0.00  0.00    +0.000 A 
ATOM     20  C   UNL     1      -4.520  13.811  21.541  0.00  0.00    +0.000 A 
BRANCH  15  22
ATOM     21  O   UNL     1      -5.306  15.976  24.284  0.00  0.00    +0.000 OA
ATOM     22  C   UNL     1      -5.540  15.189  23.364  0.00  0.00    +0.000 C 
ATOM     23  N   UNL     1      -6.786  15.158  22.774  0.00  0.00    +0.000 N 
ATOM     24  H   UNL     1      -7.052  14.648  21.939  0.00  0.00    +0.000 HD
BRANCH  23  25
ATOM     25  O   UNL     1      -7.745  16.082  23.264  0.00  0.00    +0.000 OA
ATOM     26  H   UNL     1      -7.281  16.474  24.037  0.00  0.00    +0.000 HD
ENDBRANCH  23  25
ENDBRANCH  15  22
ENDBRANCH   1  18
BRANCH   9  27
ATOM     27  C   UNL     1       3.793   6.741  17.636  0.00  0.00    +0.000 A 
ATOM     28  C   UNL     1       4.938   7.144  16.920  0.00  0.00    +0.000 A 
ATOM     29  C   UNL     1       5.643   6.259  16.062  0.00  0.00    +0.000 A 
ATOM     30  C   UNL     1       5.235   4.929  15.885  0.00  0.00    +0.000 A 
ATOM     31  C   UNL     1       4.173   4.478  16.669  0.00  0.00    +0.000 A 
ATOM     32  C   UNL     1       3.492   5.361  17.530  0.00  0.00    +0.000 A 
BRANCH  30  33
ATOM     33  C   UNL     1       5.861   4.007  14.861  0.00  0.00    +0.000 C 
ATOM     34  F   UNL     1       5.959   2.711  15.266  0.00  0.00    +0.000 F 
ATOM     35  F   UNL     1       5.180   3.979  13.680  0.00  0.00    +0.000 F 
ATOM     36  F   UNL     1       7.134   4.385  14.537  0.00  0.00    +0.000 F 
ENDBRANCH  30  33
ENDBRANCH   9  27
TORSDOF 5
ENDMDL
MODEL 7
REMARK VINA RESULT:      -8.1      1.255      1.848
REMARK  Name = 
REMARK  5 active torsions:
REMARK  status: ('A' for Active; 'I' for Inactive)
REMARK    1  A    between atoms: C_2  and  C_5
REMARK    2  A    between atoms: N_3  and  O_4
REMARK    3  A    between atoms: C_8  and  C_9
REMARK    4  A    between atoms: C_17  and  C_18
REMARK    5  A    between atoms: C_21  and  C_22
REMARK                            x       y       z     vdW  Elec       q    Type
REMARK                         _______ _______ _______ _____ _____    ______ ____
ROOT
ATOM      1  C   UNL     1      -1.212  12.148  20.944  0.00  0.00    +0.000 C 
ATOM      2  O   UNL     1      -0.158  12.750  20.759  0.00  0.00    +0.000 OA
ATOM      3  N   UNL     1      -1.348  10.767  20.791  0.00  0.00    +0.000 N 
ATOM      4  C   UNL     1      -0.263   9.880  20.756  0.00  0.00    +0.000 A 
ATOM      5  N   UNL     1      -0.228   9.043  21.803  0.00  0.00    +0.000 NA
ATOM      6  N   UNL     1       0.827   8.256  21.580  0.00  0.00    +0.000 N 
ATOM      7  C   UNL     1       1.376   8.378  20.338  0.00  0.00    +0.000 A 
ATOM      8  C   UNL     1       2.347   7.570  19.708  0.00  0.00    +0.000 A 
ATOM      9  C   UNL     1       2.787   7.826  18.395  0.00  0.00    +0.000 A 
ATOM     10  C   UNL     1       2.215   8.972  17.801  0.00  0.00    +0.000 A 
ATOM     11  C   UNL     1       1.215   9.801  18.462  0.00  0.00    +0.000 A 
ATOM     12  C   UNL     1       0.756   9.494  19.770  0.00  0.00    +0.000 A 
ATOM     13  H   UNL     1      -2.020  10.385  21.446  0.00  0.00    +0.000 HD
ATOM     14  H   UNL     1       1.096   7.587  22.292  0.00  0.00    +0.000 HD
ENDROOT
BRANCH   1  18
ATOM     15  C   UNL     1      -4.909  14.223  22.262  0.00  0.00    +0.000 A 
ATOM     16  C   UNL     1      -4.893  13.345  21.174  0.00  0.00    +0.000 A 
ATOM     17  C   UNL     1      -3.681  12.739  20.755  0.00  0.00    +0.000 A 
ATOM     18  C   UNL     1      -2.445  12.965  21.406  0.00  0.00    +0.000 A 
ATOM     19  C   UNL     1      -2.464  13.890  22.460  0.00  0.00    +0.000 A 
ATOM     20  C   UNL     1      -3.679  14.500  22.879  0.00  0.00    +0.000 A 
BRANCH  15  22
ATOM     21  O   UNL     1      -7.015  14.100  23.369  0.00  0.00    +0.000 OA
ATOM     22  C   UNL     1      -6.161  14.822  22.849  0.00  0.00    +0.000 C 
ATOM     23  N   UNL     1      -6.342  16.187  22.792  0.00  0.00    +0.000 N 
ATOM     24  H   UNL     1      -5.662  16.881  22.506  0.00  0.00    +0.000 HD
BRANCH  23  25
ATOM     25  O   UNL     1      -7.532  16.695  23.377  0.00  0.00    +0.000 OA
ATOM     26  H   UNL     1      -7.191  17.156  24.177  0.00  0.00    +0.000 HD
ENDBRANCH  23  25
ENDBRANCH  15  22
ENDBRANCH   1  18
BRANCH   9  27
ATOM     27  C   UNL     1       3.731   6.836  17.725  0.00  0.00    +0.000 A 
ATOM     28  C   UNL     1       4.907   7.200  17.041  0.00  0.00    +0.000 A 
ATOM     29  C   UNL     1       5.626   6.281  16.231  0.00  0.00    +0.000 A 
ATOM     30  C   UNL     1       5.202   4.953  16.076  0.00  0.00    +0.000 A 
ATOM     31  C   UNL     1       4.105   4.542  16.833  0.00  0.00    +0.000 A 
ATOM     32  C   UNL     1       3.410   5.459  17.645  0.00  0.00    +0.000 A 
BRANCH  30  33
ATOM     33  C   UNL     1       5.847   3.994  15.099  0.00  0.00    +0.000 C 
ATOM     34  F   UNL     1       5.895   2.705  15.537  0.00  0.00    +0.000 F 
ATOM     35  F   UNL     1       5.215   3.954  13.892  0.00  0.00    +0.000 F 
ATOM     36  F   UNL     1       7.141   4.333  14.821  0.00  0.00    +0.000 F 
ENDBRANCH  30  33
ENDBRANCH   9  27
TORSDOF 5
ENDMDL
MODEL 8
REMARK VINA RESULT:      -7.8      1.557      2.076
REMARK  Name = 
REMARK  5 active torsions:
REMARK  status: ('A' for Active; 'I' for Inactive)
REMARK    1  A    between atoms: C_2  and  C_5
REMARK    2  A    between atoms: N_3  and  O_4
REMARK    3  A    between atoms: C_8  and  C_9
REMARK    4  A    between atoms: C_17  and  C_18
REMARK    5  A    between atoms: C_21  and  C_22
REMARK                            x       y       z     vdW  Elec       q    Type
REMARK                         _______ _______ _______ _____ _____    ______ ____
ROOT
ATOM      1  C   UNL     1      -1.565  12.356  21.627  0.00  0.00    +0.000 C 
ATOM      2  O   UNL     1      -2.291  11.416  21.311  0.00  0.00    +0.000 OA
ATOM      3  N   UNL     1      -0.249  12.496  21.183  0.00  0.00    +0.000 N 
ATOM      4  C   UNL     1       0.276  11.805  20.082  0.00  0.00    +0.000 A 
ATOM      5  N   UNL     1       0.596  12.607  19.056  0.00  0.00    +0.000 NA
ATOM      6  N   UNL     1       1.115  11.795  18.132  0.00  0.00    +0.000 N 
ATOM      7  C   UNL     1       1.355  10.524  18.562  0.00  0.00    +0.000 A 
ATOM      8  C   UNL     1       2.072   9.488  17.925  0.00  0.00    +0.000 A 
ATOM      9  C   UNL     1       2.250   8.228  18.531  0.00  0.00    +0.000 A 
ATOM     10  C   UNL     1       1.614   8.088  19.784  0.00  0.00    +0.000 A 
ATOM     11  C   UNL     1       0.873   9.164  20.430  0.00  0.00    +0.000 A 
ATOM     12  C   UNL     1       0.747  10.439  19.817  0.00  0.00    +0.000 A 
ATOM     13  H   UNL     1       0.001  13.471  21.066  0.00  0.00    +0.000 HD
ATOM     14  H   UNL     1       1.359  12.179  17.226  0.00  0.00    +0.000 HD
ENDROOT
BRANCH   1  18
ATOM     15  C   UNL     1      -2.991  15.664  24.222  0.00  0.00    +0.000 A 
ATOM     16  C   UNL     1      -1.758  15.035  24.423  0.00  0.00    +0.000 A 
ATOM     17  C   UNL     1      -1.361  13.950  23.601  0.00  0.00    +0.000 A 
ATOM     18  C   UNL     1      -2.158  13.458  22.541  0.00  0.00    +0.000 A 
ATOM     19  C   UNL     1      -3.416  14.059  22.385  0.00  0.00    +0.000 A 
ATOM     20  C   UNL     1      -3.816  15.147  23.211  0.00  0.00    +0.000 A 
BRANCH  15  22
ATOM     21  O   UNL     1      -2.639  17.770  25.277  0.00  0.00    +0.000 OA
ATOM     22  C   UNL     1      -3.447  16.892  24.965  0.00  0.00    +0.000 C 
ATOM     23  N   UNL     1      -4.779  17.020  25.298  0.00  0.00    +0.000 N 
ATOM     24  H   UNL     1      -5.544  16.431  24.990  0.00  0.00    +0.000 HD
BRANCH  23  25
ATOM     25  O   UNL     1      -5.152  18.206  25.982  0.00  0.00    +0.000 OA
ATOM     26  H   UNL     1      -4.461  18.272  26.679  0.00  0.00    +0.000 HD
ENDBRANCH  23  25
ENDBRANCH  15  22
ENDBRANCH   1  18
BRANCH   9  27
ATOM     27  C   UNL     1       3.150   7.203  17.855  0.00  0.00    +0.000 A 
ATOM     28  C   UNL     1       3.123   5.821  18.125  0.00  0.00    +0.000 A 
ATOM     29  C   UNL     1       4.131   4.938  17.657  0.00  0.00    +0.000 A 
ATOM     30  C   UNL     1       5.211   5.400  16.890  0.00  0.00    +0.000 A 
ATOM     31  C   UNL     1       5.199   6.743  16.515  0.00  0.00    +0.000 A 
ATOM     32  C   UNL     1       4.183   7.606  16.973  0.00  0.00    +0.000 A 
BRANCH  30  33
ATOM     33  C   UNL     1       6.384   4.522  16.511  0.00  0.00    +0.000 C 
ATOM     34  F   UNL     1       7.222   5.080  15.593  0.00  0.00    +0.000 F 
ATOM     35  F   UNL     1       7.167   4.186  17.575  0.00  0.00    +0.000 F 
ATOM     36  F   UNL     1       5.985   3.334  15.965  0.00  0.00    +0.000 F 
ENDBRANCH  30  33
ENDBRANCH   9  27
TORSDOF 5
ENDMDL
MODEL 9
REMARK VINA RESULT:      -7.8      7.133     12.700
REMARK  Name = 
REMARK  5 active torsions:
REMARK  status: ('A' for Active; 'I' for Inactive)
REMARK    1  A    between atoms: C_2  and  C_5
REMARK    2  A    between atoms: N_3  and  O_4
REMARK    3  A    between atoms: C_8  and  C_9
REMARK    4  A    between atoms: C_17  and  C_18
REMARK    5  A    between atoms: C_21  and  C_22
REMARK                            x       y       z     vdW  Elec       q    Type
REMARK                         _______ _______ _______ _____ _____    ______ ____
ROOT
ATOM      1  C   UNL     1       2.187   8.160  18.524  0.00  0.00    +0.000 C 
ATOM      2  O   UNL     1       1.405   8.750  17.782  0.00  0.00    +0.000 OA
ATOM      3  N   UNL     1       2.183   8.299  19.914  0.00  0.00    +0.000 N 
ATOM      4  C   UNL     1       1.104   8.827  20.637  0.00  0.00    +0.000 A 
ATOM      5  N   UNL     1       0.512   7.928  21.438  0.00  0.00    +0.000 NA
ATOM      6  N   UNL     1      -0.445   8.610  22.072  0.00  0.00    +0.000 N 
ATOM      7  C   UNL     1      -0.392   9.960  21.899  0.00  0.00    +0.000 A 
ATOM      8  C   UNL     1      -1.106  10.975  22.574  0.00  0.00    +0.000 A 
ATOM      9  C   UNL     1      -0.906  12.340  22.286  0.00  0.00    +0.000 A 
ATOM     10  C   UNL     1       0.017  12.587  21.246  0.00  0.00    +0.000 A 
ATOM     11  C   UNL     1       0.745  11.532  20.554  0.00  0.00    +0.000 A 
ATOM     12  C   UNL     1       0.558  10.166  20.895  0.00  0.00    +0.000 A 
ATOM     13  H   UNL     1       2.453   7.438  20.374  0.00  0.00    +0.000 HD
ATOM     14  H   UNL     1      -1.081   8.107  22.680  0.00  0.00    +0.000 HD
ENDROOT
BRANCH   1  18
ATOM     15  C   UNL     1       4.869   5.219  16.559  0.00  0.00    +0.000 A 
ATOM     16  C   UNL     1       3.752   4.829  17.306  0.00  0.00    +0.000 A 
ATOM     17  C   UNL     1       2.948   5.798  17.957  0.00  0.00    +0.000 A 
ATOM     18  C   UNL     1       3.207   7.187  17.882  0.00  0.00    +0.000 A 
ATOM     19  C   UNL     1       4.361   7.562  17.178  0.00  0.00    +0.000 A 
ATOM     20  C   UNL     1       5.170   6.590  16.525  0.00  0.00    +0.000 A 
BRANCH  15  22
ATOM     21  O   UNL     1       6.695   3.723  16.239  0.00  0.00    +0.000 OA
ATOM     22  C   UNL     1       5.712   4.276  15.740  0.00  0.00    +0.000 C 
ATOM     23  N   UNL     1       5.374   4.044  14.424  0.00  0.00    +0.000 N 
ATOM     24  H   UNL     1       4.529   4.341  13.950  0.00  0.00    +0.000 HD
BRANCH  23  25
ATOM     25  O   UNL     1       6.194   3.133  13.708  0.00  0.00    +0.000 OA
ATOM     26  H   UNL     1       5.561   2.413  13.487  0.00  0.00    +0.000 HD
ENDBRANCH  23  25
ENDBRANCH  15  22
ENDBRANCH   1  18
BRANCH   9  27
ATOM     27  C   UNL     1      -1.603  13.386  23.145  0.00  0.00    +0.000 A 
ATOM     28  C   UNL     1      -2.895  13.236  23.686  0.00  0.00    +0.000 A 
ATOM     29  C   UNL     1      -3.600  14.320  24.273  0.00  0.00    +0.000 A 
ATOM     30  C   UNL     1      -3.038  15.603  24.350  0.00  0.00    +0.000 A 
ATOM     31  C   UNL     1      -1.718  15.748  23.924  0.00  0.00    +0.000 A 
ATOM     32  C   UNL     1      -1.024  14.661  23.358  0.00  0.00    +0.000 A 
BRANCH  30  33
ATOM     33  C   UNL     1      -3.817  16.813  24.821  0.00  0.00    +0.000 C 
ATOM     34  F   UNL     1      -3.912  17.806  23.894  0.00  0.00    +0.000 F 
ATOM     35  F   UNL     1      -5.097  16.517  25.183  0.00  0.00    +0.000 F 
ATOM     36  F   UNL     1      -3.253  17.394  25.921  0.00  0.00    +0.000 F 
ENDBRANCH  30  33
ENDBRANCH   9  27
TORSDOF 5
ENDMDL
