MODEL 1
REMARK VINA RESULT:      -8.5      0.000      0.000
REMARK  Name = 
REMARK  5 active torsions:
REMARK  status: ('A' for Active; 'I' for Inactive)
REMARK    1  A    between atoms: C_1  and  N_2
REMARK    2  A    between atoms: C_7  and  C_8
REMARK    3  A    between atoms: C_11  and  N_12
REMARK    4  A    between atoms: C_21  and  C_22
REMARK    5  A    between atoms: C_25  and  N_26
REMARK                            x       y       z     vdW  Elec       q    Type
REMARK                         _______ _______ _______ _____ _____    ______ ____
ROOT
ATOM      1  C   UNL     1       0.780  17.096  19.064  0.00  0.00    +0.000 C 
ATOM      2  N   UNL     1       1.056  15.674  19.020  0.00  0.00    +0.000 N 
ATOM      3  C   UNL     1       2.048  15.183  18.219  0.00  0.00    +0.000 A 
ATOM      4  N   UNL     1       2.375  13.940  18.145  0.00  0.00    +0.000 NA
ATOM      5  C   UNL     1       1.614  13.017  18.888  0.00  0.00    +0.000 A 
ATOM      6  C   UNL     1       1.904  11.675  18.719  0.00  0.00    +0.000 A 
ATOM      7  C   UNL     1       1.161  10.711  19.387  0.00  0.00    +0.000 A 
ATOM      8  N   UNL     1       0.098  11.059  20.155  0.00  0.00    +0.000 NA
ATOM      9  C   UNL     1      -0.208  12.388  20.323  0.00  0.00    +0.000 A 
ATOM     10  C   UNL     1       0.581  13.393  19.739  0.00  0.00    +0.000 A 
ATOM     11  C   UNL     1       0.434  14.855  19.953  0.00  0.00    +0.000 A 
ATOM     12  O   UNL     1      -0.149  15.320  20.925  0.00  0.00    +0.000 OA
ENDROOT
BRANCH   7  13
ATOM     13  C   UNL     1       1.478   9.274  19.235  0.00  0.00    +0.000 A 
ATOM     14  C   UNL     1       1.435   8.401  20.335  0.00  0.00    +0.000 A 
ATOM     15  C   UNL     1       1.874   7.072  20.248  0.00  0.00    +0.000 A 
ATOM     16  C   UNL     1       2.369   6.534  19.058  0.00  0.00    +0.000 A 
ATOM     17  C   UNL     1       2.336   7.385  17.941  0.00  0.00    +0.000 A 
ATOM     18  C   UNL     1       1.895   8.720  18.020  0.00  0.00    +0.000 A 
BRANCH  16  19
ATOM     19  N   UNL     1       2.859   5.247  18.982  0.00  0.00    +0.000 N 
ATOM     20  C   UNL     1       3.451   4.668  17.763  0.00  0.00    +0.000 C 
ATOM     21  C   UNL     1       2.649   3.442  17.306  0.00  0.00    +0.000 C 
ATOM     22  O   UNL     1       2.535   2.468  18.358  0.00  0.00    +0.000 OA
ATOM     23  C   UNL     1       1.869   3.044  19.494  0.00  0.00    +0.000 C 
ATOM     24  C   UNL     1       2.627   4.263  20.053  0.00  0.00    +0.000 C 
ENDBRANCH  16  19
ENDBRANCH   7  13
BRANCH   9  25
ATOM     25  C   UNL     1      -1.457  12.621  21.090  0.00  0.00    +0.000 A 
ATOM     26  C   UNL     1      -1.520  12.477  22.480  0.00  0.00    +0.000 A 
ATOM     27  C   UNL     1      -2.706  12.746  23.195  0.00  0.00    +0.000 A 
ATOM     28  C   UNL     1      -3.877  13.210  22.575  0.00  0.00    +0.000 A 
ATOM     29  C   UNL     1      -3.801  13.328  21.187  0.00  0.00    +0.000 A 
ATOM     30  C   UNL     1      -2.655  12.976  20.462  0.00  0.00    +0.000 A 
BRANCH  28  31
ATOM     31  N   UNL     1      -5.051  13.452  23.264  0.00  0.00    +0.000 N 
ATOM     32  C   UNL     1      -5.657  12.457  24.167  0.00  0.00    +0.000 C 
ATOM     33  C   UNL     1      -7.185  12.548  24.034  0.00  0.00    +0.000 C 
ATOM     34  O   UNL     1      -7.661  13.863  24.370  0.00  0.00    +0.000 OA
ATOM     35  C   UNL     1      -7.077  14.838  23.494  0.00  0.00    +0.000 C 
ATOM     36  C   UNL     1      -5.540  14.819  23.540  0.00  0.00    +0.000 C 
ENDBRANCH  28  31
ENDBRANCH   9  25
TORSDOF 4
ENDMDL
MODEL 2
REMARK VINA RESULT:      -8.4      1.073      1.361
REMARK  Name = 
REMARK  5 active torsions:
REMARK  status: ('A' for Active; 'I' for Inactive)
REMARK    1  A    between atoms: C_1  and  N_2
REMARK    2  A    between atoms: C_7  and  C_8
REMARK    3  A    between atoms: C_11  and  N_12
REMARK    4  A    between atoms: C_21  and  C_22
REMARK    5  A    between atoms: C_25  and  N_26
REMARK                            x       y       z     vdW  Elec       q    Type
REMARK                         _______ _______ _______ _____ _____    ______ ____
ROOT
ATOM      1  C   UNL     1       1.129  16.672  18.945  0.00  0.00    +0.000 C 
ATOM      2  N   UNL     1       1.387  15.247  18.899  0.00  0.00    +0.000 N 
ATOM      3  C   UNL     1       2.468  14.757  18.220  0.00  0.00    +0.000 A 
ATOM      4  N   UNL     1       2.782  13.510  18.155  0.00  0.00    +0.000 NA
ATOM      5  C   UNL     1       1.916  12.584  18.767  0.00  0.00    +0.000 A 
ATOM      6  C   UNL     1       2.205  11.242  18.601  0.00  0.00    +0.000 A 
ATOM      7  C   UNL     1       1.368  10.274  19.141  0.00  0.00    +0.000 A 
ATOM      8  N   UNL     1       0.219  10.623  19.774  0.00  0.00    +0.000 NA
ATOM      9  C   UNL     1      -0.086  11.953  19.937  0.00  0.00    +0.000 A 
ATOM     10  C   UNL     1       0.787  12.958  19.487  0.00  0.00    +0.000 A 
ATOM     11  C   UNL     1       0.636  14.416  19.720  0.00  0.00    +0.000 A 
ATOM     12  O   UNL     1      -0.062  14.867  20.621  0.00  0.00    +0.000 OA
ENDROOT
BRANCH   7  13
ATOM     13  C   UNL     1       1.680   8.836  18.992  0.00  0.00    +0.000 A 
ATOM     14  C   UNL     1       1.804   8.001  20.115  0.00  0.00    +0.000 A 
ATOM     15  C   UNL     1       2.245   6.674  20.010  0.00  0.00    +0.000 A 
ATOM     16  C   UNL     1       2.574   6.100  18.780  0.00  0.00    +0.000 A 
ATOM     17  C   UNL     1       2.371   6.912  17.652  0.00  0.00    +0.000 A 
ATOM     18  C   UNL     1       1.928   8.245  17.749  0.00  0.00    +0.000 A 
BRANCH  16  19
ATOM     19  N   UNL     1       3.066   4.815  18.677  0.00  0.00    +0.000 N 
ATOM     20  C   UNL     1       2.426   3.643  19.297  0.00  0.00    +0.000 C 
ATOM     21  C   UNL     1       3.379   2.977  20.300  0.00  0.00    +0.000 C 
ATOM     22  O   UNL     1       4.633   2.637  19.684  0.00  0.00    +0.000 OA
ATOM     23  C   UNL     1       5.270   3.820  19.175  0.00  0.00    +0.000 C 
ATOM     24  C   UNL     1       4.402   4.537  18.123  0.00  0.00    +0.000 C 
ENDBRANCH  16  19
ENDBRANCH   7  13
BRANCH   9  25
ATOM     25  C   UNL     1      -1.420  12.190  20.541  0.00  0.00    +0.000 A 
ATOM     26  C   UNL     1      -1.631  12.163  21.924  0.00  0.00    +0.000 A 
ATOM     27  C   UNL     1      -2.899  12.435  22.481  0.00  0.00    +0.000 A 
ATOM     28  C   UNL     1      -4.011  12.786  21.699  0.00  0.00    +0.000 A 
ATOM     29  C   UNL     1      -3.787  12.788  20.322  0.00  0.00    +0.000 A 
ATOM     30  C   UNL     1      -2.554  12.431  19.759  0.00  0.00    +0.000 A 
BRANCH  28  31
ATOM     31  N   UNL     1      -5.263  13.029  22.233  0.00  0.00    +0.000 N 
ATOM     32  C   UNL     1      -5.488  13.183  23.682  0.00  0.00    +0.000 C 
ATOM     33  C   UNL     1      -6.839  12.542  24.034  0.00  0.00    +0.000 C 
ATOM     34  O   UNL     1      -7.915  13.161  23.307  0.00  0.00    +0.000 OA
ATOM     35  C   UNL     1      -7.705  13.014  21.895  0.00  0.00    +0.000 C 
ATOM     36  C   UNL     1      -6.364  13.613  21.438  0.00  0.00    +0.000 C 
ENDBRANCH  28  31
ENDBRANCH   9  25
TORSDOF 4
ENDMDL
MODEL 3
REMARK VINA RESULT:      -8.3      0.609      1.013
REMARK  Name = 
REMARK  5 active torsions:
REMARK  status: ('A' for Active; 'I' for Inactive)
REMARK    1  A    between atoms: C_1  and  N_2
REMARK    2  A    between atoms: C_7  and  C_8
REMARK    3  A    between atoms: C_11  and  N_12
REMARK    4  A    between atoms: C_21  and  C_22
REMARK    5  A    between atoms: C_25  and  N_26
REMARK                            x       y       z     vdW  Elec       q    Type
REMARK                         _______ _______ _______ _____ _____    ______ ____
ROOT
ATOM      1  C   UNL     1       1.215  16.717  18.629  0.00  0.00    +0.000 C 
ATOM      2  N   UNL     1       1.426  15.284  18.676  0.00  0.00    +0.000 N 
ATOM      3  C   UNL     1       2.404  14.700  17.922  0.00  0.00    +0.000 A 
ATOM      4  N   UNL     1       2.674  13.441  17.930  0.00  0.00    +0.000 NA
ATOM      5  C   UNL     1       1.862  12.602  18.716  0.00  0.00    +0.000 A 
ATOM      6  C   UNL     1       2.092  11.240  18.634  0.00  0.00    +0.000 A 
ATOM      7  C   UNL     1       1.298  10.353  19.348  0.00  0.00    +0.000 A 
ATOM      8  N   UNL     1       0.242  10.796  20.077  0.00  0.00    +0.000 NA
ATOM      9  C   UNL     1      -0.004  12.145  20.159  0.00  0.00    +0.000 A 
ATOM     10  C   UNL     1       0.837  13.076  19.526  0.00  0.00    +0.000 A 
ATOM     11  C   UNL     1       0.755  14.553  19.648  0.00  0.00    +0.000 A 
ATOM     12  O   UNL     1       0.181  15.103  20.581  0.00  0.00    +0.000 OA
ENDROOT
BRANCH   7  13
ATOM     13  C   UNL     1       1.550   8.896  19.290  0.00  0.00    +0.000 A 
ATOM     14  C   UNL     1       1.408   8.089  20.430  0.00  0.00    +0.000 A 
ATOM     15  C   UNL     1       1.784   6.738  20.438  0.00  0.00    +0.000 A 
ATOM     16  C   UNL     1       2.311   6.112  19.305  0.00  0.00    +0.000 A 
ATOM     17  C   UNL     1       2.376   6.901  18.145  0.00  0.00    +0.000 A 
ATOM     18  C   UNL     1       1.999   8.258  18.129  0.00  0.00    +0.000 A 
BRANCH  16  19
ATOM     19  N   UNL     1       2.740   4.801  19.323  0.00  0.00    +0.000 N 
ATOM     20  C   UNL     1       4.116   4.387  19.001  0.00  0.00    +0.000 C 
ATOM     21  C   UNL     1       4.123   3.442  17.792  0.00  0.00    +0.000 C 
ATOM     22  O   UNL     1       3.262   2.310  18.004  0.00  0.00    +0.000 OA
ATOM     23  C   UNL     1       1.912   2.752  18.223  0.00  0.00    +0.000 C 
ATOM     24  C   UNL     1       1.797   3.677  19.449  0.00  0.00    +0.000 C 
ENDBRANCH  16  19
ENDBRANCH   7  13
BRANCH   9  25
ATOM     25  C   UNL     1      -1.251  12.482  20.891  0.00  0.00    +0.000 A 
ATOM     26  C   UNL     1      -2.457  12.742  20.234  0.00  0.00    +0.000 A 
ATOM     27  C   UNL     1      -3.642  13.018  20.950  0.00  0.00    +0.000 A 
ATOM     28  C   UNL     1      -3.698  13.010  22.353  0.00  0.00    +0.000 A 
ATOM     29  C   UNL     1      -2.482  12.769  22.990  0.00  0.00    +0.000 A 
ATOM     30  C   UNL     1      -1.285  12.584  22.285  0.00  0.00    +0.000 A 
BRANCH  28  31
ATOM     31  N   UNL     1      -4.848  13.304  23.063  0.00  0.00    +0.000 N 
ATOM     32  C   UNL     1      -5.308  12.482  24.197  0.00  0.00    +0.000 C 
ATOM     33  C   UNL     1      -6.843  12.426  24.164  0.00  0.00    +0.000 C 
ATOM     34  O   UNL     1      -7.415  13.743  24.255  0.00  0.00    +0.000 OA
ATOM     35  C   UNL     1      -6.973  14.550  23.153  0.00  0.00    +0.000 C 
ATOM     36  C   UNL     1      -5.441  14.657  23.086  0.00  0.00    +0.000 C 
ENDBRANCH  28  31
ENDBRANCH   9  25
TORSDOF 4
ENDMDL
MODEL 4
REMARK VINA RESULT:      -8.3      0.984      1.698
REMARK  Name = 
REMARK  5 active torsions:
REMARK  status: ('A' for Active; 'I' for Inactive)
REMARK    1  A    between atoms: C_1  and  N_2
REMARK    2  A    between atoms: C_7  and  C_8
REMARK    3  A    between atoms: C_11  and  N_12
REMARK    4  A    between atoms: C_21  and  C_22
REMARK    5  A    between atoms: C_25  and  N_26
REMARK                            x       y       z     vdW  Elec       q    Type
REMARK                         _______ _______ _______ _____ _____    ______ ____
ROOT
ATOM      1  C   UNL     1       0.914  16.798  18.693  0.00  0.00    +0.000 C 
ATOM      2  N   UNL     1       1.233  15.384  18.714  0.00  0.00    +0.000 N 
ATOM      3  C   UNL     1       2.345  14.912  18.075  0.00  0.00    +0.000 A 
ATOM      4  N   UNL     1       2.713  13.678  18.071  0.00  0.00    +0.000 NA
ATOM      5  C   UNL     1       1.877  12.743  18.710  0.00  0.00    +0.000 A 
ATOM      6  C   UNL     1       2.225  11.409  18.609  0.00  0.00    +0.000 A 
ATOM      7  C   UNL     1       1.420  10.431  19.177  0.00  0.00    +0.000 A 
ATOM      8  N   UNL     1       0.247  10.757  19.776  0.00  0.00    +0.000 NA
ATOM      9  C   UNL     1      -0.117  12.078  19.875  0.00  0.00    +0.000 A 
ATOM     10  C   UNL     1       0.720  13.099  19.394  0.00  0.00    +0.000 A 
ATOM     11  C   UNL     1       0.503  14.558  19.560  0.00  0.00    +0.000 A 
ATOM     12  O   UNL     1      -0.229  15.018  20.428  0.00  0.00    +0.000 OA
ENDROOT
BRANCH   7  13
ATOM     13  C   UNL     1       1.795   9.002  19.098  0.00  0.00    +0.000 A 
ATOM     14  C   UNL     1       2.240   8.434  17.893  0.00  0.00    +0.000 A 
ATOM     15  C   UNL     1       2.458   7.055  17.755  0.00  0.00    +0.000 A 
ATOM     16  C   UNL     1       2.257   6.167  18.814  0.00  0.00    +0.000 A 
ATOM     17  C   UNL     1       1.891   6.748  20.039  0.00  0.00    +0.000 A 
ATOM     18  C   UNL     1       1.671   8.131  20.186  0.00  0.00    +0.000 A 
BRANCH  16  19
ATOM     19  N   UNL     1       2.410   4.804  18.668  0.00  0.00    +0.000 N 
ATOM     20  C   UNL     1       1.284   3.862  18.552  0.00  0.00    +0.000 C 
ATOM     21  C   UNL     1       1.311   2.847  19.703  0.00  0.00    +0.000 C 
ATOM     22  O   UNL     1       2.574   2.162  19.768  0.00  0.00    +0.000 OA
ATOM     23  C   UNL     1       3.637   3.106  19.975  0.00  0.00    +0.000 C 
ATOM     24  C   UNL     1       3.717   4.146  18.842  0.00  0.00    +0.000 C 
ENDBRANCH  16  19
ENDBRANCH   7  13
BRANCH   9  25
ATOM     25  C   UNL     1      -1.471  12.284  20.447  0.00  0.00    +0.000 A 
ATOM     26  C   UNL     1      -2.601  12.477  19.645  0.00  0.00    +0.000 A 
ATOM     27  C   UNL     1      -3.886  12.628  20.207  0.00  0.00    +0.000 A 
ATOM     28  C   UNL     1      -4.122  12.555  21.589  0.00  0.00    +0.000 A 
ATOM     29  C   UNL     1      -2.982  12.383  22.374  0.00  0.00    +0.000 A 
ATOM     30  C   UNL     1      -1.693  12.324  21.827  0.00  0.00    +0.000 A 
BRANCH  28  31
ATOM     31  N   UNL     1      -5.374  12.727  22.151  0.00  0.00    +0.000 N 
ATOM     32  C   UNL     1      -5.588  13.519  23.376  0.00  0.00    +0.000 C 
ATOM     33  C   UNL     1      -6.686  12.838  24.208  0.00  0.00    +0.000 C 
ATOM     34  O   UNL     1      -7.917  12.743  23.470  0.00  0.00    +0.000 OA
ATOM     35  C   UNL     1      -7.718  11.971  22.275  0.00  0.00    +0.000 C 
ATOM     36  C   UNL     1      -6.620  12.563  21.374  0.00  0.00    +0.000 C 
ENDBRANCH  28  31
ENDBRANCH   9  25
TORSDOF 4
ENDMDL
MODEL 5
REMARK VINA RESULT:      -8.2      0.880      1.400
REMARK  Name = 
REMARK  5 active torsions:
REMARK  status: ('A' for Active; 'I' for Inactive)
REMARK    1  A    between atoms: C_1  and  N_2
REMARK    2  A    between atoms: C_7  and  C_8
REMARK    3  A    between atoms: C_11  and  N_12
REMARK    4  A    between atoms: C_21  and  C_22
REMARK    5  A    between atoms: C_25  and  N_26
REMARK                            x       y       z     vdW  Elec       q    Type
REMARK                         _______ _______ _______ _____ _____    ______ ____
ROOT
ATOM      1  C   UNL     1       0.891  16.588  18.673  0.00  0.00    +0.000 C 
ATOM      2  N   UNL     1       1.194  15.172  18.722  0.00  0.00    +0.000 N 
ATOM      3  C   UNL     1       2.262  14.665  18.038  0.00  0.00    +0.000 A 
ATOM      4  N   UNL     1       2.615  13.426  18.054  0.00  0.00    +0.000 NA
ATOM      5  C   UNL     1       1.805  12.524  18.769  0.00  0.00    +0.000 A 
ATOM      6  C   UNL     1       2.131  11.182  18.692  0.00  0.00    +0.000 A 
ATOM      7  C   UNL     1       1.347  10.234  19.336  0.00  0.00    +0.000 A 
ATOM      8  N   UNL     1       0.213  10.595  19.988  0.00  0.00    +0.000 NA
ATOM      9  C   UNL     1      -0.129  11.924  20.064  0.00  0.00    +0.000 A 
ATOM     10  C   UNL     1       0.693  12.917  19.505  0.00  0.00    +0.000 A 
ATOM     11  C   UNL     1       0.503  14.384  19.634  0.00  0.00    +0.000 A 
ATOM     12  O   UNL     1      -0.174  14.881  20.526  0.00  0.00    +0.000 OA
ENDROOT
BRANCH   7  13
ATOM     13  C   UNL     1       1.700   8.798  19.283  0.00  0.00    +0.000 A 
ATOM     14  C   UNL     1       2.114   8.196  18.083  0.00  0.00    +0.000 A 
ATOM     15  C   UNL     1       2.309   6.812  17.973  0.00  0.00    +0.000 A 
ATOM     16  C   UNL     1       2.116   5.951  19.055  0.00  0.00    +0.000 A 
ATOM     17  C   UNL     1       1.781   6.565  20.273  0.00  0.00    +0.000 A 
ATOM     18  C   UNL     1       1.584   7.954  20.392  0.00  0.00    +0.000 A 
BRANCH  16  19
ATOM     19  N   UNL     1       2.247   4.583  18.938  0.00  0.00    +0.000 N 
ATOM     20  C   UNL     1       2.888   3.733  19.956  0.00  0.00    +0.000 C 
ATOM     21  C   UNL     1       4.104   3.008  19.363  0.00  0.00    +0.000 C 
ATOM     22  O   UNL     1       3.747   2.258  18.189  0.00  0.00    +0.000 OA
ATOM     23  C   UNL     1       3.212   3.136  17.186  0.00  0.00    +0.000 C 
ATOM     24  C   UNL     1       1.956   3.880  17.677  0.00  0.00    +0.000 C 
ENDBRANCH  16  19
ENDBRANCH   7  13
BRANCH   9  25
ATOM     25  C   UNL     1      -1.446  12.167  20.703  0.00  0.00    +0.000 A 
ATOM     26  C   UNL     1      -1.600  12.253  22.091  0.00  0.00    +0.000 A 
ATOM     27  C   UNL     1      -2.853  12.528  22.677  0.00  0.00    +0.000 A 
ATOM     28  C   UNL     1      -4.008  12.771  21.918  0.00  0.00    +0.000 A 
ATOM     29  C   UNL     1      -3.841  12.660  20.538  0.00  0.00    +0.000 A 
ATOM     30  C   UNL     1      -2.619  12.299  19.954  0.00  0.00    +0.000 A 
BRANCH  28  31
ATOM     31  N   UNL     1      -5.246  13.016  22.483  0.00  0.00    +0.000 N 
ATOM     32  C   UNL     1      -5.513  12.812  23.919  0.00  0.00    +0.000 C 
ATOM     33  C   UNL     1      -6.943  12.270  24.074  0.00  0.00    +0.000 C 
ATOM     34  O   UNL     1      -7.909  13.183  23.524  0.00  0.00    +0.000 OA
ATOM     35  C   UNL     1      -7.657  13.386  22.126  0.00  0.00    +0.000 C 
ATOM     36  C   UNL     1      -6.238  13.916  21.859  0.00  0.00    +0.000 C 
ENDBRANCH  28  31
ENDBRANCH   9  25
TORSDOF 4
ENDMDL
MODEL 6
REMARK VINA RESULT:      -8.0      0.623      1.276
REMARK  Name = 
REMARK  5 active torsions:
REMARK  status: ('A' for Active; 'I' for Inactive)
REMARK    1  A    between atoms: C_1  and  N_2
REMARK    2  A    between atoms: C_7  and  C_8
REMARK    3  A    between atoms: C_11  and  N_12
REMARK    4  A    between atoms: C_21  and  C_22
REMARK    5  A    between atoms: C_25  and  N_26
REMARK                            x       y       z     vdW  Elec       q    Type
REMARK                         _______ _______ _______ _____ _____    ______ ____
ROOT
ATOM      1  C   UNL     1       1.289  16.786  18.762  0.00  0.00    +0.000 C 
ATOM      2  N   UNL     1       1.488  15.351  18.805  0.00  0.00    +0.000 N 
ATOM      3  C   UNL     1       2.547  14.776  18.161  0.00  0.00    +0.000 A 
ATOM      4  N   UNL     1       2.810  13.515  18.177  0.00  0.00    +0.000 NA
ATOM      5  C   UNL     1       1.908  12.666  18.843  0.00  0.00    +0.000 A 
ATOM      6  C   UNL     1       2.142  11.305  18.763  0.00  0.00    +0.000 A 
ATOM      7  C   UNL     1       1.265  10.409  19.360  0.00  0.00    +0.000 A 
ATOM      8  N   UNL     1       0.132  10.843  19.967  0.00  0.00    +0.000 NA
ATOM      9  C   UNL     1      -0.118  12.192  20.045  0.00  0.00    +0.000 A 
ATOM     10  C   UNL     1       0.795  13.130  19.535  0.00  0.00    +0.000 A 
ATOM     11  C   UNL     1       0.704  14.605  19.676  0.00  0.00    +0.000 A 
ATOM     12  O   UNL     1       0.025  15.140  20.545  0.00  0.00    +0.000 OA
ENDROOT
BRANCH   7  13
ATOM     13  C   UNL     1       1.518   8.952  19.303  0.00  0.00    +0.000 A 
ATOM     14  C   UNL     1       1.430   8.154  20.456  0.00  0.00    +0.000 A 
ATOM     15  C   UNL     1       1.809   6.804  20.459  0.00  0.00    +0.000 A 
ATOM     16  C   UNL     1       2.286   6.170  19.310  0.00  0.00    +0.000 A 
ATOM     17  C   UNL     1       2.297   6.948  18.141  0.00  0.00    +0.000 A 
ATOM     18  C   UNL     1       1.917   8.304  18.130  0.00  0.00    +0.000 A 
BRANCH  16  19
ATOM     19  N   UNL     1       2.719   4.860  19.320  0.00  0.00    +0.000 N 
ATOM     20  C   UNL     1       3.451   4.232  18.207  0.00  0.00    +0.000 C 
ATOM     21  C   UNL     1       2.664   3.036  17.653  0.00  0.00    +0.000 C 
ATOM     22  O   UNL     1       2.352   2.088  18.688  0.00  0.00    +0.000 OA
ATOM     23  C   UNL     1       1.558   2.716  19.709  0.00  0.00    +0.000 C 
ATOM     24  C   UNL     1       2.287   3.908  20.358  0.00  0.00    +0.000 C 
ENDBRANCH  16  19
ENDBRANCH   7  13
BRANCH   9  25
ATOM     25  C   UNL     1      -1.442  12.521  20.630  0.00  0.00    +0.000 A 
ATOM     26  C   UNL     1      -2.547  12.854  19.840  0.00  0.00    +0.000 A 
ATOM     27  C   UNL     1      -3.809  13.121  20.414  0.00  0.00    +0.000 A 
ATOM     28  C   UNL     1      -4.047  13.034  21.795  0.00  0.00    +0.000 A 
ATOM     29  C   UNL     1      -2.929  12.722  22.568  0.00  0.00    +0.000 A 
ATOM     30  C   UNL     1      -1.655  12.544  22.012  0.00  0.00    +0.000 A 
BRANCH  28  31
ATOM     31  N   UNL     1      -5.273  13.319  22.368  0.00  0.00    +0.000 N 
ATOM     32  C   UNL     1      -5.816  14.688  22.432  0.00  0.00    +0.000 C 
ATOM     33  C   UNL     1      -6.561  14.853  23.766  0.00  0.00    +0.000 C 
ATOM     34  O   UNL     1      -7.630  13.899  23.888  0.00  0.00    +0.000 OA
ATOM     35  C   UNL     1      -7.110  12.563  23.829  0.00  0.00    +0.000 C 
ATOM     36  C   UNL     1      -6.328  12.297  22.531  0.00  0.00    +0.000 C 
ENDBRANCH  28  31
ENDBRANCH   9  25
TORSDOF 4
ENDMDL
MODEL 7
REMARK VINA RESULT:      -7.6      2.818      6.811
REMARK  Name = 
REMARK  5 active torsions:
REMARK  status: ('A' for Active; 'I' for Inactive)
REMARK    1  A    between atoms: C_1  and  N_2
REMARK    2  A    between atoms: C_7  and  C_8
REMARK    3  A    between atoms: C_11  and  N_12
REMARK    4  A    between atoms: C_21  and  C_22
REMARK    5  A    between atoms: C_25  and  N_26
REMARK                            x       y       z     vdW  Elec       q    Type
REMARK                         _______ _______ _______ _____ _____    ______ ____
ROOT
ATOM      1  C   UNL     1      -2.675  15.416  20.699  0.00  0.00    +0.000 C 
ATOM      2  N   UNL     1      -2.051  14.124  20.494  0.00  0.00    +0.000 N 
ATOM      3  C   UNL     1      -2.767  12.972  20.659  0.00  0.00    +0.000 A 
ATOM      4  N   UNL     1      -2.295  11.789  20.467  0.00  0.00    +0.000 NA
ATOM      5  C   UNL     1      -0.933  11.673  20.132  0.00  0.00    +0.000 A 
ATOM      6  C   UNL     1      -0.412  10.396  20.034  0.00  0.00    +0.000 A 
ATOM      7  C   UNL     1       0.935  10.211  19.751  0.00  0.00    +0.000 A 
ATOM      8  N   UNL     1       1.774  11.271  19.638  0.00  0.00    +0.000 NA
ATOM      9  C   UNL     1       1.272  12.545  19.744  0.00  0.00    +0.000 A 
ATOM     10  C   UNL     1      -0.102  12.770  19.935  0.00  0.00    +0.000 A 
ATOM     11  C   UNL     1      -0.781  14.090  19.932  0.00  0.00    +0.000 A 
ATOM     12  O   UNL     1      -0.283  15.083  19.415  0.00  0.00    +0.000 OA
ENDROOT
BRANCH   7  13
ATOM     13  C   UNL     1       1.499   8.850  19.617  0.00  0.00    +0.000 A 
ATOM     14  C   UNL     1       2.077   8.419  18.411  0.00  0.00    +0.000 A 
ATOM     15  C   UNL     1       2.482   7.091  18.212  0.00  0.00    +0.000 A 
ATOM     16  C   UNL     1       2.345   6.121  19.207  0.00  0.00    +0.000 A 
ATOM     17  C   UNL     1       1.842   6.573  20.438  0.00  0.00    +0.000 A 
ATOM     18  C   UNL     1       1.434   7.905  20.646  0.00  0.00    +0.000 A 
BRANCH  16  19
ATOM     19  N   UNL     1       2.685   4.800  18.997  0.00  0.00    +0.000 N 
ATOM     20  C   UNL     1       2.108   3.678  19.756  0.00  0.00    +0.000 C 
ATOM     21  C   UNL     1       3.209   2.916  20.508  0.00  0.00    +0.000 C 
ATOM     22  O   UNL     1       4.248   2.479  19.616  0.00  0.00    +0.000 OA
ATOM     23  C   UNL     1       4.848   3.611  18.965  0.00  0.00    +0.000 C 
ATOM     24  C   UNL     1       3.823   4.417  18.145  0.00  0.00    +0.000 C 
ENDBRANCH  16  19
ENDBRANCH   7  13
BRANCH   9  25
ATOM     25  C   UNL     1       2.313  13.603  19.716  0.00  0.00    +0.000 A 
ATOM     26  C   UNL     1       2.900  14.044  18.526  0.00  0.00    +0.000 A 
ATOM     27  C   UNL     1       3.857  15.082  18.517  0.00  0.00    +0.000 A 
ATOM     28  C   UNL     1       4.250  15.760  19.681  0.00  0.00    +0.000 A 
ATOM     29  C   UNL     1       3.670  15.293  20.860  0.00  0.00    +0.000 A 
ATOM     30  C   UNL     1       2.788  14.204  20.886  0.00  0.00    +0.000 A 
BRANCH  28  31
ATOM     31  N   UNL     1       5.205  16.760  19.686  0.00  0.00    +0.000 N 
ATOM     32  C   UNL     1       6.194  16.913  18.603  0.00  0.00    +0.000 C 
ATOM     33  C   UNL     1       7.527  17.363  19.224  0.00  0.00    +0.000 C 
ATOM     34  O   UNL     1       7.380  18.608  19.928  0.00  0.00    +0.000 OA
ATOM     35  C   UNL     1       6.419  18.467  20.985  0.00  0.00    +0.000 C 
ATOM     36  C   UNL     1       5.047  18.003  20.469  0.00  0.00    +0.000 C 
ENDBRANCH  28  31
ENDBRANCH   9  25
TORSDOF 4
ENDMDL
MODEL 8
REMARK VINA RESULT:      -7.5      8.205      9.467
REMARK  Name = 
REMARK  5 active torsions:
REMARK  status: ('A' for Active; 'I' for Inactive)
REMARK    1  A    between atoms: C_1  and  N_2
REMARK    2  A    between atoms: C_7  and  C_8
REMARK    3  A    between atoms: C_11  and  N_12
REMARK    4  A    between atoms: C_21  and  C_22
REMARK    5  A    between atoms: C_25  and  N_26
REMARK                            x       y       z     vdW  Elec       q    Type
REMARK                         _______ _______ _______ _____ _____    ______ ____
ROOT
ATOM      1  C   UNL     1      11.797  15.991  18.804  0.00  0.00    +0.000 C 
ATOM      2  N   UNL     1      11.282  14.652  18.601  0.00  0.00    +0.000 N 
ATOM      3  C   UNL     1      11.474  14.006  17.412  0.00  0.00    +0.000 A 
ATOM      4  N   UNL     1      11.074  12.807  17.164  0.00  0.00    +0.000 NA
ATOM      5  C   UNL     1      10.332  12.144  18.159  0.00  0.00    +0.000 A 
ATOM      6  C   UNL     1       9.818  10.900  17.842  0.00  0.00    +0.000 A 
ATOM      7  C   UNL     1       9.038  10.211  18.762  0.00  0.00    +0.000 A 
ATOM      8  N   UNL     1       8.709  10.771  19.953  0.00  0.00    +0.000 NA
ATOM      9  C   UNL     1       9.204  12.011  20.277  0.00  0.00    +0.000 A 
ATOM     10  C   UNL     1      10.073  12.695  19.409  0.00  0.00    +0.000 A 
ATOM     11  C   UNL     1      10.775  13.969  19.700  0.00  0.00    +0.000 A 
ATOM     12  O   UNL     1      10.953  14.374  20.843  0.00  0.00    +0.000 OA
ENDROOT
BRANCH   7  13
ATOM     13  C   UNL     1       8.504   8.868  18.445  0.00  0.00    +0.000 A 
ATOM     14  C   UNL     1       7.667   8.663  17.336  0.00  0.00    +0.000 A 
ATOM     15  C   UNL     1       7.029   7.437  17.101  0.00  0.00    +0.000 A 
ATOM     16  C   UNL     1       7.199   6.341  17.950  0.00  0.00    +0.000 A 
ATOM     17  C   UNL     1       8.100   6.525  19.012  0.00  0.00    +0.000 A 
ATOM     18  C   UNL     1       8.745   7.753  19.254  0.00  0.00    +0.000 A 
BRANCH  16  19
ATOM     19  N   UNL     1       6.528   5.152  17.759  0.00  0.00    +0.000 N 
ATOM     20  C   UNL     1       6.474   4.442  16.469  0.00  0.00    +0.000 C 
ATOM     21  C   UNL     1       5.023   4.314  15.986  0.00  0.00    +0.000 C 
ATOM     22  O   UNL     1       4.194   3.682  16.977  0.00  0.00    +0.000 OA
ATOM     23  C   UNL     1       4.199   4.455  18.189  0.00  0.00    +0.000 C 
ATOM     24  C   UNL     1       5.616   4.603  18.776  0.00  0.00    +0.000 C 
ENDBRANCH  16  19
ENDBRANCH   7  13
BRANCH   9  25
ATOM     25  C   UNL     1       8.674  12.553  21.553  0.00  0.00    +0.000 A 
ATOM     26  C   UNL     1       8.964  11.971  22.791  0.00  0.00    +0.000 A 
ATOM     27  C   UNL     1       8.486  12.527  23.997  0.00  0.00    +0.000 A 
ATOM     28  C   UNL     1       7.730  13.708  24.039  0.00  0.00    +0.000 A 
ATOM     29  C   UNL     1       7.432  14.263  22.794  0.00  0.00    +0.000 A 
ATOM     30  C   UNL     1       7.828  13.666  21.589  0.00  0.00    +0.000 A 
BRANCH  28  31
ATOM     31  N   UNL     1       7.235  14.247  25.212  0.00  0.00    +0.000 N 
ATOM     32  C   UNL     1       7.818  15.447  25.839  0.00  0.00    +0.000 C 
ATOM     33  C   UNL     1       7.763  15.274  27.365  0.00  0.00    +0.000 C 
ATOM     34  O   UNL     1       6.411  15.095  27.821  0.00  0.00    +0.000 OA
ATOM     35  C   UNL     1       5.836  13.926  27.217  0.00  0.00    +0.000 C 
ATOM     36  C   UNL     1       5.856  13.993  25.681  0.00  0.00    +0.000 C 
ENDBRANCH  28  31
ENDBRANCH   9  25
TORSDOF 4
ENDMDL
MODEL 9
REMARK VINA RESULT:      -7.5      2.899      6.792
REMARK  Name = 
REMARK  5 active torsions:
REMARK  status: ('A' for Active; 'I' for Inactive)
REMARK    1  A    between atoms: C_1  and  N_2
REMARK    2  A    between atoms: C_7  and  C_8
REMARK    3  A    between atoms: C_11  and  N_12
REMARK    4  A    between atoms: C_21  and  C_22
REMARK    5  A    between atoms: C_25  and  N_26
REMARK                            x       y       z     vdW  Elec       q    Type
REMARK                         _______ _______ _______ _____ _____    ______ ____
ROOT
ATOM      1  C   UNL     1      -2.394  15.286  20.748  0.00  0.00    +0.000 C 
ATOM      2  N   UNL     1      -1.810  14.003  20.410  0.00  0.00    +0.000 N 
ATOM      3  C   UNL     1      -2.568  12.866  20.435  0.00  0.00    +0.000 A 
ATOM      4  N   UNL     1      -2.133  11.696  20.120  0.00  0.00    +0.000 NA
ATOM      5  C   UNL     1      -0.770  11.569  19.794  0.00  0.00    +0.000 A 
ATOM      6  C   UNL     1      -0.290  10.293  19.562  0.00  0.00    +0.000 A 
ATOM      7  C   UNL     1       1.055  10.092  19.280  0.00  0.00    +0.000 A 
ATOM      8  N   UNL     1       1.932  11.128  19.298  0.00  0.00    +0.000 NA
ATOM      9  C   UNL     1       1.471  12.400  19.538  0.00  0.00    +0.000 A 
ATOM     10  C   UNL     1       0.102  12.650  19.733  0.00  0.00    +0.000 A 
ATOM     11  C   UNL     1      -0.532  13.986  19.866  0.00  0.00    +0.000 A 
ATOM     12  O   UNL     1       0.009  15.011  19.470  0.00  0.00    +0.000 OA
ENDROOT
BRANCH   7  13
ATOM     13  C   UNL     1       1.575   8.735  19.004  0.00  0.00    +0.000 A 
ATOM     14  C   UNL     1       1.680   7.776  20.025  0.00  0.00    +0.000 A 
ATOM     15  C   UNL     1       2.307   6.538  19.823  0.00  0.00    +0.000 A 
ATOM     16  C   UNL     1       2.853   6.181  18.588  0.00  0.00    +0.000 A 
ATOM     17  C   UNL     1       2.675   7.108  17.548  0.00  0.00    +0.000 A 
ATOM     18  C   UNL     1       2.045   8.353  17.743  0.00  0.00    +0.000 A 
BRANCH  16  19
ATOM     19  N   UNL     1       3.524   4.990  18.399  0.00  0.00    +0.000 N 
ATOM     20  C   UNL     1       3.184   4.019  17.345  0.00  0.00    +0.000 C 
ATOM     21  C   UNL     1       2.787   2.672  17.964  0.00  0.00    +0.000 C 
ATOM     22  O   UNL     1       3.814   2.173  18.838  0.00  0.00    +0.000 OA
ATOM     23  C   UNL     1       4.051   3.106  19.904  0.00  0.00    +0.000 C 
ATOM     24  C   UNL     1       4.498   4.484  19.379  0.00  0.00    +0.000 C 
ENDBRANCH  16  19
ENDBRANCH   7  13
BRANCH   9  25
ATOM     25  C   UNL     1       2.547  13.416  19.643  0.00  0.00    +0.000 A 
ATOM     26  C   UNL     1       3.049  13.850  20.874  0.00  0.00    +0.000 A 
ATOM     27  C   UNL     1       4.103  14.785  20.951  0.00  0.00    +0.000 A 
ATOM     28  C   UNL     1       4.739  15.306  19.814  0.00  0.00    +0.000 A 
ATOM     29  C   UNL     1       4.212  14.878  18.596  0.00  0.00    +0.000 A 
ATOM     30  C   UNL     1       3.107  14.020  18.513  0.00  0.00    +0.000 A 
BRANCH  28  31
ATOM     31  N   UNL     1       5.755  16.242  19.879  0.00  0.00    +0.000 N 
ATOM     32  C   UNL     1       5.987  17.074  21.074  0.00  0.00    +0.000 C 
ATOM     33  C   UNL     1       6.426  18.473  20.613  0.00  0.00    +0.000 C 
ATOM     34  O   UNL     1       7.627  18.409  19.824  0.00  0.00    +0.000 OA
ATOM     35  C   UNL     1       7.409  17.602  18.657  0.00  0.00    +0.000 C 
ATOM     36  C   UNL     1       6.948  16.178  19.010  0.00  0.00    +0.000 C 
ENDBRANCH  28  31
ENDBRANCH   9  25
TORSDOF 4
ENDMDL
