MODEL 1
REMARK VINA RESULT:      -7.5      0.000      0.000
REMARK  Name = 
REMARK  10 active torsions:
REMARK  status: ('A' for Active; 'I' for Inactive)
REMARK    1  A    between atoms: C_1  and  N_2
REMARK    2  A    between atoms: N_2  and  C_3
REMARK    3  A    between atoms: N_2  and  C_4
REMARK    4  A    between atoms: C_4  and  C_5
REMARK    5  A    between atoms: C_5  and  C_6
REMARK    6  A    between atoms: C_6  and  N_7
REMARK    7  A    between atoms: C_12  and  C_13
REMARK    8  A    between atoms: C_17  and  C_18
REMARK    9  A    between atoms: C_19  and  C_20
REMARK   10  A    between atoms: C_20  and  O_22
REMARK                            x       y       z     vdW  Elec       q    Type
REMARK                         _______ _______ _______ _____ _____    ______ ____
ROOT
ATOM      1  N   UNL     1       6.658   4.375  18.554  0.00  0.00    +0.000 N 
ATOM      2  C   UNL     1       5.327   4.425  19.017  0.00  0.00    +0.000 A 
ATOM      3  C   UNL     1       4.696   3.242  19.419  0.00  0.00    +0.000 A 
ATOM      4  N   UNL     1       3.423   3.177  19.869  0.00  0.00    +0.000 NA
ATOM      5  C   UNL     1       2.763   4.356  19.847  0.00  0.00    +0.000 A 
ATOM      6  C   UNL     1       3.334   5.548  19.404  0.00  0.00    +0.000 A 
ATOM      7  N   UNL     1       4.630   5.583  18.989  0.00  0.00    +0.000 NA
ATOM      8  H   UNL     1       7.158   3.648  19.059  0.00  0.00    +0.000 HD
ENDROOT
BRANCH   6   9
ATOM      9  C   UNL     1       2.560   6.797  19.274  0.00  0.00    +0.000 A 
ATOM     10  C   UNL     1       2.572   7.558  18.093  0.00  0.00    +0.000 A 
ATOM     11  C   UNL     1       1.937   8.799  18.028  0.00  0.00    +0.000 A 
ATOM     12  C   UNL     1       1.263   9.298  19.140  0.00  0.00    +0.000 A 
ATOM     13  C   UNL     1       1.185   8.550  20.320  0.00  0.00    +0.000 A 
ATOM     14  C   UNL     1       1.834   7.305  20.372  0.00  0.00    +0.000 A 
BRANCH  13  15
ATOM     15  C   UNL     1       0.512   9.136  21.488  0.00  0.00    +0.000 C 
ATOM     16  C   UNL     1       0.087  10.407  21.560  0.00  0.00    +0.000 C 
BRANCH  16  17
ATOM     17  C   UNL     1      -0.592  10.873  22.785  0.00  0.00    +0.000 C 
ATOM     18  O   UNL     1      -0.700  12.036  23.122  0.00  0.00    +0.000 OA
BRANCH  17  19
ATOM     19  O   UNL     1      -1.089   9.846  23.507  0.00  0.00    +0.000 OA
ATOM     20  H   UNL     1      -1.604   9.191  23.002  0.00  0.00    +0.000 HD
ENDBRANCH  17  19
ENDBRANCH  16  17
ENDBRANCH  13  15
ENDBRANCH   6   9
BRANCH   1  21
ATOM     21  C   UNL     1       7.358   5.659  18.690  0.00  0.00    +0.000 C 
BRANCH  21  22
ATOM     22  C   UNL     1       7.314   6.381  17.342  0.00  0.00    +0.000 C 
BRANCH  22  23
ATOM     23  C   UNL     1       7.312   5.418  16.147  0.00  0.00    +0.000 C 
BRANCH  23  25
ATOM     24  C   UNL     1       5.383   4.222  15.257  0.00  0.00    +0.000 C 
ATOM     25  N   UNL     1       6.104   5.496  15.310  0.00  0.00    +0.000 NA
ATOM     26  C   UNL     1       5.206   6.544  15.806  0.00  0.00    +0.000 C 
ENDBRANCH  23  25
ENDBRANCH  22  23
ENDBRANCH  21  22
ENDBRANCH   1  21
TORSDOF 8
ENDMDL
MODEL 2
REMARK VINA RESULT:      -7.3      1.452      3.443
REMARK  Name = 
REMARK  10 active torsions:
REMARK  status: ('A' for Active; 'I' for Inactive)
REMARK    1  A    between atoms: C_1  and  N_2
REMARK    2  A    between atoms: N_2  and  C_3
REMARK    3  A    between atoms: N_2  and  C_4
REMARK    4  A    between atoms: C_4  and  C_5
REMARK    5  A    between atoms: C_5  and  C_6
REMARK    6  A    between atoms: C_6  and  N_7
REMARK    7  A    between atoms: C_12  and  C_13
REMARK    8  A    between atoms: C_17  and  C_18
REMARK    9  A    between atoms: C_19  and  C_20
REMARK   10  A    between atoms: C_20  and  O_22
REMARK                            x       y       z     vdW  Elec       q    Type
REMARK                         _______ _______ _______ _____ _____    ______ ____
ROOT
ATOM      1  N   UNL     1       5.531   3.423  19.329  0.00  0.00    +0.000 N 
ATOM      2  C   UNL     1       5.312   4.561  18.525  0.00  0.00    +0.000 A 
ATOM      3  C   UNL     1       6.249   4.895  17.541  0.00  0.00    +0.000 A 
ATOM      4  N   UNL     1       6.140   5.967  16.723  0.00  0.00    +0.000 NA
ATOM      5  C   UNL     1       5.065   6.748  16.968  0.00  0.00    +0.000 A 
ATOM      6  C   UNL     1       4.136   6.483  17.974  0.00  0.00    +0.000 A 
ATOM      7  N   UNL     1       4.258   5.376  18.757  0.00  0.00    +0.000 NA
ATOM      8  H   UNL     1       6.003   2.712  18.777  0.00  0.00    +0.000 HD
ENDROOT
BRANCH   6   9
ATOM      9  C   UNL     1       3.039   7.413  18.304  0.00  0.00    +0.000 A 
ATOM     10  C   UNL     1       2.561   8.355  17.377  0.00  0.00    +0.000 A 
ATOM     11  C   UNL     1       1.612   9.309  17.743  0.00  0.00    +0.000 A 
ATOM     12  C   UNL     1       1.109   9.333  19.042  0.00  0.00    +0.000 A 
ATOM     13  C   UNL     1       1.522   8.382  19.981  0.00  0.00    +0.000 A 
ATOM     14  C   UNL     1       2.482   7.431  19.600  0.00  0.00    +0.000 A 
BRANCH  13  15
ATOM     15  C   UNL     1       1.010   8.476  21.357  0.00  0.00    +0.000 C 
ATOM     16  C   UNL     1       0.581   9.610  21.931  0.00  0.00    +0.000 C 
BRANCH  16  17
ATOM     17  C   UNL     1       0.072   9.571  23.316  0.00  0.00    +0.000 C 
ATOM     18  O   UNL     1       0.755   9.384  24.304  0.00  0.00    +0.000 OA
BRANCH  17  19
ATOM     19  O   UNL     1      -1.263   9.767  23.368  0.00  0.00    +0.000 OA
ATOM     20  H   UNL     1      -1.544  10.680  23.557  0.00  0.00    +0.000 HD
ENDBRANCH  17  19
ENDBRANCH  16  17
ENDBRANCH  13  15
ENDBRANCH   6   9
BRANCH   1  21
ATOM     21  C   UNL     1       4.293   2.881  19.902  0.00  0.00    +0.000 C 
BRANCH  21  22
ATOM     22  C   UNL     1       3.706   1.866  18.919  0.00  0.00    +0.000 C 
BRANCH  22  23
ATOM     23  C   UNL     1       2.204   2.066  18.679  0.00  0.00    +0.000 C 
BRANCH  23  25
ATOM     24  C   UNL     1       1.279   4.109  17.721  0.00  0.00    +0.000 C 
ATOM     25  N   UNL     1       1.727   3.434  18.942  0.00  0.00    +0.000 NA
ATOM     26  C   UNL     1       0.634   3.415  19.919  0.00  0.00    +0.000 C 
ENDBRANCH  23  25
ENDBRANCH  22  23
ENDBRANCH  21  22
ENDBRANCH   1  21
TORSDOF 8
ENDMDL
MODEL 3
REMARK VINA RESULT:      -7.2      4.986      8.109
REMARK  Name = 
REMARK  10 active torsions:
REMARK  status: ('A' for Active; 'I' for Inactive)
REMARK    1  A    between atoms: C_1  and  N_2
REMARK    2  A    between atoms: N_2  and  C_3
REMARK    3  A    between atoms: N_2  and  C_4
REMARK    4  A    between atoms: C_4  and  C_5
REMARK    5  A    between atoms: C_5  and  C_6
REMARK    6  A    between atoms: C_6  and  N_7
REMARK    7  A    between atoms: C_12  and  C_13
REMARK    8  A    between atoms: C_17  and  C_18
REMARK    9  A    between atoms: C_19  and  C_20
REMARK   10  A    between atoms: C_20  and  O_22
REMARK                            x       y       z     vdW  Elec       q    Type
REMARK                         _______ _______ _______ _____ _____    ______ ____
ROOT
ATOM      1  N   UNL     1       1.613   5.441  20.783  0.00  0.00    +0.000 N 
ATOM      2  C   UNL     1       2.237   6.248  19.809  0.00  0.00    +0.000 A 
ATOM      3  C   UNL     1       1.684   7.495  19.496  0.00  0.00    +0.000 A 
ATOM      4  N   UNL     1       2.196   8.341  18.574  0.00  0.00    +0.000 NA
ATOM      5  C   UNL     1       3.275   7.863  17.915  0.00  0.00    +0.000 A 
ATOM      6  C   UNL     1       3.826   6.605  18.157  0.00  0.00    +0.000 A 
ATOM      7  N   UNL     1       3.305   5.792  19.117  0.00  0.00    +0.000 NA
ATOM      8  H   UNL     1       1.203   6.038  21.496  0.00  0.00    +0.000 HD
ENDROOT
BRANCH   6   9
ATOM      9  C   UNL     1       4.926   6.053  17.343  0.00  0.00    +0.000 A 
ATOM     10  C   UNL     1       6.273   6.342  17.624  0.00  0.00    +0.000 A 
ATOM     11  C   UNL     1       7.294   5.917  16.773  0.00  0.00    +0.000 A 
ATOM     12  C   UNL     1       6.990   5.181  15.630  0.00  0.00    +0.000 A 
ATOM     13  C   UNL     1       5.667   4.830  15.341  0.00  0.00    +0.000 A 
ATOM     14  C   UNL     1       4.650   5.269  16.204  0.00  0.00    +0.000 A 
BRANCH  13  15
ATOM     15  C   UNL     1       5.383   4.101  14.096  0.00  0.00    +0.000 C 
ATOM     16  C   UNL     1       6.321   3.657  13.245  0.00  0.00    +0.000 C 
BRANCH  16  17
ATOM     17  C   UNL     1       5.909   2.921  12.035  0.00  0.00    +0.000 C 
ATOM     18  O   UNL     1       4.812   2.995  11.514  0.00  0.00    +0.000 OA
BRANCH  17  19
ATOM     19  O   UNL     1       6.900   2.137  11.559  0.00  0.00    +0.000 OA
ATOM     20  H   UNL     1       7.010   1.281  12.012  0.00  0.00    +0.000 HD
ENDBRANCH  17  19
ENDBRANCH  16  17
ENDBRANCH  13  15
ENDBRANCH   6   9
BRANCH   1  21
ATOM     21  C   UNL     1       2.532   4.475  21.398  0.00  0.00    +0.000 C 
BRANCH  21  22
ATOM     22  C   UNL     1       1.800   3.142  21.558  0.00  0.00    +0.000 C 
BRANCH  22  23
ATOM     23  C   UNL     1       2.161   2.126  20.466  0.00  0.00    +0.000 C 
BRANCH  23  25
ATOM     24  C   UNL     1       2.948   1.961  18.164  0.00  0.00    +0.000 C 
ATOM     25  N   UNL     1       2.050   2.649  19.094  0.00  0.00    +0.000 NA
ATOM     26  C   UNL     1       0.669   2.534  18.614  0.00  0.00    +0.000 C 
ENDBRANCH  23  25
ENDBRANCH  22  23
ENDBRANCH  21  22
ENDBRANCH   1  21
TORSDOF 8
ENDMDL
MODEL 4
REMARK VINA RESULT:      -7.1      0.840      1.016
REMARK  Name = 
REMARK  10 active torsions:
REMARK  status: ('A' for Active; 'I' for Inactive)
REMARK    1  A    between atoms: C_1  and  N_2
REMARK    2  A    between atoms: N_2  and  C_3
REMARK    3  A    between atoms: N_2  and  C_4
REMARK    4  A    between atoms: C_4  and  C_5
REMARK    5  A    between atoms: C_5  and  C_6
REMARK    6  A    between atoms: C_6  and  N_7
REMARK    7  A    between atoms: C_12  and  C_13
REMARK    8  A    between atoms: C_17  and  C_18
REMARK    9  A    between atoms: C_19  and  C_20
REMARK   10  A    between atoms: C_20  and  O_22
REMARK                            x       y       z     vdW  Elec       q    Type
REMARK                         _______ _______ _______ _____ _____    ______ ____
ROOT
ATOM      1  N   UNL     1       6.097   4.162  18.926  0.00  0.00    +0.000 N 
ATOM      2  C   UNL     1       4.765   4.429  19.303  0.00  0.00    +0.000 A 
ATOM      3  C   UNL     1       3.971   3.389  19.799  0.00  0.00    +0.000 A 
ATOM      4  N   UNL     1       2.682   3.534  20.180  0.00  0.00    +0.000 NA
ATOM      5  C   UNL     1       2.180   4.774  19.988  0.00  0.00    +0.000 A 
ATOM      6  C   UNL     1       2.918   5.826  19.446  0.00  0.00    +0.000 A 
ATOM      7  N   UNL     1       4.225   5.653  19.105  0.00  0.00    +0.000 NA
ATOM      8  H   UNL     1       6.477   3.445  19.537  0.00  0.00    +0.000 HD
ENDROOT
BRANCH   6   9
ATOM      9  C   UNL     1       2.316   7.136  19.132  0.00  0.00    +0.000 A 
ATOM     10  C   UNL     1       2.634   7.835  17.955  0.00  0.00    +0.000 A 
ATOM     11  C   UNL     1       2.155   9.126  17.732  0.00  0.00    +0.000 A 
ATOM     12  C   UNL     1       1.336   9.741  18.676  0.00  0.00    +0.000 A 
ATOM     13  C   UNL     1       0.956   9.060  19.838  0.00  0.00    +0.000 A 
ATOM     14  C   UNL     1       1.450   7.764  20.051  0.00  0.00    +0.000 A 
BRANCH  13  15
ATOM     15  C   UNL     1       0.136   9.764  20.835  0.00  0.00    +0.000 C 
ATOM     16  C   UNL     1       0.394  10.998  21.296  0.00  0.00    +0.000 C 
BRANCH  16  17
ATOM     17  C   UNL     1      -0.517  11.605  22.286  0.00  0.00    +0.000 C 
ATOM     18  O   UNL     1      -1.197  12.594  22.093  0.00  0.00    +0.000 OA
BRANCH  17  19
ATOM     19  O   UNL     1      -0.513  10.929  23.455  0.00  0.00    +0.000 OA
ATOM     20  H   UNL     1       0.196  10.267  23.552  0.00  0.00    +0.000 HD
ENDBRANCH  17  19
ENDBRANCH  16  17
ENDBRANCH  13  15
ENDBRANCH   6   9
BRANCH   1  21
ATOM     21  C   UNL     1       6.949   5.357  18.955  0.00  0.00    +0.000 C 
BRANCH  21  22
ATOM     22  C   UNL     1       7.342   5.710  17.519  0.00  0.00    +0.000 C 
BRANCH  22  23
ATOM     23  C   UNL     1       7.263   4.509  16.566  0.00  0.00    +0.000 C 
BRANCH  23  25
ATOM     24  C   UNL     1       5.360   5.797  15.750  0.00  0.00    +0.000 C 
ATOM     25  N   UNL     1       6.191   4.606  15.561  0.00  0.00    +0.000 NA
ATOM     26  C   UNL     1       6.758   4.616  14.209  0.00  0.00    +0.000 C 
ENDBRANCH  23  25
ENDBRANCH  22  23
ENDBRANCH  21  22
ENDBRANCH   1  21
TORSDOF 8
ENDMDL
MODEL 5
REMARK VINA RESULT:      -7.0      4.902      8.289
REMARK  Name = 
REMARK  10 active torsions:
REMARK  status: ('A' for Active; 'I' for Inactive)
REMARK    1  A    between atoms: C_1  and  N_2
REMARK    2  A    between atoms: N_2  and  C_3
REMARK    3  A    between atoms: N_2  and  C_4
REMARK    4  A    between atoms: C_4  and  C_5
REMARK    5  A    between atoms: C_5  and  C_6
REMARK    6  A    between atoms: C_6  and  N_7
REMARK    7  A    between atoms: C_12  and  C_13
REMARK    8  A    between atoms: C_17  and  C_18
REMARK    9  A    between atoms: C_19  and  C_20
REMARK   10  A    between atoms: C_20  and  O_22
REMARK                            x       y       z     vdW  Elec       q    Type
REMARK                         _______ _______ _______ _____ _____    ______ ____
ROOT
ATOM      1  N   UNL     1       1.464   6.933  20.898  0.00  0.00    +0.000 N 
ATOM      2  C   UNL     1       2.040   5.742  20.410  0.00  0.00    +0.000 A 
ATOM      3  C   UNL     1       1.487   4.511  20.781  0.00  0.00    +0.000 A 
ATOM      4  N   UNL     1       1.966   3.312  20.377  0.00  0.00    +0.000 NA
ATOM      5  C   UNL     1       3.082   3.384  19.618  0.00  0.00    +0.000 A 
ATOM      6  C   UNL     1       3.697   4.586  19.270  0.00  0.00    +0.000 A 
ATOM      7  N   UNL     1       3.168   5.777  19.666  0.00  0.00    +0.000 NA
ATOM      8  H   UNL     1       0.460   6.804  20.988  0.00  0.00    +0.000 HD
ENDROOT
BRANCH   6   9
ATOM      9  C   UNL     1       4.981   4.637  18.544  0.00  0.00    +0.000 A 
ATOM     10  C   UNL     1       6.110   5.280  19.079  0.00  0.00    +0.000 A 
ATOM     11  C   UNL     1       7.277   5.429  18.329  0.00  0.00    +0.000 A 
ATOM     12  C   UNL     1       7.345   4.924  17.033  0.00  0.00    +0.000 A 
ATOM     13  C   UNL     1       6.260   4.233  16.482  0.00  0.00    +0.000 A 
ATOM     14  C   UNL     1       5.090   4.096  17.246  0.00  0.00    +0.000 A 
BRANCH  13  15
ATOM     15  C   UNL     1       6.351   3.765  15.090  0.00  0.00    +0.000 C 
ATOM     16  C   UNL     1       6.627   4.554  14.040  0.00  0.00    +0.000 C 
BRANCH  16  17
ATOM     17  C   UNL     1       6.708   3.958  12.692  0.00  0.00    +0.000 C 
ATOM     18  O   UNL     1       7.356   4.412  11.768  0.00  0.00    +0.000 OA
BRANCH  17  19
ATOM     19  O   UNL     1       5.968   2.834  12.592  0.00  0.00    +0.000 OA
ATOM     20  H   UNL     1       6.445   2.046  12.274  0.00  0.00    +0.000 HD
ENDBRANCH  17  19
ENDBRANCH  16  17
ENDBRANCH  13  15
ENDBRANCH   6   9
BRANCH   1  21
ATOM     21  C   UNL     1       1.751   8.096  20.049  0.00  0.00    +0.000 C 
BRANCH  21  22
ATOM     22  C   UNL     1       1.039   9.315  20.637  0.00  0.00    +0.000 C 
BRANCH  22  23
ATOM     23  C   UNL     1       0.639  10.346  19.573  0.00  0.00    +0.000 C 
BRANCH  23  25
ATOM     24  C   UNL     1      -1.396  11.684  19.678  0.00  0.00    +0.000 C 
ATOM     25  N   UNL     1      -0.806  10.399  19.296  0.00  0.00    +0.000 NA
ATOM     26  C   UNL     1      -1.064  10.146  17.875  0.00  0.00    +0.000 C 
ENDBRANCH  23  25
ENDBRANCH  22  23
ENDBRANCH  21  22
ENDBRANCH   1  21
TORSDOF 8
ENDMDL
MODEL 6
REMARK VINA RESULT:      -7.0      4.835      8.160
REMARK  Name = 
REMARK  10 active torsions:
REMARK  status: ('A' for Active; 'I' for Inactive)
REMARK    1  A    between atoms: C_1  and  N_2
REMARK    2  A    between atoms: N_2  and  C_3
REMARK    3  A    between atoms: N_2  and  C_4
REMARK    4  A    between atoms: C_4  and  C_5
REMARK    5  A    between atoms: C_5  and  C_6
REMARK    6  A    between atoms: C_6  and  N_7
REMARK    7  A    between atoms: C_12  and  C_13
REMARK    8  A    between atoms: C_17  and  C_18
REMARK    9  A    between atoms: C_19  and  C_20
REMARK   10  A    between atoms: C_20  and  O_22
REMARK                            x       y       z     vdW  Elec       q    Type
REMARK                         _______ _______ _______ _____ _____    ______ ____
ROOT
ATOM      1  N   UNL     1       1.393   6.615  21.195  0.00  0.00    +0.000 N 
ATOM      2  C   UNL     1       1.939   5.556  20.441  0.00  0.00    +0.000 A 
ATOM      3  C   UNL     1       1.408   4.268  20.583  0.00  0.00    +0.000 A 
ATOM      4  N   UNL     1       1.862   3.183  19.916  0.00  0.00    +0.000 NA
ATOM      5  C   UNL     1       2.932   3.422  19.125  0.00  0.00    +0.000 A 
ATOM      6  C   UNL     1       3.527   4.676  18.996  0.00  0.00    +0.000 A 
ATOM      7  N   UNL     1       3.022   5.755  19.656  0.00  0.00    +0.000 NA
ATOM      8  H   UNL     1       0.396   6.459  21.314  0.00  0.00    +0.000 HD
ENDROOT
BRANCH   6   9
ATOM      9  C   UNL     1       4.766   4.889  18.223  0.00  0.00    +0.000 A 
ATOM     10  C   UNL     1       5.927   5.414  18.815  0.00  0.00    +0.000 A 
ATOM     11  C   UNL     1       7.049   5.727  18.047  0.00  0.00    +0.000 A 
ATOM     12  C   UNL     1       7.038   5.507  16.671  0.00  0.00    +0.000 A 
ATOM     13  C   UNL     1       5.919   4.939  16.051  0.00  0.00    +0.000 A 
ATOM     14  C   UNL     1       4.796   4.635  16.836  0.00  0.00    +0.000 A 
BRANCH  13  15
ATOM     15  C   UNL     1       5.927   4.775  14.589  0.00  0.00    +0.000 C 
ATOM     16  C   UNL     1       6.282   3.647  13.955  0.00  0.00    +0.000 C 
BRANCH  16  17
ATOM     17  C   UNL     1       6.230   3.601  12.480  0.00  0.00    +0.000 C 
ATOM     18  O   UNL     1       5.369   3.041  11.830  0.00  0.00    +0.000 OA
BRANCH  17  19
ATOM     19  O   UNL     1       7.265   4.262  11.919  0.00  0.00    +0.000 OA
ATOM     20  H   UNL     1       7.613   5.011  12.437  0.00  0.00    +0.000 HD
ENDBRANCH  17  19
ENDBRANCH  16  17
ENDBRANCH  13  15
ENDBRANCH   6   9
BRANCH   1  21
ATOM     21  C   UNL     1       1.631   7.930  20.587  0.00  0.00    +0.000 C 
BRANCH  21  22
ATOM     22  C   UNL     1       1.227   9.011  21.592  0.00  0.00    +0.000 C 
BRANCH  22  23
ATOM     23  C   UNL     1       0.666  10.272  20.921  0.00  0.00    +0.000 C 
BRANCH  23  25
ATOM     24  C   UNL     1      -0.913  10.310  19.063  0.00  0.00    +0.000 C 
ATOM     25  N   UNL     1       0.487  10.151  19.464  0.00  0.00    +0.000 NA
ATOM     26  C   UNL     1       1.310  11.143  18.765  0.00  0.00    +0.000 C 
ENDBRANCH  23  25
ENDBRANCH  22  23
ENDBRANCH  21  22
ENDBRANCH   1  21
TORSDOF 8
ENDMDL
MODEL 7
REMARK VINA RESULT:      -7.0      2.795      4.196
REMARK  Name = 
REMARK  10 active torsions:
REMARK  status: ('A' for Active; 'I' for Inactive)
REMARK    1  A    between atoms: C_1  and  N_2
REMARK    2  A    between atoms: N_2  and  C_3
REMARK    3  A    between atoms: N_2  and  C_4
REMARK    4  A    between atoms: C_4  and  C_5
REMARK    5  A    between atoms: C_5  and  C_6
REMARK    6  A    between atoms: C_6  and  N_7
REMARK    7  A    between atoms: C_12  and  C_13
REMARK    8  A    between atoms: C_17  and  C_18
REMARK    9  A    between atoms: C_19  and  C_20
REMARK   10  A    between atoms: C_20  and  O_22
REMARK                            x       y       z     vdW  Elec       q    Type
REMARK                         _______ _______ _______ _____ _____    ______ ____
ROOT
ATOM      1  N   UNL     1       7.505   6.920  16.673  0.00  0.00    +0.000 N 
ATOM      2  C   UNL     1       6.512   5.919  16.725  0.00  0.00    +0.000 A 
ATOM      3  C   UNL     1       6.451   4.961  15.706  0.00  0.00    +0.000 A 
ATOM      4  N   UNL     1       5.536   3.967  15.656  0.00  0.00    +0.000 NA
ATOM      5  C   UNL     1       4.623   3.997  16.651  0.00  0.00    +0.000 A 
ATOM      6  C   UNL     1       4.614   4.965  17.655  0.00  0.00    +0.000 A 
ATOM      7  N   UNL     1       5.571   5.933  17.695  0.00  0.00    +0.000 NA
ATOM      8  H   UNL     1       8.345   6.533  16.252  0.00  0.00    +0.000 HD
ENDROOT
BRANCH   6   9
ATOM      9  C   UNL     1       3.538   5.052  18.661  0.00  0.00    +0.000 A 
ATOM     10  C   UNL     1       2.725   3.949  18.974  0.00  0.00    +0.000 A 
ATOM     11  C   UNL     1       1.633   4.080  19.833  0.00  0.00    +0.000 A 
ATOM     12  C   UNL     1       1.340   5.314  20.409  0.00  0.00    +0.000 A 
ATOM     13  C   UNL     1       2.154   6.425  20.162  0.00  0.00    +0.000 A 
ATOM     14  C   UNL     1       3.246   6.279  19.292  0.00  0.00    +0.000 A 
BRANCH  13  15
ATOM     15  C   UNL     1       1.778   7.722  20.745  0.00  0.00    +0.000 C 
ATOM     16  C   UNL     1       0.572   8.000  21.265  0.00  0.00    +0.000 C 
BRANCH  16  17
ATOM     17  C   UNL     1       0.324   9.337  21.837  0.00  0.00    +0.000 C 
ATOM     18  O   UNL     1       0.790   9.746  22.883  0.00  0.00    +0.000 OA
BRANCH  17  19
ATOM     19  O   UNL     1      -0.497  10.074  21.058  0.00  0.00    +0.000 OA
ATOM     20  H   UNL     1      -1.060   9.565  20.446  0.00  0.00    +0.000 HD
ENDBRANCH  17  19
ENDBRANCH  16  17
ENDBRANCH  13  15
ENDBRANCH   6   9
BRANCH   1  21
ATOM     21  C   UNL     1       7.813   7.488  17.991  0.00  0.00    +0.000 C 
BRANCH  21  22
ATOM     22  C   UNL     1       8.065   8.988  17.828  0.00  0.00    +0.000 C 
BRANCH  22  23
ATOM     23  C   UNL     1       9.030   9.550  18.881  0.00  0.00    +0.000 C 
BRANCH  23  25
ATOM     24  C   UNL     1       9.464  11.564  20.185  0.00  0.00    +0.000 C 
ATOM     25  N   UNL     1       9.156  11.017  18.861  0.00  0.00    +0.000 NA
ATOM     26  C   UNL     1      10.193  11.428  17.910  0.00  0.00    +0.000 C 
ENDBRANCH  23  25
ENDBRANCH  22  23
ENDBRANCH  21  22
ENDBRANCH   1  21
TORSDOF 8
ENDMDL
MODEL 8
REMARK VINA RESULT:      -6.9      2.311      4.376
REMARK  Name = 
REMARK  10 active torsions:
REMARK  status: ('A' for Active; 'I' for Inactive)
REMARK    1  A    between atoms: C_1  and  N_2
REMARK    2  A    between atoms: N_2  and  C_3
REMARK    3  A    between atoms: N_2  and  C_4
REMARK    4  A    between atoms: C_4  and  C_5
REMARK    5  A    between atoms: C_5  and  C_6
REMARK    6  A    between atoms: C_6  and  N_7
REMARK    7  A    between atoms: C_12  and  C_13
REMARK    8  A    between atoms: C_17  and  C_18
REMARK    9  A    between atoms: C_19  and  C_20
REMARK   10  A    between atoms: C_20  and  O_22
REMARK                            x       y       z     vdW  Elec       q    Type
REMARK                         _______ _______ _______ _____ _____    ______ ____
ROOT
ATOM      1  N   UNL     1       5.415   3.682  18.679  0.00  0.00    +0.000 N 
ATOM      2  C   UNL     1       4.879   4.851  18.101  0.00  0.00    +0.000 A 
ATOM      3  C   UNL     1       5.380   5.301  16.874  0.00  0.00    +0.000 A 
ATOM      4  N   UNL     1       4.943   6.412  16.238  0.00  0.00    +0.000 NA
ATOM      5  C   UNL     1       4.006   7.110  16.916  0.00  0.00    +0.000 A 
ATOM      6  C   UNL     1       3.518   6.729  18.166  0.00  0.00    +0.000 A 
ATOM      7  N   UNL     1       3.956   5.585  18.761  0.00  0.00    +0.000 NA
ATOM      8  H   UNL     1       5.677   3.036  17.939  0.00  0.00    +0.000 HD
ENDROOT
BRANCH   6   9
ATOM      9  C   UNL     1       2.586   7.569  18.942  0.00  0.00    +0.000 A 
ATOM     10  C   UNL     1       2.167   7.211  20.235  0.00  0.00    +0.000 A 
ATOM     11  C   UNL     1       1.190   7.948  20.906  0.00  0.00    +0.000 A 
ATOM     12  C   UNL     1       0.623   9.068  20.303  0.00  0.00    +0.000 A 
ATOM     13  C   UNL     1       1.048   9.487  19.037  0.00  0.00    +0.000 A 
ATOM     14  C   UNL     1       2.028   8.732  18.372  0.00  0.00    +0.000 A 
BRANCH  13  15
ATOM     15  C   UNL     1       0.385  10.641  18.412  0.00  0.00    +0.000 C 
ATOM     16  C   UNL     1       0.160  11.812  19.028  0.00  0.00    +0.000 C 
BRANCH  16  17
ATOM     17  C   UNL     1      -0.501  12.903  18.285  0.00  0.00    +0.000 C 
ATOM     18  O   UNL     1      -0.311  14.089  18.474  0.00  0.00    +0.000 OA
BRANCH  17  19
ATOM     19  O   UNL     1      -1.360  12.432  17.356  0.00  0.00    +0.000 OA
ATOM     20  H   UNL     1      -0.965  11.855  16.677  0.00  0.00    +0.000 HD
ENDBRANCH  17  19
ENDBRANCH  16  17
ENDBRANCH  13  15
ENDBRANCH   6   9
BRANCH   1  21
ATOM     21  C   UNL     1       4.491   3.032  19.616  0.00  0.00    +0.000 C 
BRANCH  21  22
ATOM     22  C   UNL     1       3.545   2.131  18.820  0.00  0.00    +0.000 C 
BRANCH  22  23
ATOM     23  C   UNL     1       2.131   2.076  19.413  0.00  0.00    +0.000 C 
BRANCH  23  25
ATOM     24  C   UNL     1       0.753   3.998  20.003  0.00  0.00    +0.000 C 
ATOM     25  N   UNL     1       1.854   3.123  20.411  0.00  0.00    +0.000 NA
ATOM     26  C   UNL     1       1.542   2.520  21.710  0.00  0.00    +0.000 C 
ENDBRANCH  23  25
ENDBRANCH  22  23
ENDBRANCH  21  22
ENDBRANCH   1  21
TORSDOF 8
ENDMDL
MODEL 9
REMARK VINA RESULT:      -6.9      2.861      4.464
REMARK  Name = 
REMARK  10 active torsions:
REMARK  status: ('A' for Active; 'I' for Inactive)
REMARK    1  A    between atoms: C_1  and  N_2
REMARK    2  A    between atoms: N_2  and  C_3
REMARK    3  A    between atoms: N_2  and  C_4
REMARK    4  A    between atoms: C_4  and  C_5
REMARK    5  A    between atoms: C_5  and  C_6
REMARK    6  A    between atoms: C_6  and  N_7
REMARK    7  A    between atoms: C_12  and  C_13
REMARK    8  A    between atoms: C_17  and  C_18
REMARK    9  A    between atoms: C_19  and  C_20
REMARK   10  A    between atoms: C_20  and  O_22
REMARK                            x       y       z     vdW  Elec       q    Type
REMARK                         _______ _______ _______ _____ _____    ______ ____
ROOT
ATOM      1  N   UNL     1       7.453   7.067  16.677  0.00  0.00    +0.000 N 
ATOM      2  C   UNL     1       6.601   5.948  16.777  0.00  0.00    +0.000 A 
ATOM      3  C   UNL     1       6.546   5.031  15.721  0.00  0.00    +0.000 A 
ATOM      4  N   UNL     1       5.758   3.932  15.711  0.00  0.00    +0.000 NA
ATOM      5  C   UNL     1       4.961   3.808  16.796  0.00  0.00    +0.000 A 
ATOM      6  C   UNL     1       4.943   4.726  17.845  0.00  0.00    +0.000 A 
ATOM      7  N   UNL     1       5.775   5.804  17.838  0.00  0.00    +0.000 NA
ATOM      8  H   UNL     1       8.284   6.806  16.153  0.00  0.00    +0.000 HD
ENDROOT
BRANCH   6   9
ATOM      9  C   UNL     1       3.980   4.636  18.959  0.00  0.00    +0.000 A 
ATOM     10  C   UNL     1       3.738   3.428  19.635  0.00  0.00    +0.000 A 
ATOM     11  C   UNL     1       2.735   3.329  20.600  0.00  0.00    +0.000 A 
ATOM     12  C   UNL     1       1.962   4.443  20.920  0.00  0.00    +0.000 A 
ATOM     13  C   UNL     1       2.204   5.677  20.306  0.00  0.00    +0.000 A 
ATOM     14  C   UNL     1       3.213   5.759  19.333  0.00  0.00    +0.000 A 
BRANCH  13  15
ATOM     15  C   UNL     1       1.329   6.814  20.631  0.00  0.00    +0.000 C 
ATOM     16  C   UNL     1       1.768   8.025  21.009  0.00  0.00    +0.000 C 
BRANCH  16  17
ATOM     17  C   UNL     1       0.788   9.092  21.292  0.00  0.00    +0.000 C 
ATOM     18  O   UNL     1      -0.356   9.114  20.881  0.00  0.00    +0.000 OA
BRANCH  17  19
ATOM     19  O   UNL     1       1.311  10.063  22.071  0.00  0.00    +0.000 OA
ATOM     20  H   UNL     1       0.664  10.584  22.579  0.00  0.00    +0.000 HD
ENDBRANCH  17  19
ENDBRANCH  16  17
ENDBRANCH  13  15
ENDBRANCH   6   9
BRANCH   1  21
ATOM     21  C   UNL     1       7.831   7.616  17.985  0.00  0.00    +0.000 C 
BRANCH  21  22
ATOM     22  C   UNL     1       8.136   9.106  17.818  0.00  0.00    +0.000 C 
BRANCH  22  23
ATOM     23  C   UNL     1       8.943   9.686  18.987  0.00  0.00    +0.000 C 
BRANCH  23  25
ATOM     24  C   UNL     1       8.929  11.889  17.943  0.00  0.00    +0.000 C 
ATOM     25  N   UNL     1       9.730  10.882  18.643  0.00  0.00    +0.000 NA
ATOM     26  C   UNL     1      10.314  11.474  19.850  0.00  0.00    +0.000 C 
ENDBRANCH  23  25
ENDBRANCH  22  23
ENDBRANCH  21  22
ENDBRANCH   1  21
TORSDOF 8
ENDMDL
