MODEL 1
REMARK VINA RESULT:      -7.7      0.000      0.000
REMARK  Name = 
REMARK  9 active torsions:
REMARK  status: ('A' for Active; 'I' for Inactive)
REMARK    1  A    between atoms: C_1  and  S_2
REMARK    2  A    between atoms: S_2  and  C_3
REMARK    3  A    between atoms: C_7  and  C_8
REMARK    4  A    between atoms: C_12  and  S_13
REMARK    5  A    between atoms: S_13  and  C_14
REMARK    6  A    between atoms: C_17  and  C_18
REMARK    7  A    between atoms: C_18  and  C_19
REMARK    8  A    between atoms: C_18  and  C_20
REMARK    9  A    between atoms: C_18  and  C_21
REMARK                            x       y       z     vdW  Elec       q    Type
REMARK                         _______ _______ _______ _____ _____    ______ ____
ROOT
ATOM      1  C   UNL     1       6.397   4.412  16.270  0.00  0.00    +0.000 A 
ATOM      2  C   UNL     1       7.322   4.746  17.242  0.00  0.00    +0.000 A 
ATOM      3  N   UNL     1       7.025   4.670  18.553  0.00  0.00    +0.000 NA
ATOM      4  N   UNL     1       5.786   4.250  18.903  0.00  0.00    +0.000 NA
ATOM      5  C   UNL     1       4.893   3.936  17.940  0.00  0.00    +0.000 A 
ATOM      6  N   UNL     1       5.147   4.001  16.613  0.00  0.00    +0.000 NA
ENDROOT
BRANCH   1  11
ATOM      7  C   UNL     1       6.421   3.618  12.723  0.00  0.00    +0.000 A 
ATOM      8  N   UNL     1       7.258   4.530  12.184  0.00  0.00    +0.000 NA
ATOM      9  N   UNL     1       7.856   5.447  12.985  0.00  0.00    +0.000 NA
ATOM     10  C   UNL     1       7.585   5.416  14.303  0.00  0.00    +0.000 A 
ATOM     11  C   UNL     1       6.725   4.472  14.834  0.00  0.00    +0.000 A 
ATOM     12  N   UNL     1       6.131   3.551  14.034  0.00  0.00    +0.000 NA
BRANCH   7  14
ATOM     13  C   UNL     1       4.068   3.335  11.341  0.00  0.00    +0.000 C 
ATOM     14  S   UNL     1       5.608   2.444  11.669  0.00  0.00    +0.000 S 
ENDBRANCH   7  14
ENDBRANCH   1  11
BRANCH   5  15
ATOM     15  S   UNL     1       3.302   3.345  18.463  0.00  0.00    +0.000 S 
BRANCH  15  16
ATOM     16  C   UNL     1       2.606   4.838  19.142  0.00  0.00    +0.000 A 
ATOM     17  C   UNL     1       1.965   4.811  20.378  0.00  0.00    +0.000 A 
ATOM     18  C   UNL     1       1.454   5.985  20.942  0.00  0.00    +0.000 A 
ATOM     19  C   UNL     1       1.576   7.223  20.299  0.00  0.00    +0.000 A 
ATOM     20  C   UNL     1       2.225   7.236  19.046  0.00  0.00    +0.000 A 
ATOM     21  C   UNL     1       2.737   6.060  18.479  0.00  0.00    +0.000 A 
BRANCH  19  22
ATOM     22  C   UNL     1       1.058   8.531  20.933  0.00  0.00    +0.000 C 
ATOM     23  C   UNL     1       1.923   9.013  22.121  0.00  0.00    +0.000 C 
ATOM     24  C   UNL     1       1.057   9.661  19.880  0.00  0.00    +0.000 C 
ATOM     25  C   UNL     1      -0.380   8.351  21.465  0.00  0.00    +0.000 C 
ENDBRANCH  19  22
ENDBRANCH  15  16
ENDBRANCH   5  15
TORSDOF 5
ENDMDL
MODEL 2
REMARK VINA RESULT:      -7.6      0.594      1.464
REMARK  Name = 
REMARK  9 active torsions:
REMARK  status: ('A' for Active; 'I' for Inactive)
REMARK    1  A    between atoms: C_1  and  S_2
REMARK    2  A    between atoms: S_2  and  C_3
REMARK    3  A    between atoms: C_7  and  C_8
REMARK    4  A    between atoms: C_12  and  S_13
REMARK    5  A    between atoms: S_13  and  C_14
REMARK    6  A    between atoms: C_17  and  C_18
REMARK    7  A    between atoms: C_18  and  C_19
REMARK    8  A    between atoms: C_18  and  C_20
REMARK    9  A    between atoms: C_18  and  C_21
REMARK                            x       y       z     vdW  Elec       q    Type
REMARK                         _______ _______ _______ _____ _____    ______ ____
ROOT
ATOM      1  C   UNL     1       6.437   4.431  16.415  0.00  0.00    +0.000 A 
ATOM      2  C   UNL     1       7.369   4.688  17.405  0.00  0.00    +0.000 A 
ATOM      3  N   UNL     1       7.055   4.587  18.710  0.00  0.00    +0.000 NA
ATOM      4  N   UNL     1       5.792   4.220  19.037  0.00  0.00    +0.000 NA
ATOM      5  C   UNL     1       4.895   3.981  18.057  0.00  0.00    +0.000 A 
ATOM      6  N   UNL     1       5.165   4.075  16.735  0.00  0.00    +0.000 NA
ENDROOT
BRANCH   1  11
ATOM      7  C   UNL     1       6.443   3.760  12.843  0.00  0.00    +0.000 A 
ATOM      8  N   UNL     1       7.343   4.632  12.342  0.00  0.00    +0.000 NA
ATOM      9  N   UNL     1       7.993   5.479  13.178  0.00  0.00    +0.000 NA
ATOM     10  C   UNL     1       7.708   5.422  14.493  0.00  0.00    +0.000 A 
ATOM     11  C   UNL     1       6.782   4.519  14.985  0.00  0.00    +0.000 A 
ATOM     12  N   UNL     1       6.136   3.667  14.149  0.00  0.00    +0.000 NA
BRANCH   7  14
ATOM     13  C   UNL     1       6.935   1.668  11.137  0.00  0.00    +0.000 C 
ATOM     14  S   UNL     1       5.563   2.680  11.743  0.00  0.00    +0.000 S 
ENDBRANCH   7  14
ENDBRANCH   1  11
BRANCH   5  15
ATOM     15  S   UNL     1       3.270   3.456  18.548  0.00  0.00    +0.000 S 
BRANCH  15  16
ATOM     16  C   UNL     1       2.650   4.957  19.282  0.00  0.00    +0.000 A 
ATOM     17  C   UNL     1       2.823   6.176  18.632  0.00  0.00    +0.000 A 
ATOM     18  C   UNL     1       2.302   7.355  19.177  0.00  0.00    +0.000 A 
ATOM     19  C   UNL     1       1.583   7.354  20.379  0.00  0.00    +0.000 A 
ATOM     20  C   UNL     1       1.418   6.113  21.029  0.00  0.00    +0.000 A 
ATOM     21  C   UNL     1       1.940   4.930  20.484  0.00  0.00    +0.000 A 
BRANCH  19  22
ATOM     22  C   UNL     1       0.964   8.640  20.965  0.00  0.00    +0.000 C 
ATOM     23  C   UNL     1      -0.490   8.446  21.454  0.00  0.00    +0.000 C 
ATOM     24  C   UNL     1       1.794   9.118  22.177  0.00  0.00    +0.000 C 
ATOM     25  C   UNL     1       0.939   9.767  19.910  0.00  0.00    +0.000 C 
ENDBRANCH  19  22
ENDBRANCH  15  16
ENDBRANCH   5  15
TORSDOF 5
ENDMDL
MODEL 3
REMARK VINA RESULT:      -7.5      0.990      1.713
REMARK  Name = 
REMARK  9 active torsions:
REMARK  status: ('A' for Active; 'I' for Inactive)
REMARK    1  A    between atoms: C_1  and  S_2
REMARK    2  A    between atoms: S_2  and  C_3
REMARK    3  A    between atoms: C_7  and  C_8
REMARK    4  A    between atoms: C_12  and  S_13
REMARK    5  A    between atoms: S_13  and  C_14
REMARK    6  A    between atoms: C_17  and  C_18
REMARK    7  A    between atoms: C_18  and  C_19
REMARK    8  A    between atoms: C_18  and  C_20
REMARK    9  A    between atoms: C_18  and  C_21
REMARK                            x       y       z     vdW  Elec       q    Type
REMARK                         _______ _______ _______ _____ _____    ______ ____
ROOT
ATOM      1  C   UNL     1       6.488   4.530  16.303  0.00  0.00    +0.000 A 
ATOM      2  C   UNL     1       7.499   4.642  17.240  0.00  0.00    +0.000 A 
ATOM      3  N   UNL     1       7.240   4.620  18.560  0.00  0.00    +0.000 NA
ATOM      4  N   UNL     1       5.953   4.480  18.957  0.00  0.00    +0.000 NA
ATOM      5  C   UNL     1       4.979   4.380  18.027  0.00  0.00    +0.000 A 
ATOM      6  N   UNL     1       5.192   4.401  16.693  0.00  0.00    +0.000 NA
ENDROOT
BRANCH   1  11
ATOM      7  C   UNL     1       6.400   3.588  12.793  0.00  0.00    +0.000 A 
ATOM      8  N   UNL     1       7.215   4.479  12.189  0.00  0.00    +0.000 NA
ATOM      9  N   UNL     1       7.835   5.430  12.931  0.00  0.00    +0.000 NA
ATOM     10  C   UNL     1       7.606   5.455  14.257  0.00  0.00    +0.000 A 
ATOM     11  C   UNL     1       6.769   4.530  14.856  0.00  0.00    +0.000 A 
ATOM     12  N   UNL     1       6.153   3.574  14.115  0.00  0.00    +0.000 NA
BRANCH   7  14
ATOM     13  C   UNL     1       4.093   3.313  11.334  0.00  0.00    +0.000 C 
ATOM     14  S   UNL     1       5.558   2.368  11.817  0.00  0.00    +0.000 S 
ENDBRANCH   7  14
ENDBRANCH   1  11
BRANCH   5  15
ATOM     15  S   UNL     1       3.316   4.149  18.609  0.00  0.00    +0.000 S 
BRANCH  15  16
ATOM     16  C   UNL     1       2.775   5.842  18.732  0.00  0.00    +0.000 A 
ATOM     17  C   UNL     1       2.809   6.669  17.613  0.00  0.00    +0.000 A 
ATOM     18  C   UNL     1       2.345   7.987  17.685  0.00  0.00    +0.000 A 
ATOM     19  C   UNL     1       1.822   8.518  18.872  0.00  0.00    +0.000 A 
ATOM     20  C   UNL     1       1.796   7.670  19.999  0.00  0.00    +0.000 A 
ATOM     21  C   UNL     1       2.261   6.348  19.928  0.00  0.00    +0.000 A 
BRANCH  19  22
ATOM     22  C   UNL     1       1.265   9.954  18.951  0.00  0.00    +0.000 C 
ATOM     23  C   UNL     1       2.192  11.003  18.294  0.00  0.00    +0.000 C 
ATOM     24  C   UNL     1      -0.097  10.030  18.225  0.00  0.00    +0.000 C 
ATOM     25  C   UNL     1       1.065  10.386  20.420  0.00  0.00    +0.000 C 
ENDBRANCH  19  22
ENDBRANCH  15  16
ENDBRANCH   5  15
TORSDOF 5
ENDMDL
MODEL 4
REMARK VINA RESULT:      -7.3      6.237      9.399
REMARK  Name = 
REMARK  9 active torsions:
REMARK  status: ('A' for Active; 'I' for Inactive)
REMARK    1  A    between atoms: C_1  and  S_2
REMARK    2  A    between atoms: S_2  and  C_3
REMARK    3  A    between atoms: C_7  and  C_8
REMARK    4  A    between atoms: C_12  and  S_13
REMARK    5  A    between atoms: S_13  and  C_14
REMARK    6  A    between atoms: C_17  and  C_18
REMARK    7  A    between atoms: C_18  and  C_19
REMARK    8  A    between atoms: C_18  and  C_20
REMARK    9  A    between atoms: C_18  and  C_21
REMARK                            x       y       z     vdW  Elec       q    Type
REMARK                         _______ _______ _______ _____ _____    ______ ____
ROOT
ATOM      1  C   UNL     1      -1.155  10.572  18.542  0.00  0.00    +0.000 A 
ATOM      2  C   UNL     1      -1.167  11.023  19.849  0.00  0.00    +0.000 A 
ATOM      3  N   UNL     1      -0.099  10.877  20.655  0.00  0.00    +0.000 NA
ATOM      4  N   UNL     1       1.004  10.274  20.150  0.00  0.00    +0.000 NA
ATOM      5  C   UNL     1       0.995   9.833  18.874  0.00  0.00    +0.000 A 
ATOM      6  N   UNL     1      -0.056   9.954  18.032  0.00  0.00    +0.000 NA
ENDROOT
BRANCH   1  11
ATOM      7  C   UNL     1      -4.477  11.475  17.378  0.00  0.00    +0.000 A 
ATOM      8  N   UNL     1      -4.477  11.131  16.072  0.00  0.00    +0.000 NA
ATOM      9  N   UNL     1      -3.367  10.576  15.526  0.00  0.00    +0.000 NA
ATOM     10  C   UNL     1      -2.291  10.392  16.314  0.00  0.00    +0.000 A 
ATOM     11  C   UNL     1      -2.314  10.750  17.650  0.00  0.00    +0.000 A 
ATOM     12  N   UNL     1      -3.427  11.300  18.199  0.00  0.00    +0.000 NA
BRANCH   7  14
ATOM     13  C   UNL     1      -6.792  10.767  18.670  0.00  0.00    +0.000 C 
ATOM     14  S   UNL     1      -5.916  12.237  18.083  0.00  0.00    +0.000 S 
ENDBRANCH   7  14
ENDBRANCH   1  11
BRANCH   5  15
ATOM     15  S   UNL     1       2.487   9.094  18.254  0.00  0.00    +0.000 S 
BRANCH  15  16
ATOM     16  C   UNL     1       2.239   7.398  18.741  0.00  0.00    +0.000 A 
ATOM     17  C   UNL     1       2.353   6.378  17.801  0.00  0.00    +0.000 A 
ATOM     18  C   UNL     1       2.204   5.039  18.179  0.00  0.00    +0.000 A 
ATOM     19  C   UNL     1       1.950   4.675  19.508  0.00  0.00    +0.000 A 
ATOM     20  C   UNL     1       1.834   5.719  20.450  0.00  0.00    +0.000 A 
ATOM     21  C   UNL     1       1.982   7.062  20.072  0.00  0.00    +0.000 A 
BRANCH  19  22
ATOM     22  C   UNL     1       1.831   3.201  19.945  0.00  0.00    +0.000 C 
ATOM     23  C   UNL     1       3.144   2.405  19.760  0.00  0.00    +0.000 C 
ATOM     24  C   UNL     1       1.458   3.124  21.443  0.00  0.00    +0.000 C 
ATOM     25  C   UNL     1       0.742   2.471  19.129  0.00  0.00    +0.000 C 
ENDBRANCH  19  22
ENDBRANCH  15  16
ENDBRANCH   5  15
TORSDOF 5
ENDMDL
MODEL 5
REMARK VINA RESULT:      -7.3      1.146      1.950
REMARK  Name = 
REMARK  9 active torsions:
REMARK  status: ('A' for Active; 'I' for Inactive)
REMARK    1  A    between atoms: C_1  and  S_2
REMARK    2  A    between atoms: S_2  and  C_3
REMARK    3  A    between atoms: C_7  and  C_8
REMARK    4  A    between atoms: C_12  and  S_13
REMARK    5  A    between atoms: S_13  and  C_14
REMARK    6  A    between atoms: C_17  and  C_18
REMARK    7  A    between atoms: C_18  and  C_19
REMARK    8  A    between atoms: C_18  and  C_20
REMARK    9  A    between atoms: C_18  and  C_21
REMARK                            x       y       z     vdW  Elec       q    Type
REMARK                         _______ _______ _______ _____ _____    ______ ____
ROOT
ATOM      1  C   UNL     1       6.427   4.608  16.649  0.00  0.00    +0.000 A 
ATOM      2  C   UNL     1       7.446   4.716  17.577  0.00  0.00    +0.000 A 
ATOM      3  N   UNL     1       7.200   4.689  18.900  0.00  0.00    +0.000 NA
ATOM      4  N   UNL     1       5.916   4.547  19.307  0.00  0.00    +0.000 NA
ATOM      5  C   UNL     1       4.933   4.450  18.386  0.00  0.00    +0.000 A 
ATOM      6  N   UNL     1       5.134   4.478  17.049  0.00  0.00    +0.000 NA
ENDROOT
BRANCH   1  11
ATOM      7  C   UNL     1       6.078   3.931  13.095  0.00  0.00    +0.000 A 
ATOM      8  N   UNL     1       7.105   4.598  12.526  0.00  0.00    +0.000 NA
ATOM      9  N   UNL     1       7.963   5.299  13.308  0.00  0.00    +0.000 NA
ATOM     10  C   UNL     1       7.753   5.309  14.638  0.00  0.00    +0.000 A 
ATOM     11  C   UNL     1       6.695   4.616  15.199  0.00  0.00    +0.000 A 
ATOM     12  N   UNL     1       5.839   3.909  14.418  0.00  0.00    +0.000 NA
BRANCH   7  14
ATOM     13  C   UNL     1       6.020   1.747  11.435  0.00  0.00    +0.000 C 
ATOM     14  S   UNL     1       4.932   3.046  12.068  0.00  0.00    +0.000 S 
ENDBRANCH   7  14
ENDBRANCH   1  11
BRANCH   5  15
ATOM     15  S   UNL     1       3.276   4.216  18.982  0.00  0.00    +0.000 S 
BRANCH  15  16
ATOM     16  C   UNL     1       2.703   5.903  19.026  0.00  0.00    +0.000 A 
ATOM     17  C   UNL     1       2.731   6.681  17.872  0.00  0.00    +0.000 A 
ATOM     18  C   UNL     1       2.244   7.992  17.883  0.00  0.00    +0.000 A 
ATOM     19  C   UNL     1       1.702   8.565  19.041  0.00  0.00    +0.000 A 
ATOM     20  C   UNL     1       1.683   7.767  20.205  0.00  0.00    +0.000 A 
ATOM     21  C   UNL     1       2.172   6.452  20.195  0.00  0.00    +0.000 A 
BRANCH  19  22
ATOM     22  C   UNL     1       1.119   9.993  19.054  0.00  0.00    +0.000 C 
ATOM     23  C   UNL     1      -0.260  10.092  18.360  0.00  0.00    +0.000 C 
ATOM     24  C   UNL     1       0.932  10.472  20.511  0.00  0.00    +0.000 C 
ATOM     25  C   UNL     1       2.061  10.978  18.328  0.00  0.00    +0.000 C 
ENDBRANCH  19  22
ENDBRANCH  15  16
ENDBRANCH   5  15
TORSDOF 5
ENDMDL
MODEL 6
REMARK VINA RESULT:      -7.3      1.992      3.421
REMARK  Name = 
REMARK  9 active torsions:
REMARK  status: ('A' for Active; 'I' for Inactive)
REMARK    1  A    between atoms: C_1  and  S_2
REMARK    2  A    between atoms: S_2  and  C_3
REMARK    3  A    between atoms: C_7  and  C_8
REMARK    4  A    between atoms: C_12  and  S_13
REMARK    5  A    between atoms: S_13  and  C_14
REMARK    6  A    between atoms: C_17  and  C_18
REMARK    7  A    between atoms: C_18  and  C_19
REMARK    8  A    between atoms: C_18  and  C_20
REMARK    9  A    between atoms: C_18  and  C_21
REMARK                            x       y       z     vdW  Elec       q    Type
REMARK                         _______ _______ _______ _____ _____    ______ ____
ROOT
ATOM      1  C   UNL     1       3.906   4.180  17.561  0.00  0.00    +0.000 A 
ATOM      2  C   UNL     1       2.847   3.575  16.909  0.00  0.00    +0.000 A 
ATOM      3  N   UNL     1       1.634   3.472  17.482  0.00  0.00    +0.000 NA
ATOM      4  N   UNL     1       1.469   3.984  18.725  0.00  0.00    +0.000 NA
ATOM      5  C   UNL     1       2.517   4.564  19.349  0.00  0.00    +0.000 A 
ATOM      6  N   UNL     1       3.753   4.685  18.814  0.00  0.00    +0.000 NA
ENDROOT
BRANCH   1  11
ATOM      7  C   UNL     1       6.496   4.257  15.011  0.00  0.00    +0.000 A 
ATOM      8  N   UNL     1       7.621   4.566  15.689  0.00  0.00    +0.000 NA
ATOM      9  N   UNL     1       7.564   4.755  17.031  0.00  0.00    +0.000 NA
ATOM     10  C   UNL     1       6.371   4.633  17.643  0.00  0.00    +0.000 A 
ATOM     11  C   UNL     1       5.231   4.314  16.929  0.00  0.00    +0.000 A 
ATOM     12  N   UNL     1       5.288   4.119  15.587  0.00  0.00    +0.000 NA
BRANCH   7  14
ATOM     13  C   UNL     1       7.908   5.191  12.853  0.00  0.00    +0.000 C 
ATOM     14  S   UNL     1       6.563   4.049  13.250  0.00  0.00    +0.000 S 
ENDBRANCH   7  14
ENDBRANCH   1  11
BRANCH   5  15
ATOM     15  S   UNL     1       2.226   5.259  20.958  0.00  0.00    +0.000 S 
BRANCH  15  16
ATOM     16  C   UNL     1       1.755   6.920  20.515  0.00  0.00    +0.000 A 
ATOM     17  C   UNL     1       2.137   7.450  19.286  0.00  0.00    +0.000 A 
ATOM     18  C   UNL     1       1.736   8.737  18.908  0.00  0.00    +0.000 A 
ATOM     19  C   UNL     1       0.933   9.530  19.738  0.00  0.00    +0.000 A 
ATOM     20  C   UNL     1       0.555   8.981  20.982  0.00  0.00    +0.000 A 
ATOM     21  C   UNL     1       0.957   7.692  21.362  0.00  0.00    +0.000 A 
BRANCH  19  22
ATOM     22  C   UNL     1       0.446  10.930  19.312  0.00  0.00    +0.000 C 
ATOM     23  C   UNL     1      -0.026  11.797  20.503  0.00  0.00    +0.000 C 
ATOM     24  C   UNL     1       1.593  11.696  18.616  0.00  0.00    +0.000 C 
ATOM     25  C   UNL     1      -0.742  10.824  18.331  0.00  0.00    +0.000 C 
ENDBRANCH  19  22
ENDBRANCH  15  16
ENDBRANCH   5  15
TORSDOF 5
ENDMDL
MODEL 7
REMARK VINA RESULT:      -7.2      1.866      3.038
REMARK  Name = 
REMARK  9 active torsions:
REMARK  status: ('A' for Active; 'I' for Inactive)
REMARK    1  A    between atoms: C_1  and  S_2
REMARK    2  A    between atoms: S_2  and  C_3
REMARK    3  A    between atoms: C_7  and  C_8
REMARK    4  A    between atoms: C_12  and  S_13
REMARK    5  A    between atoms: S_13  and  C_14
REMARK    6  A    between atoms: C_17  and  C_18
REMARK    7  A    between atoms: C_18  and  C_19
REMARK    8  A    between atoms: C_18  and  C_20
REMARK    9  A    between atoms: C_18  and  C_21
REMARK                            x       y       z     vdW  Elec       q    Type
REMARK                         _______ _______ _______ _____ _____    ______ ____
ROOT
ATOM      1  C   UNL     1       4.172   4.327  16.959  0.00  0.00    +0.000 A 
ATOM      2  C   UNL     1       3.150   3.546  16.452  0.00  0.00    +0.000 A 
ATOM      3  N   UNL     1       2.057   3.255  17.182  0.00  0.00    +0.000 NA
ATOM      4  N   UNL     1       1.978   3.753  18.439  0.00  0.00    +0.000 NA
ATOM      5  C   UNL     1       2.990   4.508  18.920  0.00  0.00    +0.000 A 
ATOM      6  N   UNL     1       4.106   4.821  18.224  0.00  0.00    +0.000 NA
ENDROOT
BRANCH   1  11
ATOM      7  C   UNL     1       6.525   4.420  14.190  0.00  0.00    +0.000 A 
ATOM      8  N   UNL     1       7.499   5.256  14.608  0.00  0.00    +0.000 NA
ATOM      9  N   UNL     1       7.413   5.822  15.838  0.00  0.00    +0.000 NA
ATOM     10  C   UNL     1       6.344   5.528  16.603  0.00  0.00    +0.000 A 
ATOM     11  C   UNL     1       5.360   4.666  16.155  0.00  0.00    +0.000 A 
ATOM     12  N   UNL     1       5.448   4.095  14.927  0.00  0.00    +0.000 NA
BRANCH   7  14
ATOM     13  C   UNL     1       4.859   3.425  12.251  0.00  0.00    +0.000 C 
ATOM     14  S   UNL     1       6.617   3.711  12.565  0.00  0.00    +0.000 S 
ENDBRANCH   7  14
ENDBRANCH   1  11
BRANCH   5  15
ATOM     15  S   UNL     1       2.805   5.173  20.557  0.00  0.00    +0.000 S 
BRANCH  15  16
ATOM     16  C   UNL     1       2.148   6.787  20.181  0.00  0.00    +0.000 A 
ATOM     17  C   UNL     1       2.361   7.353  18.927  0.00  0.00    +0.000 A 
ATOM     18  C   UNL     1       1.813   8.599  18.605  0.00  0.00    +0.000 A 
ATOM     19  C   UNL     1       1.026   9.314  19.518  0.00  0.00    +0.000 A 
ATOM     20  C   UNL     1       0.821   8.730  20.786  0.00  0.00    +0.000 A 
ATOM     21  C   UNL     1       1.371   7.481  21.110  0.00  0.00    +0.000 A 
BRANCH  19  22
ATOM     22  C   UNL     1       0.378  10.667  19.158  0.00  0.00    +0.000 C 
ATOM     23  C   UNL     1      -0.729  10.543  18.085  0.00  0.00    +0.000 C 
ATOM     24  C   UNL     1      -0.271  11.290  20.414  0.00  0.00    +0.000 C 
ATOM     25  C   UNL     1       1.432  11.652  18.607  0.00  0.00    +0.000 C 
ENDBRANCH  19  22
ENDBRANCH  15  16
ENDBRANCH   5  15
TORSDOF 5
ENDMDL
MODEL 8
REMARK VINA RESULT:      -7.2      2.039      3.353
REMARK  Name = 
REMARK  9 active torsions:
REMARK  status: ('A' for Active; 'I' for Inactive)
REMARK    1  A    between atoms: C_1  and  S_2
REMARK    2  A    between atoms: S_2  and  C_3
REMARK    3  A    between atoms: C_7  and  C_8
REMARK    4  A    between atoms: C_12  and  S_13
REMARK    5  A    between atoms: S_13  and  C_14
REMARK    6  A    between atoms: C_17  and  C_18
REMARK    7  A    between atoms: C_18  and  C_19
REMARK    8  A    between atoms: C_18  and  C_20
REMARK    9  A    between atoms: C_18  and  C_21
REMARK                            x       y       z     vdW  Elec       q    Type
REMARK                         _______ _______ _______ _____ _____    ______ ____
ROOT
ATOM      1  C   UNL     1       3.937   4.216  17.659  0.00  0.00    +0.000 A 
ATOM      2  C   UNL     1       2.920   3.595  16.957  0.00  0.00    +0.000 A 
ATOM      3  N   UNL     1       1.672   3.510  17.453  0.00  0.00    +0.000 NA
ATOM      4  N   UNL     1       1.429   4.057  18.669  0.00  0.00    +0.000 NA
ATOM      5  C   UNL     1       2.436   4.653  19.342  0.00  0.00    +0.000 A 
ATOM      6  N   UNL     1       3.704   4.757  18.885  0.00  0.00    +0.000 NA
ENDROOT
BRANCH   1  11
ATOM      7  C   UNL     1       6.660   4.423  15.261  0.00  0.00    +0.000 A 
ATOM      8  N   UNL     1       7.766   4.559  16.023  0.00  0.00    +0.000 NA
ATOM      9  N   UNL     1       7.649   4.582  17.374  0.00  0.00    +0.000 NA
ATOM     10  C   UNL     1       6.419   4.472  17.911  0.00  0.00    +0.000 A 
ATOM     11  C   UNL     1       5.300   4.331  17.110  0.00  0.00    +0.000 A 
ATOM     12  N   UNL     1       5.416   4.303  15.758  0.00  0.00    +0.000 NA
BRANCH   7  14
ATOM     13  C   UNL     1       5.285   3.567  13.046  0.00  0.00    +0.000 C 
ATOM     14  S   UNL     1       6.809   4.434  13.492  0.00  0.00    +0.000 S 
ENDBRANCH   7  14
ENDBRANCH   1  11
BRANCH   5  15
ATOM     15  S   UNL     1       2.044   5.394  20.909  0.00  0.00    +0.000 S 
BRANCH  15  16
ATOM     16  C   UNL     1       1.666   7.059  20.397  0.00  0.00    +0.000 A 
ATOM     17  C   UNL     1       0.995   7.920  21.260  0.00  0.00    +0.000 A 
ATOM     18  C   UNL     1       0.731   9.242  20.887  0.00  0.00    +0.000 A 
ATOM     19  C   UNL     1       1.139   9.751  19.647  0.00  0.00    +0.000 A 
ATOM     20  C   UNL     1       1.815   8.867  18.780  0.00  0.00    +0.000 A 
ATOM     21  C   UNL     1       2.080   7.540  19.153  0.00  0.00    +0.000 A 
BRANCH  19  22
ATOM     22  C   UNL     1       0.896  11.220  19.244  0.00  0.00    +0.000 C 
ATOM     23  C   UNL     1       0.964  12.197  20.440  0.00  0.00    +0.000 C 
ATOM     24  C   UNL     1       1.966  11.670  18.225  0.00  0.00    +0.000 C 
ATOM     25  C   UNL     1      -0.498  11.390  18.600  0.00  0.00    +0.000 C 
ENDBRANCH  19  22
ENDBRANCH  15  16
ENDBRANCH   5  15
TORSDOF 5
ENDMDL
MODEL 9
REMARK VINA RESULT:      -7.2      1.917      2.917
REMARK  Name = 
REMARK  9 active torsions:
REMARK  status: ('A' for Active; 'I' for Inactive)
REMARK    1  A    between atoms: C_1  and  S_2
REMARK    2  A    between atoms: S_2  and  C_3
REMARK    3  A    between atoms: C_7  and  C_8
REMARK    4  A    between atoms: C_12  and  S_13
REMARK    5  A    between atoms: S_13  and  C_14
REMARK    6  A    between atoms: C_17  and  C_18
REMARK    7  A    between atoms: C_18  and  C_19
REMARK    8  A    between atoms: C_18  and  C_20
REMARK    9  A    between atoms: C_18  and  C_21
REMARK                            x       y       z     vdW  Elec       q    Type
REMARK                         _______ _______ _______ _____ _____    ______ ____
ROOT
ATOM      1  C   UNL     1       4.107   4.351  17.087  0.00  0.00    +0.000 A 
ATOM      2  C   UNL     1       3.151   3.498  16.568  0.00  0.00    +0.000 A 
ATOM      3  N   UNL     1       2.055   3.157  17.272  0.00  0.00    +0.000 NA
ATOM      4  N   UNL     1       1.906   3.678  18.513  0.00  0.00    +0.000 NA
ATOM      5  C   UNL     1       2.854   4.503  19.006  0.00  0.00    +0.000 A 
ATOM      6  N   UNL     1       3.971   4.869  18.337  0.00  0.00    +0.000 NA
ENDROOT
BRANCH   1  11
ATOM      7  C   UNL     1       6.530   4.536  14.384  0.00  0.00    +0.000 A 
ATOM      8  N   UNL     1       7.444   5.431  14.817  0.00  0.00    +0.000 NA
ATOM      9  N   UNL     1       7.293   6.007  16.036  0.00  0.00    +0.000 NA
ATOM     10  C   UNL     1       6.220   5.665  16.774  0.00  0.00    +0.000 A 
ATOM     11  C   UNL     1       5.297   4.744  16.312  0.00  0.00    +0.000 A 
ATOM     12  N   UNL     1       5.451   4.163  15.095  0.00  0.00    +0.000 NA
BRANCH   7  14
ATOM     13  C   UNL     1       4.968   3.523  12.369  0.00  0.00    +0.000 C 
ATOM     14  S   UNL     1       6.707   3.812  12.773  0.00  0.00    +0.000 S 
ENDBRANCH   7  14
ENDBRANCH   1  11
BRANCH   5  15
ATOM     15  S   UNL     1       2.577   5.193  20.620  0.00  0.00    +0.000 S 
BRANCH  15  16
ATOM     16  C   UNL     1       1.997   6.821  20.184  0.00  0.00    +0.000 A 
ATOM     17  C   UNL     1       1.256   7.565  21.097  0.00  0.00    +0.000 A 
ATOM     18  C   UNL     1       0.833   8.862  20.783  0.00  0.00    +0.000 A 
ATOM     19  C   UNL     1       1.146   9.461  19.555  0.00  0.00    +0.000 A 
ATOM     20  C   UNL     1       1.895   8.694  18.639  0.00  0.00    +0.000 A 
ATOM     21  C   UNL     1       2.319   7.393  18.952  0.00  0.00    +0.000 A 
BRANCH  19  22
ATOM     22  C   UNL     1       0.725  10.906  19.218  0.00  0.00    +0.000 C 
ATOM     23  C   UNL     1       1.791  11.674  18.403  0.00  0.00    +0.000 C 
ATOM     24  C   UNL     1      -0.571  10.893  18.376  0.00  0.00    +0.000 C 
ATOM     25  C   UNL     1       0.468  11.719  20.506  0.00  0.00    +0.000 C 
ENDBRANCH  19  22
ENDBRANCH  15  16
ENDBRANCH   5  15
TORSDOF 5
ENDMDL
