MODEL 1
REMARK VINA RESULT:      -7.4      0.000      0.000
REMARK  Name = 
REMARK  13 active torsions:
REMARK  status: ('A' for Active; 'I' for Inactive)
REMARK    1  A    between atoms: C_1  and  C_2
REMARK    2  A    between atoms: C_2  and  O_3
REMARK    3  A    between atoms: O_3  and  C_4
REMARK    4  A    between atoms: C_4  and  C_6
REMARK    5  A    between atoms: C_8  and  C_9
REMARK    6  A    between atoms: C_9  and  O_10
REMARK    7  A    between atoms: C_9  and  C_11
REMARK    8  A    between atoms: C_9  and  C_15
REMARK    9  A    between atoms: C_11  and  O_13
REMARK   10  A    between atoms: O_13  and  C_14
REMARK   11  A    between atoms: C_19  and  N_20
REMARK   12  A    between atoms: N_22  and  C_23
REMARK   13  A    between atoms: N_22  and  C_24
REMARK                            x       y       z     vdW  Elec       q    Type
REMARK                         _______ _______ _______ _____ _____    ______ ____
ROOT
ATOM      1  C   UNL     1       4.252   3.848  19.474  0.00  0.00    +0.000 A 
ATOM      2  C   UNL     1       5.359   4.030  18.681  0.00  0.00    +0.000 A 
ATOM      3  C   UNL     1       5.152   5.231  17.930  0.00  0.00    +0.000 A 
ATOM      4  C   UNL     1       3.920   5.743  18.361  0.00  0.00    +0.000 A 
ATOM      5  O   UNL     1       3.406   4.892  19.299  0.00  0.00    +0.000 OA
ENDROOT
BRANCH   4   6
ATOM      6  N   UNL     1       3.273   6.890  18.020  0.00  0.00    +0.000 NA
ATOM      7  C   UNL     1       2.546   7.397  18.969  0.00  0.00    +0.000 C 
ATOM      8  N   UNL     1       1.851   8.590  18.974  0.00  0.00    +0.000 N 
ATOM      9  C   UNL     1       1.008   8.983  20.097  0.00  0.00    +0.000 C 
ATOM     10  C   UNL     1       1.924   9.541  17.881  0.00  0.00    +0.000 C 
ENDBRANCH   4   6
BRANCH   1  11
ATOM     11  C   UNL     1       3.879   2.750  20.330  0.00  0.00    +0.000 C 
ATOM     12  O   UNL     1       4.662   2.048  20.956  0.00  0.00    +0.000 OA
BRANCH  11  13
ATOM     13  O   UNL     1       2.534   2.552  20.263  0.00  0.00    +0.000 OA
BRANCH  13  15
ATOM     14  C   UNL     1       0.672   2.476  18.773  0.00  0.00    +0.000 C 
ATOM     15  C   UNL     1       2.064   1.941  19.057  0.00  0.00    +0.000 C 
ENDBRANCH  13  15
ENDBRANCH  11  13
ENDBRANCH   1  11
BRANCH   3  16
ATOM     16  C   UNL     1       6.108   5.849  16.907  0.00  0.00    +0.000 C 
BRANCH  16  17
ATOM     17  C   UNL     1       6.876   4.796  16.054  0.00  0.00    +0.000 C 
ATOM     18  F   UNL     1       6.090   3.783  15.616  0.00  0.00    +0.000 F 
ATOM     19  F   UNL     1       7.428   5.362  14.947  0.00  0.00    +0.000 F 
ATOM     20  F   UNL     1       7.907   4.210  16.715  0.00  0.00    +0.000 F 
ENDBRANCH  16  17
BRANCH  16  21
ATOM     21  O   UNL     1       5.351   6.770  16.083  0.00  0.00    +0.000 OA
ATOM     22  H   UNL     1       5.987   7.242  15.509  0.00  0.00    +0.000 HD
ENDBRANCH  16  21
BRANCH  16  23
ATOM     23  C   UNL     1       7.248   6.609  17.629  0.00  0.00    +0.000 C 
ATOM     24  O   UNL     1       7.756   6.262  18.692  0.00  0.00    +0.000 OA
BRANCH  23  25
ATOM     25  O   UNL     1       7.617   7.734  16.948  0.00  0.00    +0.000 OA
ATOM     26  C   UNL     1       8.001   8.854  17.749  0.00  0.00    +0.000 C 
ENDBRANCH  23  25
ENDBRANCH  16  23
ENDBRANCH   3  16
TORSDOF 9
ENDMDL
MODEL 2
REMARK VINA RESULT:      -7.4      1.430      1.636
REMARK  Name = 
REMARK  13 active torsions:
REMARK  status: ('A' for Active; 'I' for Inactive)
REMARK    1  A    between atoms: C_1  and  C_2
REMARK    2  A    between atoms: C_2  and  O_3
REMARK    3  A    between atoms: O_3  and  C_4
REMARK    4  A    between atoms: C_4  and  C_6
REMARK    5  A    between atoms: C_8  and  C_9
REMARK    6  A    between atoms: C_9  and  O_10
REMARK    7  A    between atoms: C_9  and  C_11
REMARK    8  A    between atoms: C_9  and  C_15
REMARK    9  A    between atoms: C_11  and  O_13
REMARK   10  A    between atoms: O_13  and  C_14
REMARK   11  A    between atoms: C_19  and  N_20
REMARK   12  A    between atoms: N_22  and  C_23
REMARK   13  A    between atoms: N_22  and  C_24
REMARK                            x       y       z     vdW  Elec       q    Type
REMARK                         _______ _______ _______ _____ _____    ______ ____
ROOT
ATOM      1  C   UNL     1       3.728   3.199  17.995  0.00  0.00    +0.000 A 
ATOM      2  C   UNL     1       4.817   3.405  17.181  0.00  0.00    +0.000 A 
ATOM      3  C   UNL     1       4.777   4.770  16.753  0.00  0.00    +0.000 A 
ATOM      4  C   UNL     1       3.663   5.337  17.388  0.00  0.00    +0.000 A 
ATOM      5  O   UNL     1       3.056   4.367  18.138  0.00  0.00    +0.000 OA
ENDROOT
BRANCH   4   6
ATOM      6  N   UNL     1       3.197   6.614  17.380  0.00  0.00    +0.000 NA
ATOM      7  C   UNL     1       2.608   6.978  18.478  0.00  0.00    +0.000 C 
ATOM      8  N   UNL     1       2.119   8.223  18.819  0.00  0.00    +0.000 N 
ATOM      9  C   UNL     1       1.407   8.452  20.071  0.00  0.00    +0.000 C 
ATOM     10  C   UNL     1       2.295   9.389  17.975  0.00  0.00    +0.000 C 
ENDBRANCH   4   6
BRANCH   1  11
ATOM     11  C   UNL     1       3.218   1.992  18.595  0.00  0.00    +0.000 C 
ATOM     12  O   UNL     1       3.771   0.900  18.560  0.00  0.00    +0.000 OA
BRANCH  11  13
ATOM     13  O   UNL     1       1.985   2.228  19.122  0.00  0.00    +0.000 OA
BRANCH  13  15
ATOM     14  C   UNL     1       1.131   3.663  20.825  0.00  0.00    +0.000 C 
ATOM     15  C   UNL     1       1.950   2.416  20.539  0.00  0.00    +0.000 C 
ENDBRANCH  13  15
ENDBRANCH  11  13
ENDBRANCH   1  11
BRANCH   3  16
ATOM     16  C   UNL     1       5.778   5.472  15.832  0.00  0.00    +0.000 C 
BRANCH  16  17
ATOM     17  C   UNL     1       6.160   4.637  14.573  0.00  0.00    +0.000 C 
ATOM     18  F   UNL     1       6.662   3.414  14.872  0.00  0.00    +0.000 F 
ATOM     19  F   UNL     1       5.081   4.425  13.773  0.00  0.00    +0.000 F 
ATOM     20  F   UNL     1       7.086   5.239  13.784  0.00  0.00    +0.000 F 
ENDBRANCH  16  17
BRANCH  16  21
ATOM     21  O   UNL     1       5.233   6.769  15.481  0.00  0.00    +0.000 OA
ATOM     22  H   UNL     1       4.259   6.693  15.501  0.00  0.00    +0.000 HD
ENDBRANCH  16  21
BRANCH  16  23
ATOM     23  C   UNL     1       7.135   5.653  16.554  0.00  0.00    +0.000 C 
ATOM     24  O   UNL     1       7.744   4.758  17.134  0.00  0.00    +0.000 OA
BRANCH  23  25
ATOM     25  O   UNL     1       7.576   6.944  16.486  0.00  0.00    +0.000 OA
ATOM     26  C   UNL     1       7.761   7.609  17.738  0.00  0.00    +0.000 C 
ENDBRANCH  23  25
ENDBRANCH  16  23
ENDBRANCH   3  16
TORSDOF 9
ENDMDL
MODEL 3
REMARK VINA RESULT:      -7.3      1.590      1.859
REMARK  Name = 
REMARK  13 active torsions:
REMARK  status: ('A' for Active; 'I' for Inactive)
REMARK    1  A    between atoms: C_1  and  C_2
REMARK    2  A    between atoms: C_2  and  O_3
REMARK    3  A    between atoms: O_3  and  C_4
REMARK    4  A    between atoms: C_4  and  C_6
REMARK    5  A    between atoms: C_8  and  C_9
REMARK    6  A    between atoms: C_9  and  O_10
REMARK    7  A    between atoms: C_9  and  C_11
REMARK    8  A    between atoms: C_9  and  C_15
REMARK    9  A    between atoms: C_11  and  O_13
REMARK   10  A    between atoms: O_13  and  C_14
REMARK   11  A    between atoms: C_19  and  N_20
REMARK   12  A    between atoms: N_22  and  C_23
REMARK   13  A    between atoms: N_22  and  C_24
REMARK                            x       y       z     vdW  Elec       q    Type
REMARK                         _______ _______ _______ _____ _____    ______ ____
ROOT
ATOM      1  C   UNL     1       2.493   4.474  18.283  0.00  0.00    +0.000 A 
ATOM      2  C   UNL     1       3.688   4.337  17.617  0.00  0.00    +0.000 A 
ATOM      3  C   UNL     1       4.103   5.645  17.211  0.00  0.00    +0.000 A 
ATOM      4  C   UNL     1       3.132   6.525  17.711  0.00  0.00    +0.000 A 
ATOM      5  O   UNL     1       2.180   5.790  18.360  0.00  0.00    +0.000 OA
ENDROOT
BRANCH   4   6
ATOM      6  N   UNL     1       3.065   7.883  17.666  0.00  0.00    +0.000 NA
ATOM      7  C   UNL     1       1.887   8.370  17.913  0.00  0.00    +0.000 C 
ATOM      8  N   UNL     1       1.513   9.692  18.038  0.00  0.00    +0.000 N 
ATOM      9  C   UNL     1       0.122  10.083  18.239  0.00  0.00    +0.000 C 
ATOM     10  C   UNL     1       2.471  10.782  18.001  0.00  0.00    +0.000 C 
ENDBRANCH   4   6
BRANCH   1  11
ATOM     11  C   UNL     1       1.582   3.482  18.792  0.00  0.00    +0.000 C 
ATOM     12  O   UNL     1       1.210   2.488  18.181  0.00  0.00    +0.000 OA
BRANCH  11  13
ATOM     13  O   UNL     1       1.122   3.865  20.014  0.00  0.00    +0.000 OA
BRANCH  13  15
ATOM     14  C   UNL     1       2.591   2.771  21.543  0.00  0.00    +0.000 C 
ATOM     15  C   UNL     1       1.164   2.857  21.029  0.00  0.00    +0.000 C 
ENDBRANCH  13  15
ENDBRANCH  11  13
ENDBRANCH   1  11
BRANCH   3  16
ATOM     16  C   UNL     1       5.373   6.006  16.437  0.00  0.00    +0.000 C 
BRANCH  16  17
ATOM     17  C   UNL     1       5.965   4.818  15.621  0.00  0.00    +0.000 C 
ATOM     18  F   UNL     1       5.031   4.128  14.922  0.00  0.00    +0.000 F 
ATOM     19  F   UNL     1       6.884   5.248  14.715  0.00  0.00    +0.000 F 
ATOM     20  F   UNL     1       6.611   3.903  16.387  0.00  0.00    +0.000 F 
ENDBRANCH  16  17
BRANCH  16  21
ATOM     21  O   UNL     1       5.078   7.150  15.597  0.00  0.00    +0.000 OA
ATOM     22  H   UNL     1       5.578   7.911  15.952  0.00  0.00    +0.000 HD
ENDBRANCH  16  21
BRANCH  16  23
ATOM     23  C   UNL     1       6.517   6.358  17.417  0.00  0.00    +0.000 C 
ATOM     24  O   UNL     1       6.609   5.935  18.567  0.00  0.00    +0.000 OA
BRANCH  23  25
ATOM     25  O   UNL     1       7.417   7.219  16.857  0.00  0.00    +0.000 OA
ATOM     26  C   UNL     1       7.789   8.345  17.655  0.00  0.00    +0.000 C 
ENDBRANCH  23  25
ENDBRANCH  16  23
ENDBRANCH   3  16
TORSDOF 9
ENDMDL
MODEL 4
REMARK VINA RESULT:      -7.2      1.266      1.782
REMARK  Name = 
REMARK  13 active torsions:
REMARK  status: ('A' for Active; 'I' for Inactive)
REMARK    1  A    between atoms: C_1  and  C_2
REMARK    2  A    between atoms: C_2  and  O_3
REMARK    3  A    between atoms: O_3  and  C_4
REMARK    4  A    between atoms: C_4  and  C_6
REMARK    5  A    between atoms: C_8  and  C_9
REMARK    6  A    between atoms: C_9  and  O_10
REMARK    7  A    between atoms: C_9  and  C_11
REMARK    8  A    between atoms: C_9  and  C_15
REMARK    9  A    between atoms: C_11  and  O_13
REMARK   10  A    between atoms: O_13  and  C_14
REMARK   11  A    between atoms: C_19  and  N_20
REMARK   12  A    between atoms: N_22  and  C_23
REMARK   13  A    between atoms: N_22  and  C_24
REMARK                            x       y       z     vdW  Elec       q    Type
REMARK                         _______ _______ _______ _____ _____    ______ ____
ROOT
ATOM      1  C   UNL     1       3.667   3.575  18.436  0.00  0.00    +0.000 A 
ATOM      2  C   UNL     1       4.722   3.643  17.558  0.00  0.00    +0.000 A 
ATOM      3  C   UNL     1       4.716   4.955  16.987  0.00  0.00    +0.000 A 
ATOM      4  C   UNL     1       3.658   5.637  17.605  0.00  0.00    +0.000 A 
ATOM      5  O   UNL     1       3.050   4.781  18.481  0.00  0.00    +0.000 OA
ENDROOT
BRANCH   4   6
ATOM      6  N   UNL     1       3.244   6.926  17.479  0.00  0.00    +0.000 NA
ATOM      7  C   UNL     1       2.512   7.353  18.462  0.00  0.00    +0.000 C 
ATOM      8  N   UNL     1       2.022   8.625  18.678  0.00  0.00    +0.000 N 
ATOM      9  C   UNL     1       1.139   8.928  19.799  0.00  0.00    +0.000 C 
ATOM     10  C   UNL     1       2.363   9.749  17.827  0.00  0.00    +0.000 C 
ENDBRANCH   4   6
BRANCH   1  11
ATOM     11  C   UNL     1       3.138   2.463  19.185  0.00  0.00    +0.000 C 
ATOM     12  O   UNL     1       2.278   1.689  18.784  0.00  0.00    +0.000 OA
BRANCH  11  13
ATOM     13  O   UNL     1       3.667   2.462  20.439  0.00  0.00    +0.000 OA
BRANCH  13  15
ATOM     14  C   UNL     1       2.029   3.756  21.594  0.00  0.00    +0.000 C 
ATOM     15  C   UNL     1       2.715   2.404  21.506  0.00  0.00    +0.000 C 
ENDBRANCH  13  15
ENDBRANCH  11  13
ENDBRANCH   1  11
BRANCH   3  16
ATOM     16  C   UNL     1       5.699   5.510  15.953  0.00  0.00    +0.000 C 
BRANCH  16  17
ATOM     17  C   UNL     1       5.964   4.540  14.762  0.00  0.00    +0.000 C 
ATOM     18  F   UNL     1       7.020   4.907  13.996  0.00  0.00    +0.000 F 
ATOM     19  F   UNL     1       6.225   3.278  15.198  0.00  0.00    +0.000 F 
ATOM     20  F   UNL     1       4.911   4.422  13.914  0.00  0.00    +0.000 F 
ENDBRANCH  16  17
BRANCH  16  21
ATOM     21  O   UNL     1       5.205   6.797  15.506  0.00  0.00    +0.000 OA
ATOM     22  H   UNL     1       4.342   6.947  15.940  0.00  0.00    +0.000 HD
ENDBRANCH  16  21
BRANCH  16  23
ATOM     23  C   UNL     1       7.103   5.678  16.582  0.00  0.00    +0.000 C 
ATOM     24  O   UNL     1       7.744   4.775  17.113  0.00  0.00    +0.000 OA
BRANCH  23  25
ATOM     25  O   UNL     1       7.546   6.967  16.495  0.00  0.00    +0.000 OA
ATOM     26  C   UNL     1       7.736   7.649  17.737  0.00  0.00    +0.000 C 
ENDBRANCH  23  25
ENDBRANCH  16  23
ENDBRANCH   3  16
TORSDOF 9
ENDMDL
MODEL 5
REMARK VINA RESULT:      -7.2      1.403      1.936
REMARK  Name = 
REMARK  13 active torsions:
REMARK  status: ('A' for Active; 'I' for Inactive)
REMARK    1  A    between atoms: C_1  and  C_2
REMARK    2  A    between atoms: C_2  and  O_3
REMARK    3  A    between atoms: O_3  and  C_4
REMARK    4  A    between atoms: C_4  and  C_6
REMARK    5  A    between atoms: C_8  and  C_9
REMARK    6  A    between atoms: C_9  and  O_10
REMARK    7  A    between atoms: C_9  and  C_11
REMARK    8  A    between atoms: C_9  and  C_15
REMARK    9  A    between atoms: C_11  and  O_13
REMARK   10  A    between atoms: O_13  and  C_14
REMARK   11  A    between atoms: C_19  and  N_20
REMARK   12  A    between atoms: N_22  and  C_23
REMARK   13  A    between atoms: N_22  and  C_24
REMARK                            x       y       z     vdW  Elec       q    Type
REMARK                         _______ _______ _______ _____ _____    ______ ____
ROOT
ATOM      1  C   UNL     1       2.877   4.207  18.061  0.00  0.00    +0.000 A 
ATOM      2  C   UNL     1       4.063   4.161  17.368  0.00  0.00    +0.000 A 
ATOM      3  C   UNL     1       4.405   5.507  17.019  0.00  0.00    +0.000 A 
ATOM      4  C   UNL     1       3.403   6.313  17.579  0.00  0.00    +0.000 A 
ATOM      5  O   UNL     1       2.501   5.501  18.208  0.00  0.00    +0.000 OA
ENDROOT
BRANCH   4   6
ATOM      6  N   UNL     1       3.269   7.666  17.602  0.00  0.00    +0.000 NA
ATOM      7  C   UNL     1       2.051   8.081  17.775  0.00  0.00    +0.000 C 
ATOM      8  N   UNL     1       1.600   9.375  17.940  0.00  0.00    +0.000 N 
ATOM      9  C   UNL     1       0.179   9.686  18.043  0.00  0.00    +0.000 C 
ATOM     10  C   UNL     1       2.500  10.509  18.042  0.00  0.00    +0.000 C 
ENDBRANCH   4   6
BRANCH   1  11
ATOM     11  C   UNL     1       2.025   3.147  18.537  0.00  0.00    +0.000 C 
ATOM     12  O   UNL     1       0.855   2.985  18.214  0.00  0.00    +0.000 OA
BRANCH  11  13
ATOM     13  O   UNL     1       2.686   2.412  19.472  0.00  0.00    +0.000 OA
BRANCH  13  15
ATOM     14  C   UNL     1       1.588   2.698  21.571  0.00  0.00    +0.000 C 
ATOM     15  C   UNL     1       2.824   3.032  20.754  0.00  0.00    +0.000 C 
ENDBRANCH  13  15
ENDBRANCH  11  13
ENDBRANCH   1  11
BRANCH   3  16
ATOM     16  C   UNL     1       5.640   5.967  16.241  0.00  0.00    +0.000 C 
BRANCH  16  17
ATOM     17  C   UNL     1       6.402   4.804  15.537  0.00  0.00    +0.000 C 
ATOM     18  F   UNL     1       5.585   3.946  14.880  0.00  0.00    +0.000 F 
ATOM     19  F   UNL     1       7.285   5.277  14.615  0.00  0.00    +0.000 F 
ATOM     20  F   UNL     1       7.138   4.044  16.387  0.00  0.00    +0.000 F 
ENDBRANCH  16  17
BRANCH  16  21
ATOM     21  O   UNL     1       5.226   6.993  15.305  0.00  0.00    +0.000 OA
ATOM     22  H   UNL     1       5.471   6.688  14.409  0.00  0.00    +0.000 HD
ENDBRANCH  16  21
BRANCH  16  23
ATOM     23  C   UNL     1       6.702   6.541  17.210  0.00  0.00    +0.000 C 
ATOM     24  O   UNL     1       7.573   7.348  16.895  0.00  0.00    +0.000 OA
BRANCH  23  25
ATOM     25  O   UNL     1       6.570   6.027  18.469  0.00  0.00    +0.000 OA
ATOM     26  C   UNL     1       7.786   5.815  19.190  0.00  0.00    +0.000 C 
ENDBRANCH  23  25
ENDBRANCH  16  23
ENDBRANCH   3  16
TORSDOF 9
ENDMDL
MODEL 6
REMARK VINA RESULT:      -7.1      0.836      1.340
REMARK  Name = 
REMARK  13 active torsions:
REMARK  status: ('A' for Active; 'I' for Inactive)
REMARK    1  A    between atoms: C_1  and  C_2
REMARK    2  A    between atoms: C_2  and  O_3
REMARK    3  A    between atoms: O_3  and  C_4
REMARK    4  A    between atoms: C_4  and  C_6
REMARK    5  A    between atoms: C_8  and  C_9
REMARK    6  A    between atoms: C_9  and  O_10
REMARK    7  A    between atoms: C_9  and  C_11
REMARK    8  A    between atoms: C_9  and  C_15
REMARK    9  A    between atoms: C_11  and  O_13
REMARK   10  A    between atoms: O_13  and  C_14
REMARK   11  A    between atoms: C_19  and  N_20
REMARK   12  A    between atoms: N_22  and  C_23
REMARK   13  A    between atoms: N_22  and  C_24
REMARK                            x       y       z     vdW  Elec       q    Type
REMARK                         _______ _______ _______ _____ _____    ______ ____
ROOT
ATOM      1  C   UNL     1       4.260   3.682  19.071  0.00  0.00    +0.000 A 
ATOM      2  C   UNL     1       5.321   3.902  18.227  0.00  0.00    +0.000 A 
ATOM      3  C   UNL     1       5.073   5.134  17.541  0.00  0.00    +0.000 A 
ATOM      4  C   UNL     1       3.866   5.623  18.062  0.00  0.00    +0.000 A 
ATOM      5  O   UNL     1       3.405   4.730  18.989  0.00  0.00    +0.000 OA
ENDROOT
BRANCH   4   6
ATOM      6  N   UNL     1       3.201   6.782  17.808  0.00  0.00    +0.000 NA
ATOM      7  C   UNL     1       2.581   7.280  18.833  0.00  0.00    +0.000 C 
ATOM      8  N   UNL     1       1.904   8.479  18.929  0.00  0.00    +0.000 N 
ATOM      9  C   UNL     1       1.185   8.861  20.139  0.00  0.00    +0.000 C 
ATOM     10  C   UNL     1       1.876   9.448  17.850  0.00  0.00    +0.000 C 
ENDBRANCH   4   6
BRANCH   1  11
ATOM     11  C   UNL     1       3.935   2.547  19.898  0.00  0.00    +0.000 C 
ATOM     12  O   UNL     1       4.737   1.919  20.578  0.00  0.00    +0.000 OA
BRANCH  11  13
ATOM     13  O   UNL     1       2.625   2.219  19.733  0.00  0.00    +0.000 OA
BRANCH  13  15
ATOM     14  C   UNL     1       0.696   3.481  20.350  0.00  0.00    +0.000 C 
ATOM     15  C   UNL     1       1.772   2.527  20.840  0.00  0.00    +0.000 C 
ENDBRANCH  13  15
ENDBRANCH  11  13
ENDBRANCH   1  11
BRANCH   3  16
ATOM     16  C   UNL     1       5.971   5.799  16.496  0.00  0.00    +0.000 C 
BRANCH  16  17
ATOM     17  C   UNL     1       6.779   4.785  15.631  0.00  0.00    +0.000 C 
ATOM     18  F   UNL     1       7.817   4.220  16.296  0.00  0.00    +0.000 F 
ATOM     19  F   UNL     1       5.993   3.760  15.204  0.00  0.00    +0.000 F 
ATOM     20  F   UNL     1       7.308   5.331  14.507  0.00  0.00    +0.000 F 
ENDBRANCH  16  17
BRANCH  16  21
ATOM     21  O   UNL     1       5.146   6.670  15.683  0.00  0.00    +0.000 OA
ATOM     22  H   UNL     1       5.740   7.308  15.240  0.00  0.00    +0.000 HD
ENDBRANCH  16  21
BRANCH  16  23
ATOM     23  C   UNL     1       7.081   6.625  17.189  0.00  0.00    +0.000 C 
ATOM     24  O   UNL     1       7.933   7.285  16.600  0.00  0.00    +0.000 OA
BRANCH  23  25
ATOM     25  O   UNL     1       7.014   6.523  18.549  0.00  0.00    +0.000 OA
ATOM     26  C   UNL     1       8.154   5.945  19.191  0.00  0.00    +0.000 C 
ENDBRANCH  23  25
ENDBRANCH  16  23
ENDBRANCH   3  16
TORSDOF 9
ENDMDL
MODEL 7
REMARK VINA RESULT:      -7.1      2.863      5.625
REMARK  Name = 
REMARK  13 active torsions:
REMARK  status: ('A' for Active; 'I' for Inactive)
REMARK    1  A    between atoms: C_1  and  C_2
REMARK    2  A    between atoms: C_2  and  O_3
REMARK    3  A    between atoms: O_3  and  C_4
REMARK    4  A    between atoms: C_4  and  C_6
REMARK    5  A    between atoms: C_8  and  C_9
REMARK    6  A    between atoms: C_9  and  O_10
REMARK    7  A    between atoms: C_9  and  C_11
REMARK    8  A    between atoms: C_9  and  C_15
REMARK    9  A    between atoms: C_11  and  O_13
REMARK   10  A    between atoms: O_13  and  C_14
REMARK   11  A    between atoms: C_19  and  N_20
REMARK   12  A    between atoms: N_22  and  C_23
REMARK   13  A    between atoms: N_22  and  C_24
REMARK                            x       y       z     vdW  Elec       q    Type
REMARK                         _______ _______ _______ _____ _____    ______ ____
ROOT
ATOM      1  C   UNL     1       5.414   4.580  16.336  0.00  0.00    +0.000 A 
ATOM      2  C   UNL     1       4.618   3.496  16.616  0.00  0.00    +0.000 A 
ATOM      3  C   UNL     1       3.720   3.884  17.661  0.00  0.00    +0.000 A 
ATOM      4  C   UNL     1       4.003   5.233  17.924  0.00  0.00    +0.000 A 
ATOM      5  O   UNL     1       5.022   5.626  17.102  0.00  0.00    +0.000 OA
ENDROOT
BRANCH   4   6
ATOM      6  N   UNL     1       3.409   6.109  18.779  0.00  0.00    +0.000 NA
ATOM      7  C   UNL     1       2.865   7.136  18.201  0.00  0.00    +0.000 C 
ATOM      8  N   UNL     1       2.112   8.143  18.770  0.00  0.00    +0.000 N 
ATOM      9  C   UNL     1       1.636   9.281  17.992  0.00  0.00    +0.000 C 
ATOM     10  C   UNL     1       1.723   8.132  20.168  0.00  0.00    +0.000 C 
ENDBRANCH   4   6
BRANCH   1  11
ATOM     11  C   UNL     1       6.555   4.708  15.466  0.00  0.00    +0.000 C 
ATOM     12  O   UNL     1       7.360   5.630  15.490  0.00  0.00    +0.000 OA
BRANCH  11  13
ATOM     13  O   UNL     1       6.550   3.700  14.550  0.00  0.00    +0.000 OA
BRANCH  13  15
ATOM     14  C   UNL     1       6.615   3.530  12.171  0.00  0.00    +0.000 C 
ATOM     15  C   UNL     1       5.781   3.949  13.370  0.00  0.00    +0.000 C 
ENDBRANCH  13  15
ENDBRANCH  11  13
ENDBRANCH   1  11
BRANCH   3  16
ATOM     16  C   UNL     1       2.642   3.017  18.314  0.00  0.00    +0.000 C 
BRANCH  16  17
ATOM     17  C   UNL     1       1.232   3.681  18.331  0.00  0.00    +0.000 C 
ATOM     18  F   UNL     1       0.217   2.785  18.386  0.00  0.00    +0.000 F 
ATOM     19  F   UNL     1       1.083   4.499  19.407  0.00  0.00    +0.000 F 
ATOM     20  F   UNL     1       0.987   4.458  17.246  0.00  0.00    +0.000 F 
ENDBRANCH  16  17
BRANCH  16  21
ATOM     21  O   UNL     1       2.631   1.732  17.644  0.00  0.00    +0.000 OA
ATOM     22  H   UNL     1       2.052   1.814  16.861  0.00  0.00    +0.000 HD
ENDBRANCH  16  21
BRANCH  16  23
ATOM     23  C   UNL     1       2.950   2.820  19.818  0.00  0.00    +0.000 C 
ATOM     24  O   UNL     1       4.009   3.124  20.361  0.00  0.00    +0.000 OA
BRANCH  23  25
ATOM     25  O   UNL     1       1.902   2.245  20.479  0.00  0.00    +0.000 OA
ATOM     26  C   UNL     1       1.784   2.566  21.867  0.00  0.00    +0.000 C 
ENDBRANCH  23  25
ENDBRANCH  16  23
ENDBRANCH   3  16
TORSDOF 9
ENDMDL
MODEL 8
REMARK VINA RESULT:      -7.0      2.869      5.481
REMARK  Name = 
REMARK  13 active torsions:
REMARK  status: ('A' for Active; 'I' for Inactive)
REMARK    1  A    between atoms: C_1  and  C_2
REMARK    2  A    between atoms: C_2  and  O_3
REMARK    3  A    between atoms: O_3  and  C_4
REMARK    4  A    between atoms: C_4  and  C_6
REMARK    5  A    between atoms: C_8  and  C_9
REMARK    6  A    between atoms: C_9  and  O_10
REMARK    7  A    between atoms: C_9  and  C_11
REMARK    8  A    between atoms: C_9  and  C_15
REMARK    9  A    between atoms: C_11  and  O_13
REMARK   10  A    between atoms: O_13  and  C_14
REMARK   11  A    between atoms: C_19  and  N_20
REMARK   12  A    between atoms: N_22  and  C_23
REMARK   13  A    between atoms: N_22  and  C_24
REMARK                            x       y       z     vdW  Elec       q    Type
REMARK                         _______ _______ _______ _____ _____    ______ ____
ROOT
ATOM      1  C   UNL     1       5.499   4.530  16.506  0.00  0.00    +0.000 A 
ATOM      2  C   UNL     1       4.695   3.446  16.766  0.00  0.00    +0.000 A 
ATOM      3  C   UNL     1       3.767   3.838  17.782  0.00  0.00    +0.000 A 
ATOM      4  C   UNL     1       4.042   5.187  18.050  0.00  0.00    +0.000 A 
ATOM      5  O   UNL     1       5.085   5.578  17.258  0.00  0.00    +0.000 OA
ENDROOT
BRANCH   4   6
ATOM      6  N   UNL     1       3.424   6.065  18.885  0.00  0.00    +0.000 NA
ATOM      7  C   UNL     1       2.881   7.081  18.287  0.00  0.00    +0.000 C 
ATOM      8  N   UNL     1       2.106   8.085  18.832  0.00  0.00    +0.000 N 
ATOM      9  C   UNL     1       1.633   9.211  18.034  0.00  0.00    +0.000 C 
ATOM     10  C   UNL     1       1.692   8.085  20.223  0.00  0.00    +0.000 C 
ENDBRANCH   4   6
BRANCH   1  11
ATOM     11  C   UNL     1       6.666   4.655  15.669  0.00  0.00    +0.000 C 
ATOM     12  O   UNL     1       7.824   4.566  16.057  0.00  0.00    +0.000 OA
BRANCH  11  13
ATOM     13  O   UNL     1       6.289   4.984  14.403  0.00  0.00    +0.000 OA
BRANCH  13  15
ATOM     14  C   UNL     1       6.735   3.804  12.378  0.00  0.00    +0.000 C 
ATOM     15  C   UNL     1       5.833   3.894  13.597  0.00  0.00    +0.000 C 
ENDBRANCH  13  15
ENDBRANCH  11  13
ENDBRANCH   1  11
BRANCH   3  16
ATOM     16  C   UNL     1       2.670   2.973  18.406  0.00  0.00    +0.000 C 
BRANCH  16  17
ATOM     17  C   UNL     1       1.268   3.654  18.417  0.00  0.00    +0.000 C 
ATOM     18  F   UNL     1       1.041   4.433  17.331  0.00  0.00    +0.000 F 
ATOM     19  F   UNL     1       0.269   2.731  18.445  0.00  0.00    +0.000 F 
ATOM     20  F   UNL     1       1.060   4.448  19.498  0.00  0.00    +0.000 F 
ENDBRANCH  16  17
BRANCH  16  21
ATOM     21  O   UNL     1       2.651   1.700  17.712  0.00  0.00    +0.000 OA
ATOM     22  H   UNL     1       2.075   1.097  18.221  0.00  0.00    +0.000 HD
ENDBRANCH  16  21
BRANCH  16  23
ATOM     23  C   UNL     1       2.956   2.744  19.909  0.00  0.00    +0.000 C 
ATOM     24  O   UNL     1       2.099   2.509  20.757  0.00  0.00    +0.000 OA
BRANCH  23  25
ATOM     25  O   UNL     1       4.287   2.853  20.194  0.00  0.00    +0.000 OA
ATOM     26  C   UNL     1       4.936   1.654  20.625  0.00  0.00    +0.000 C 
ENDBRANCH  23  25
ENDBRANCH  16  23
ENDBRANCH   3  16
TORSDOF 9
ENDMDL
MODEL 9
REMARK VINA RESULT:      -6.9      1.171      1.654
REMARK  Name = 
REMARK  13 active torsions:
REMARK  status: ('A' for Active; 'I' for Inactive)
REMARK    1  A    between atoms: C_1  and  C_2
REMARK    2  A    between atoms: C_2  and  O_3
REMARK    3  A    between atoms: O_3  and  C_4
REMARK    4  A    between atoms: C_4  and  C_6
REMARK    5  A    between atoms: C_8  and  C_9
REMARK    6  A    between atoms: C_9  and  O_10
REMARK    7  A    between atoms: C_9  and  C_11
REMARK    8  A    between atoms: C_9  and  C_15
REMARK    9  A    between atoms: C_11  and  O_13
REMARK   10  A    between atoms: O_13  and  C_14
REMARK   11  A    between atoms: C_19  and  N_20
REMARK   12  A    between atoms: N_22  and  C_23
REMARK   13  A    between atoms: N_22  and  C_24
REMARK                            x       y       z     vdW  Elec       q    Type
REMARK                         _______ _______ _______ _____ _____    ______ ____
ROOT
ATOM      1  C   UNL     1       3.931   3.490  18.350  0.00  0.00    +0.000 A 
ATOM      2  C   UNL     1       5.021   3.722  17.546  0.00  0.00    +0.000 A 
ATOM      3  C   UNL     1       4.902   5.057  17.042  0.00  0.00    +0.000 A 
ATOM      4  C   UNL     1       3.740   5.583  17.626  0.00  0.00    +0.000 A 
ATOM      5  O   UNL     1       3.182   4.617  18.417  0.00  0.00    +0.000 OA
ENDROOT
BRANCH   4   6
ATOM      6  N   UNL     1       3.193   6.825  17.539  0.00  0.00    +0.000 NA
ATOM      7  C   UNL     1       2.571   7.213  18.610  0.00  0.00    +0.000 C 
ATOM      8  N   UNL     1       1.999   8.441  18.874  0.00  0.00    +0.000 N 
ATOM      9  C   UNL     1       1.260   8.696  20.104  0.00  0.00    +0.000 C 
ATOM     10  C   UNL     1       2.108   9.565  17.963  0.00  0.00    +0.000 C 
ENDBRANCH   4   6
BRANCH   1  11
ATOM     11  C   UNL     1       3.487   2.286  19.007  0.00  0.00    +0.000 C 
ATOM     12  O   UNL     1       3.452   1.176  18.493  0.00  0.00    +0.000 OA
BRANCH  11  13
ATOM     13  O   UNL     1       3.023   2.586  20.251  0.00  0.00    +0.000 OA
BRANCH  13  15
ATOM     14  C   UNL     1       0.988   3.751  20.689  0.00  0.00    +0.000 C 
ATOM     15  C   UNL     1       1.620   2.391  20.445  0.00  0.00    +0.000 C 
ENDBRANCH  13  15
ENDBRANCH  11  13
ENDBRANCH   1  11
BRANCH   3  16
ATOM     16  C   UNL     1       5.874   5.773  16.102  0.00  0.00    +0.000 C 
BRANCH  16  17
ATOM     17  C   UNL     1       6.530   4.831  15.048  0.00  0.00    +0.000 C 
ATOM     18  F   UNL     1       7.249   5.494  14.110  0.00  0.00    +0.000 F 
ATOM     19  F   UNL     1       7.383   3.948  15.634  0.00  0.00    +0.000 F 
ATOM     20  F   UNL     1       5.634   4.074  14.366  0.00  0.00    +0.000 F 
ENDBRANCH  16  17
BRANCH  16  21
ATOM     21  O   UNL     1       5.171   6.878  15.482  0.00  0.00    +0.000 OA
ATOM     22  H   UNL     1       4.931   7.507  16.190  0.00  0.00    +0.000 HD
ENDBRANCH  16  21
BRANCH  16  23
ATOM     23  C   UNL     1       7.092   6.307  16.895  0.00  0.00    +0.000 C 
ATOM     24  O   UNL     1       7.651   7.379  16.680  0.00  0.00    +0.000 OA
BRANCH  23  25
ATOM     25  O   UNL     1       7.491   5.429  17.862  0.00  0.00    +0.000 OA
ATOM     26  C   UNL     1       7.909   6.008  19.100  0.00  0.00    +0.000 C 
ENDBRANCH  23  25
ENDBRANCH  16  23
ENDBRANCH   3  16
TORSDOF 9
ENDMDL
