MODEL 1
REMARK VINA RESULT:      -8.2      0.000      0.000
REMARK  Name = 
REMARK  8 active torsions:
REMARK  status: ('A' for Active; 'I' for Inactive)
REMARK    1  A    between atoms: C_1  and  O_2
REMARK    2  A    between atoms: O_2  and  C_3
REMARK    3  A    between atoms: C_7  and  C_8
REMARK    4  A    between atoms: C_11  and  C_12
REMARK    5  A    between atoms: C_14  and  N_15
REMARK    6  A    between atoms: N_15  and  C_16
REMARK    7  A    between atoms: C_16  and  C_17
REMARK    8  A    between atoms: N_22  and  C_23
REMARK                            x       y       z     vdW  Elec       q    Type
REMARK                         _______ _______ _______ _____ _____    ______ ____
ROOT
ATOM      1  C   UNL     1       2.408   5.448  19.887  0.00  0.00    +0.000 C 
ATOM      2  C   UNL     1       1.985   4.708  21.131  0.00  0.00    +0.000 C 
ATOM      3  C   UNL     1       1.532   4.228  19.782  0.00  0.00    +0.000 C 
ENDROOT
BRANCH   1   7
ATOM      4  C   UNL     1       1.127   9.565  19.359  0.00  0.00    +0.000 A 
ATOM      5  C   UNL     1       1.833   8.851  18.385  0.00  0.00    +0.000 A 
ATOM      6  C   UNL     1       2.272   7.555  18.619  0.00  0.00    +0.000 A 
ATOM      7  C   UNL     1       2.056   6.906  19.846  0.00  0.00    +0.000 A 
ATOM      8  C   UNL     1       1.469   7.658  20.869  0.00  0.00    +0.000 A 
ATOM      9  C   UNL     1       1.011   8.970  20.628  0.00  0.00    +0.000 A 
BRANCH   4  14
ATOM     10  C   UNL     1       0.538  13.285  18.774  0.00  0.00    +0.000 A 
ATOM     11  C   UNL     1      -0.735  13.260  18.202  0.00  0.00    +0.000 A 
ATOM     12  C   UNL     1      -1.407  12.055  18.036  0.00  0.00    +0.000 A 
ATOM     13  C   UNL     1      -0.796  10.871  18.441  0.00  0.00    +0.000 A 
ATOM     14  C   UNL     1       0.502  10.855  18.993  0.00  0.00    +0.000 A 
ATOM     15  C   UNL     1       1.154  12.087  19.163  0.00  0.00    +0.000 A 
BRANCH  10  17
ATOM     16  C   UNL     1       0.169  15.629  18.840  0.00  0.00    +0.000 C 
ATOM     17  O   UNL     1       1.077  14.537  18.890  0.00  0.00    +0.000 OA
ENDBRANCH  10  17
ENDBRANCH   4  14
ENDBRANCH   1   7
BRANCH   3  18
ATOM     18  N   UNL     1       2.134   3.007  19.203  0.00  0.00    +0.000 NA
ATOM     19  H   UNL     1       1.410   2.359  18.884  0.00  0.00    +0.000 HD
BRANCH  18  20
ATOM     20  C   UNL     1       3.010   3.287  18.052  0.00  0.00    +0.000 C 
BRANCH  20  21
ATOM     21  C   UNL     1       4.459   3.450  18.529  0.00  0.00    +0.000 C 
ATOM     22  O   UNL     1       4.844   2.860  19.542  0.00  0.00    +0.000 OA
ATOM     23  N   UNL     1       5.295   4.258  17.771  0.00  0.00    +0.000 N 
ATOM     24  C   UNL     1       6.680   4.391  18.221  0.00  0.00    +0.000 C 
ATOM     25  C   UNL     1       7.614   4.893  17.105  0.00  0.00    +0.000 C 
ATOM     26  N   UNL     1       7.142   6.104  16.400  0.00  0.00    +0.000 NA
ATOM     27  C   UNL     1       7.228   7.291  17.252  0.00  0.00    +0.000 C 
ATOM     28  C   UNL     1       5.765   5.879  15.921  0.00  0.00    +0.000 C 
ATOM     29  C   UNL     1       4.774   5.388  16.993  0.00  0.00    +0.000 C 
ENDBRANCH  20  21
ENDBRANCH  18  20
ENDBRANCH   3  18
TORSDOF 6
ENDMDL
MODEL 2
REMARK VINA RESULT:      -8.0      1.132      1.551
REMARK  Name = 
REMARK  8 active torsions:
REMARK  status: ('A' for Active; 'I' for Inactive)
REMARK    1  A    between atoms: C_1  and  O_2
REMARK    2  A    between atoms: O_2  and  C_3
REMARK    3  A    between atoms: C_7  and  C_8
REMARK    4  A    between atoms: C_11  and  C_12
REMARK    5  A    between atoms: C_14  and  N_15
REMARK    6  A    between atoms: N_15  and  C_16
REMARK    7  A    between atoms: C_16  and  C_17
REMARK    8  A    between atoms: N_22  and  C_23
REMARK                            x       y       z     vdW  Elec       q    Type
REMARK                         _______ _______ _______ _____ _____    ______ ____
ROOT
ATOM      1  C   UNL     1       2.034   5.373  19.959  0.00  0.00    +0.000 C 
ATOM      2  C   UNL     1       2.259   4.766  21.320  0.00  0.00    +0.000 C 
ATOM      3  C   UNL     1       1.141   4.265  20.451  0.00  0.00    +0.000 C 
ENDROOT
BRANCH   1   7
ATOM      4  C   UNL     1       1.163   9.601  19.473  0.00  0.00    +0.000 A 
ATOM      5  C   UNL     1       1.836   8.842  18.510  0.00  0.00    +0.000 A 
ATOM      6  C   UNL     1       2.143   7.506  18.732  0.00  0.00    +0.000 A 
ATOM      7  C   UNL     1       1.821   6.858  19.936  0.00  0.00    +0.000 A 
ATOM      8  C   UNL     1       1.268   7.644  20.953  0.00  0.00    +0.000 A 
ATOM      9  C   UNL     1       0.944   8.997  20.724  0.00  0.00    +0.000 A 
BRANCH   4  14
ATOM     10  C   UNL     1       0.978  13.358  18.859  0.00  0.00    +0.000 A 
ATOM     11  C   UNL     1      -0.311  13.473  18.334  0.00  0.00    +0.000 A 
ATOM     12  C   UNL     1      -1.121  12.351  18.209  0.00  0.00    +0.000 A 
ATOM     13  C   UNL     1      -0.633  11.109  18.608  0.00  0.00    +0.000 A 
ATOM     14  C   UNL     1       0.675  10.950  19.112  0.00  0.00    +0.000 A 
ATOM     15  C   UNL     1       1.468  12.101  19.242  0.00  0.00    +0.000 A 
BRANCH  10  17
ATOM     16  C   UNL     1       2.838  14.652  18.152  0.00  0.00    +0.000 C 
ATOM     17  O   UNL     1       1.660  14.542  18.939  0.00  0.00    +0.000 OA
ENDBRANCH  10  17
ENDBRANCH   4  14
ENDBRANCH   1   7
BRANCH   3  18
ATOM     18  N   UNL     1       1.266   2.948  19.790  0.00  0.00    +0.000 NA
ATOM     19  H   UNL     1       0.918   2.988  18.829  0.00  0.00    +0.000 HD
BRANCH  18  20
ATOM     20  C   UNL     1       2.655   2.461  19.734  0.00  0.00    +0.000 C 
BRANCH  20  21
ATOM     21  C   UNL     1       3.204   2.619  18.310  0.00  0.00    +0.000 C 
ATOM     22  O   UNL     1       2.759   1.919  17.397  0.00  0.00    +0.000 OA
ATOM     23  N   UNL     1       4.186   3.579  18.106  0.00  0.00    +0.000 N 
ATOM     24  C   UNL     1       4.689   3.738  16.742  0.00  0.00    +0.000 C 
ATOM     25  C   UNL     1       5.393   5.090  16.531  0.00  0.00    +0.000 C 
ATOM     26  N   UNL     1       6.421   5.418  17.542  0.00  0.00    +0.000 NA
ATOM     27  C   UNL     1       7.608   4.574  17.396  0.00  0.00    +0.000 C 
ATOM     28  C   UNL     1       5.831   5.297  18.888  0.00  0.00    +0.000 C 
ATOM     29  C   UNL     1       5.121   3.960  19.171  0.00  0.00    +0.000 C 
ENDBRANCH  20  21
ENDBRANCH  18  20
ENDBRANCH   3  18
TORSDOF 6
ENDMDL
MODEL 3
REMARK VINA RESULT:      -7.9      4.856     10.530
REMARK  Name = 
REMARK  8 active torsions:
REMARK  status: ('A' for Active; 'I' for Inactive)
REMARK    1  A    between atoms: C_1  and  O_2
REMARK    2  A    between atoms: O_2  and  C_3
REMARK    3  A    between atoms: C_7  and  C_8
REMARK    4  A    between atoms: C_11  and  C_12
REMARK    5  A    between atoms: C_14  and  N_15
REMARK    6  A    between atoms: N_15  and  C_16
REMARK    7  A    between atoms: C_16  and  C_17
REMARK    8  A    between atoms: N_22  and  C_23
REMARK                            x       y       z     vdW  Elec       q    Type
REMARK                         _______ _______ _______ _____ _____    ______ ____
ROOT
ATOM      1  C   UNL     1       0.107  10.849  19.368  0.00  0.00    +0.000 C 
ATOM      2  C   UNL     1       0.749  12.105  19.900  0.00  0.00    +0.000 C 
ATOM      3  C   UNL     1      -0.057  12.154  18.634  0.00  0.00    +0.000 C 
ENDROOT
BRANCH   1   7
ATOM      4  C   UNL     1       2.442   7.229  18.809  0.00  0.00    +0.000 A 
ATOM      5  C   UNL     1       1.924   7.623  20.047  0.00  0.00    +0.000 A 
ATOM      6  C   UNL     1       1.231   8.818  20.190  0.00  0.00    +0.000 A 
ATOM      7  C   UNL     1       1.038   9.700  19.114  0.00  0.00    +0.000 A 
ATOM      8  C   UNL     1       1.666   9.377  17.907  0.00  0.00    +0.000 A 
ATOM      9  C   UNL     1       2.359   8.158  17.757  0.00  0.00    +0.000 A 
BRANCH   4  14
ATOM     10  C   UNL     1       2.727   3.466  18.275  0.00  0.00    +0.000 A 
ATOM     11  C   UNL     1       4.112   3.301  18.319  0.00  0.00    +0.000 A 
ATOM     12  C   UNL     1       4.943   4.391  18.549  0.00  0.00    +0.000 A 
ATOM     13  C   UNL     1       4.380   5.651  18.730  0.00  0.00    +0.000 A 
ATOM     14  C   UNL     1       2.986   5.861  18.661  0.00  0.00    +0.000 A 
ATOM     15  C   UNL     1       2.168   4.741  18.441  0.00  0.00    +0.000 A 
BRANCH  10  17
ATOM     16  C   UNL     1       0.777   2.185  18.715  0.00  0.00    +0.000 C 
ATOM     17  O   UNL     1       2.029   2.309  18.054  0.00  0.00    +0.000 OA
ENDBRANCH  10  17
ENDBRANCH   4  14
ENDBRANCH   1   7
BRANCH   3  18
ATOM     18  N   UNL     1      -1.399  12.777  18.648  0.00  0.00    +0.000 NA
ATOM     19  H   UNL     1      -1.777  12.848  17.700  0.00  0.00    +0.000 HD
BRANCH  18  20
ATOM     20  C   UNL     1      -2.375  12.023  19.454  0.00  0.00    +0.000 C 
BRANCH  20  21
ATOM     21  C   UNL     1      -3.685  11.865  18.671  0.00  0.00    +0.000 C 
ATOM     22  O   UNL     1      -3.654  11.600  17.466  0.00  0.00    +0.000 OA
ATOM     23  N   UNL     1      -4.872  12.013  19.374  0.00  0.00    +0.000 N 
ATOM     24  C   UNL     1      -6.116  11.840  18.624  0.00  0.00    +0.000 C 
ATOM     25  C   UNL     1      -7.320  11.558  19.541  0.00  0.00    +0.000 C 
ATOM     26  N   UNL     1      -7.478  12.505  20.665  0.00  0.00    +0.000 NA
ATOM     27  C   UNL     1      -7.913  13.823  20.200  0.00  0.00    +0.000 C 
ATOM     28  C   UNL     1      -6.208  12.585  21.413  0.00  0.00    +0.000 C 
ATOM     29  C   UNL     1      -4.964  12.879  20.554  0.00  0.00    +0.000 C 
ENDBRANCH  20  21
ENDBRANCH  18  20
ENDBRANCH   3  18
TORSDOF 6
ENDMDL
MODEL 4
REMARK VINA RESULT:      -7.9      4.669     10.371
REMARK  Name = 
REMARK  8 active torsions:
REMARK  status: ('A' for Active; 'I' for Inactive)
REMARK    1  A    between atoms: C_1  and  O_2
REMARK    2  A    between atoms: O_2  and  C_3
REMARK    3  A    between atoms: C_7  and  C_8
REMARK    4  A    between atoms: C_11  and  C_12
REMARK    5  A    between atoms: C_14  and  N_15
REMARK    6  A    between atoms: N_15  and  C_16
REMARK    7  A    between atoms: C_16  and  C_17
REMARK    8  A    between atoms: N_22  and  C_23
REMARK                            x       y       z     vdW  Elec       q    Type
REMARK                         _______ _______ _______ _____ _____    ______ ____
ROOT
ATOM      1  C   UNL     1       0.086  10.780  19.198  0.00  0.00    +0.000 C 
ATOM      2  C   UNL     1       0.571  11.959  20.003  0.00  0.00    +0.000 C 
ATOM      3  C   UNL     1       0.120  12.155  18.584  0.00  0.00    +0.000 C 
ENDROOT
BRANCH   1   7
ATOM      4  C   UNL     1       2.507   7.178  19.013  0.00  0.00    +0.000 A 
ATOM      5  C   UNL     1       1.900   7.634  20.188  0.00  0.00    +0.000 A 
ATOM      6  C   UNL     1       1.181   8.822  20.213  0.00  0.00    +0.000 A 
ATOM      7  C   UNL     1       1.049   9.636  19.076  0.00  0.00    +0.000 A 
ATOM      8  C   UNL     1       1.762   9.255  17.935  0.00  0.00    +0.000 A 
ATOM      9  C   UNL     1       2.481   8.042  17.904  0.00  0.00    +0.000 A 
BRANCH   4  14
ATOM     10  C   UNL     1       2.866   3.385  18.896  0.00  0.00    +0.000 A 
ATOM     11  C   UNL     1       4.256   3.256  18.856  0.00  0.00    +0.000 A 
ATOM     12  C   UNL     1       5.067   4.383  18.897  0.00  0.00    +0.000 A 
ATOM     13  C   UNL     1       4.481   5.644  18.974  0.00  0.00    +0.000 A 
ATOM     14  C   UNL     1       3.080   5.815  18.983  0.00  0.00    +0.000 A 
ATOM     15  C   UNL     1       2.283   4.659  18.955  0.00  0.00    +0.000 A 
BRANCH  10  17
ATOM     16  C   UNL     1       0.773   2.271  18.777  0.00  0.00    +0.000 C 
ATOM     17  O   UNL     1       2.190   2.196  18.862  0.00  0.00    +0.000 OA
ENDBRANCH  10  17
ENDBRANCH   4  14
ENDBRANCH   1   7
BRANCH   3  18
ATOM     18  N   UNL     1      -1.179  12.811  18.316  0.00  0.00    +0.000 NA
ATOM     19  H   UNL     1      -1.211  13.177  17.361  0.00  0.00    +0.000 HD
BRANCH  18  20
ATOM     20  C   UNL     1      -2.327  11.902  18.477  0.00  0.00    +0.000 C 
BRANCH  20  21
ATOM     21  C   UNL     1      -3.203  12.374  19.644  0.00  0.00    +0.000 C 
ATOM     22  O   UNL     1      -2.682  12.894  20.635  0.00  0.00    +0.000 OA
ATOM     23  N   UNL     1      -4.575  12.207  19.523  0.00  0.00    +0.000 N 
ATOM     24  C   UNL     1      -5.405  12.678  20.632  0.00  0.00    +0.000 C 
ATOM     25  C   UNL     1      -6.874  12.882  20.220  0.00  0.00    +0.000 C 
ATOM     26  N   UNL     1      -7.486  11.733  19.519  0.00  0.00    +0.000 NA
ATOM     27  C   UNL     1      -7.711  10.607  20.427  0.00  0.00    +0.000 C 
ATOM     28  C   UNL     1      -6.632  11.350  18.379  0.00  0.00    +0.000 C 
ATOM     29  C   UNL     1      -5.149  11.117  18.726  0.00  0.00    +0.000 C 
ENDBRANCH  20  21
ENDBRANCH  18  20
ENDBRANCH   3  18
TORSDOF 6
ENDMDL
MODEL 5
REMARK VINA RESULT:      -7.9      1.135      1.501
REMARK  Name = 
REMARK  8 active torsions:
REMARK  status: ('A' for Active; 'I' for Inactive)
REMARK    1  A    between atoms: C_1  and  O_2
REMARK    2  A    between atoms: O_2  and  C_3
REMARK    3  A    between atoms: C_7  and  C_8
REMARK    4  A    between atoms: C_11  and  C_12
REMARK    5  A    between atoms: C_14  and  N_15
REMARK    6  A    between atoms: N_15  and  C_16
REMARK    7  A    between atoms: C_16  and  C_17
REMARK    8  A    between atoms: N_22  and  C_23
REMARK                            x       y       z     vdW  Elec       q    Type
REMARK                         _______ _______ _______ _____ _____    ______ ____
ROOT
ATOM      1  C   UNL     1       2.419   5.403  19.874  0.00  0.00    +0.000 C 
ATOM      2  C   UNL     1       2.164   4.608  21.129  0.00  0.00    +0.000 C 
ATOM      3  C   UNL     1       1.566   4.163  19.825  0.00  0.00    +0.000 C 
ENDROOT
BRANCH   1   7
ATOM      4  C   UNL     1       1.033   9.513  19.623  0.00  0.00    +0.000 A 
ATOM      5  C   UNL     1       1.762   8.886  18.606  0.00  0.00    +0.000 A 
ATOM      6  C   UNL     1       2.234   7.589  18.754  0.00  0.00    +0.000 A 
ATOM      7  C   UNL     1       2.028   6.851  19.931  0.00  0.00    +0.000 A 
ATOM      8  C   UNL     1       1.417   7.515  20.999  0.00  0.00    +0.000 A 
ATOM      9  C   UNL     1       0.926   8.829  20.847  0.00  0.00    +0.000 A 
BRANCH   4  14
ATOM     10  C   UNL     1      -1.566  12.285  19.330  0.00  0.00    +0.000 A 
ATOM     11  C   UNL     1      -0.778  13.330  18.844  0.00  0.00    +0.000 A 
ATOM     12  C   UNL     1       0.572  13.131  18.586  0.00  0.00    +0.000 A 
ATOM     13  C   UNL     1       1.134  11.879  18.821  0.00  0.00    +0.000 A 
ATOM     14  C   UNL     1       0.377  10.808  19.342  0.00  0.00    +0.000 A 
ATOM     15  C   UNL     1      -0.989  11.032  19.581  0.00  0.00    +0.000 A 
BRANCH  10  17
ATOM     16  C   UNL     1      -3.195  13.269  20.748  0.00  0.00    +0.000 C 
ATOM     17  O   UNL     1      -2.879  12.616  19.526  0.00  0.00    +0.000 OA
ENDBRANCH  10  17
ENDBRANCH   4  14
ENDBRANCH   1   7
BRANCH   3  18
ATOM     18  N   UNL     1       2.125   2.981  19.132  0.00  0.00    +0.000 NA
ATOM     19  H   UNL     1       1.377   2.385  18.767  0.00  0.00    +0.000 HD
BRANCH  18  20
ATOM     20  C   UNL     1       2.995   3.337  17.997  0.00  0.00    +0.000 C 
BRANCH  20  21
ATOM     21  C   UNL     1       4.446   3.472  18.477  0.00  0.00    +0.000 C 
ATOM     22  O   UNL     1       4.825   2.850  19.473  0.00  0.00    +0.000 OA
ATOM     23  N   UNL     1       5.290   4.291  17.741  0.00  0.00    +0.000 N 
ATOM     24  C   UNL     1       6.677   4.397  18.194  0.00  0.00    +0.000 C 
ATOM     25  C   UNL     1       7.615   4.919  17.090  0.00  0.00    +0.000 C 
ATOM     26  N   UNL     1       7.156   6.153  16.419  0.00  0.00    +0.000 NA
ATOM     27  C   UNL     1       7.256   7.315  17.304  0.00  0.00    +0.000 C 
ATOM     28  C   UNL     1       5.776   5.956  15.936  0.00  0.00    +0.000 C 
ATOM     29  C   UNL     1       4.781   5.447  16.995  0.00  0.00    +0.000 C 
ENDBRANCH  20  21
ENDBRANCH  18  20
ENDBRANCH   3  18
TORSDOF 6
ENDMDL
MODEL 6
REMARK VINA RESULT:      -7.9      5.413     10.968
REMARK  Name = 
REMARK  8 active torsions:
REMARK  status: ('A' for Active; 'I' for Inactive)
REMARK    1  A    between atoms: C_1  and  O_2
REMARK    2  A    between atoms: O_2  and  C_3
REMARK    3  A    between atoms: C_7  and  C_8
REMARK    4  A    between atoms: C_11  and  C_12
REMARK    5  A    between atoms: C_14  and  N_15
REMARK    6  A    between atoms: N_15  and  C_16
REMARK    7  A    between atoms: C_16  and  C_17
REMARK    8  A    between atoms: N_22  and  C_23
REMARK                            x       y       z     vdW  Elec       q    Type
REMARK                         _______ _______ _______ _____ _____    ______ ____
ROOT
ATOM      1  C   UNL     1      -0.138  10.880  19.016  0.00  0.00    +0.000 C 
ATOM      2  C   UNL     1      -1.528  10.498  18.577  0.00  0.00    +0.000 C 
ATOM      3  C   UNL     1      -1.312  11.112  19.930  0.00  0.00    +0.000 C 
ENDROOT
BRANCH   1   7
ATOM      4  C   UNL     1       2.437   7.383  19.121  0.00  0.00    +0.000 A 
ATOM      5  C   UNL     1       1.749   7.862  20.241  0.00  0.00    +0.000 A 
ATOM      6  C   UNL     1       0.981   9.017  20.174  0.00  0.00    +0.000 A 
ATOM      7  C   UNL     1       0.877   9.774  18.996  0.00  0.00    +0.000 A 
ATOM      8  C   UNL     1       1.666   9.376  17.912  0.00  0.00    +0.000 A 
ATOM      9  C   UNL     1       2.436   8.196  17.974  0.00  0.00    +0.000 A 
BRANCH   4  14
ATOM     10  C   UNL     1       3.100   3.706  19.875  0.00  0.00    +0.000 A 
ATOM     11  C   UNL     1       4.302   3.512  19.190  0.00  0.00    +0.000 A 
ATOM     12  C   UNL     1       4.905   4.568  18.518  0.00  0.00    +0.000 A 
ATOM     13  C   UNL     1       4.297   5.820  18.529  0.00  0.00    +0.000 A 
ATOM     14  C   UNL     1       3.067   6.046  19.183  0.00  0.00    +0.000 A 
ATOM     15  C   UNL     1       2.485   4.966  19.867  0.00  0.00    +0.000 A 
BRANCH  10  17
ATOM     16  C   UNL     1       1.854   2.796  21.679  0.00  0.00    +0.000 C 
ATOM     17  O   UNL     1       2.625   2.587  20.504  0.00  0.00    +0.000 OA
ENDBRANCH  10  17
ENDBRANCH   4  14
ENDBRANCH   1   7
BRANCH   3  18
ATOM     18  N   UNL     1      -1.720  12.514  20.168  0.00  0.00    +0.000 NA
ATOM     19  H   UNL     1      -2.243  12.882  19.369  0.00  0.00    +0.000 HD
BRANCH  18  20
ATOM     20  C   UNL     1      -2.571  12.671  21.360  0.00  0.00    +0.000 C 
BRANCH  20  21
ATOM     21  C   UNL     1      -4.041  12.791  20.937  0.00  0.00    +0.000 C 
ATOM     22  O   UNL     1      -4.330  12.934  19.745  0.00  0.00    +0.000 OA
ATOM     23  N   UNL     1      -5.003  12.711  21.934  0.00  0.00    +0.000 N 
ATOM     24  C   UNL     1      -6.402  12.805  21.520  0.00  0.00    +0.000 C 
ATOM     25  C   UNL     1      -7.367  12.248  22.582  0.00  0.00    +0.000 C 
ATOM     26  N   UNL     1      -7.157  12.776  23.947  0.00  0.00    +0.000 NA
ATOM     27  C   UNL     1      -7.567  14.177  24.050  0.00  0.00    +0.000 C 
ATOM     28  C   UNL     1      -5.742  12.595  24.323  0.00  0.00    +0.000 C 
ATOM     29  C   UNL     1      -4.723  13.143  23.308  0.00  0.00    +0.000 C 
ENDBRANCH  20  21
ENDBRANCH  18  20
ENDBRANCH   3  18
TORSDOF 6
ENDMDL
MODEL 7
REMARK VINA RESULT:      -7.9      4.532     10.196
REMARK  Name = 
REMARK  8 active torsions:
REMARK  status: ('A' for Active; 'I' for Inactive)
REMARK    1  A    between atoms: C_1  and  O_2
REMARK    2  A    between atoms: O_2  and  C_3
REMARK    3  A    between atoms: C_7  and  C_8
REMARK    4  A    between atoms: C_11  and  C_12
REMARK    5  A    between atoms: C_14  and  N_15
REMARK    6  A    between atoms: N_15  and  C_16
REMARK    7  A    between atoms: C_16  and  C_17
REMARK    8  A    between atoms: N_22  and  C_23
REMARK                            x       y       z     vdW  Elec       q    Type
REMARK                         _______ _______ _______ _____ _____    ______ ____
ROOT
ATOM      1  C   UNL     1       0.771   9.436  19.603  0.00  0.00    +0.000 C 
ATOM      2  C   UNL     1       1.246  10.854  19.412  0.00  0.00    +0.000 C 
ATOM      3  C   UNL     1      -0.074  10.421  18.840  0.00  0.00    +0.000 C 
ENDROOT
BRANCH   1   7
ATOM      4  C   UNL     1       3.784   6.706  18.073  0.00  0.00    +0.000 A 
ATOM      5  C   UNL     1       3.238   7.748  17.315  0.00  0.00    +0.000 A 
ATOM      6  C   UNL     1       2.236   8.561  17.827  0.00  0.00    +0.000 A 
ATOM      7  C   UNL     1       1.702   8.366  19.111  0.00  0.00    +0.000 A 
ATOM      8  C   UNL     1       2.148   7.247  19.822  0.00  0.00    +0.000 A 
ATOM      9  C   UNL     1       3.175   6.428  19.309  0.00  0.00    +0.000 A 
BRANCH   4  14
ATOM     10  C   UNL     1       6.458   5.269  15.768  0.00  0.00    +0.000 A 
ATOM     11  C   UNL     1       7.332   4.708  16.702  0.00  0.00    +0.000 A 
ATOM     12  C   UNL     1       7.043   4.768  18.059  0.00  0.00    +0.000 A 
ATOM     13  C   UNL     1       5.875   5.398  18.481  0.00  0.00    +0.000 A 
ATOM     14  C   UNL     1       4.985   6.004  17.569  0.00  0.00    +0.000 A 
ATOM     15  C   UNL     1       5.293   5.917  16.202  0.00  0.00    +0.000 A 
BRANCH  10  17
ATOM     16  C   UNL     1       6.299   4.038  13.745  0.00  0.00    +0.000 C 
ATOM     17  O   UNL     1       6.858   5.127  14.467  0.00  0.00    +0.000 OA
ENDBRANCH  10  17
ENDBRANCH   4  14
ENDBRANCH   1   7
BRANCH   3  18
ATOM     18  N   UNL     1      -1.329  10.877  19.479  0.00  0.00    +0.000 NA
ATOM     19  H   UNL     1      -1.173  11.114  20.461  0.00  0.00    +0.000 HD
BRANCH  18  20
ATOM     20  C   UNL     1      -1.908  12.064  18.828  0.00  0.00    +0.000 C 
BRANCH  20  21
ATOM     21  C   UNL     1      -3.092  11.648  17.945  0.00  0.00    +0.000 C 
ATOM     22  O   UNL     1      -2.899  11.318  16.771  0.00  0.00    +0.000 OA
ATOM     23  N   UNL     1      -4.352  11.643  18.525  0.00  0.00    +0.000 N 
ATOM     24  C   UNL     1      -5.472  11.224  17.681  0.00  0.00    +0.000 C 
ATOM     25  C   UNL     1      -6.703  10.806  18.506  0.00  0.00    +0.000 C 
ATOM     26  N   UNL     1      -7.119  11.781  19.536  0.00  0.00    +0.000 NA
ATOM     27  C   UNL     1      -7.706  12.980  18.935  0.00  0.00    +0.000 C 
ATOM     28  C   UNL     1      -5.960  12.112  20.386  0.00  0.00    +0.000 C 
ATOM     29  C   UNL     1      -4.697  12.552  19.623  0.00  0.00    +0.000 C 
ENDBRANCH  20  21
ENDBRANCH  18  20
ENDBRANCH   3  18
TORSDOF 6
ENDMDL
MODEL 8
REMARK VINA RESULT:      -7.8      5.101     10.002
REMARK  Name = 
REMARK  8 active torsions:
REMARK  status: ('A' for Active; 'I' for Inactive)
REMARK    1  A    between atoms: C_1  and  O_2
REMARK    2  A    between atoms: O_2  and  C_3
REMARK    3  A    between atoms: C_7  and  C_8
REMARK    4  A    between atoms: C_11  and  C_12
REMARK    5  A    between atoms: C_14  and  N_15
REMARK    6  A    between atoms: N_15  and  C_16
REMARK    7  A    between atoms: C_16  and  C_17
REMARK    8  A    between atoms: N_22  and  C_23
REMARK                            x       y       z     vdW  Elec       q    Type
REMARK                         _______ _______ _______ _____ _____    ______ ____
ROOT
ATOM      1  C   UNL     1       0.284   9.417  21.106  0.00  0.00    +0.000 C 
ATOM      2  C   UNL     1      -0.690   8.484  21.779  0.00  0.00    +0.000 C 
ATOM      3  C   UNL     1       0.190   9.375  22.608  0.00  0.00    +0.000 C 
ENDROOT
BRANCH   1   7
ATOM      4  C   UNL     1       2.889   7.118  18.499  0.00  0.00    +0.000 A 
ATOM      5  C   UNL     1       2.713   6.827  19.856  0.00  0.00    +0.000 A 
ATOM      6  C   UNL     1       1.914   7.624  20.665  0.00  0.00    +0.000 A 
ATOM      7  C   UNL     1       1.267   8.770  20.174  0.00  0.00    +0.000 A 
ATOM      8  C   UNL     1       1.543   9.141  18.854  0.00  0.00    +0.000 A 
ATOM      9  C   UNL     1       2.344   8.326  18.028  0.00  0.00    +0.000 A 
BRANCH   4  14
ATOM     10  C   UNL     1       5.284   5.504  16.011  0.00  0.00    +0.000 A 
ATOM     11  C   UNL     1       4.869   4.172  16.077  0.00  0.00    +0.000 A 
ATOM     12  C   UNL     1       3.806   3.807  16.894  0.00  0.00    +0.000 A 
ATOM     13  C   UNL     1       3.162   4.781  17.652  0.00  0.00    +0.000 A 
ATOM     14  C   UNL     1       3.574   6.131  17.636  0.00  0.00    +0.000 A 
ATOM     15  C   UNL     1       4.641   6.476  16.791  0.00  0.00    +0.000 A 
BRANCH  10  17
ATOM     16  C   UNL     1       6.669   4.662  14.277  0.00  0.00    +0.000 C 
ATOM     17  O   UNL     1       6.331   5.725  15.157  0.00  0.00    +0.000 OA
ENDBRANCH  10  17
ENDBRANCH   4  14
ENDBRANCH   1   7
BRANCH   3  18
ATOM     18  N   UNL     1      -0.397  10.553  23.285  0.00  0.00    +0.000 NA
ATOM     19  H   UNL     1       0.327  11.097  23.761  0.00  0.00    +0.000 HD
BRANCH  18  20
ATOM     20  C   UNL     1      -1.091  11.463  22.358  0.00  0.00    +0.000 C 
BRANCH  20  21
ATOM     21  C   UNL     1      -2.124  12.298  23.125  0.00  0.00    +0.000 C 
ATOM     22  O   UNL     1      -3.199  11.792  23.460  0.00  0.00    +0.000 OA
ATOM     23  N   UNL     1      -1.787  13.609  23.431  0.00  0.00    +0.000 N 
ATOM     24  C   UNL     1      -2.770  14.392  24.181  0.00  0.00    +0.000 C 
ATOM     25  C   UNL     1      -2.143  15.621  24.863  0.00  0.00    +0.000 C 
ATOM     26  N   UNL     1      -1.321  16.470  23.974  0.00  0.00    +0.000 NA
ATOM     27  C   UNL     1      -2.147  17.201  23.012  0.00  0.00    +0.000 C 
ATOM     28  C   UNL     1      -0.315  15.630  23.298  0.00  0.00    +0.000 C 
ATOM     29  C   UNL     1      -0.878  14.387  22.583  0.00  0.00    +0.000 C 
ENDBRANCH  20  21
ENDBRANCH  18  20
ENDBRANCH   3  18
TORSDOF 6
ENDMDL
MODEL 9
REMARK VINA RESULT:      -7.8      4.972     10.401
REMARK  Name = 
REMARK  8 active torsions:
REMARK  status: ('A' for Active; 'I' for Inactive)
REMARK    1  A    between atoms: C_1  and  O_2
REMARK    2  A    between atoms: O_2  and  C_3
REMARK    3  A    between atoms: C_7  and  C_8
REMARK    4  A    between atoms: C_11  and  C_12
REMARK    5  A    between atoms: C_14  and  N_15
REMARK    6  A    between atoms: N_15  and  C_16
REMARK    7  A    between atoms: C_16  and  C_17
REMARK    8  A    between atoms: N_22  and  C_23
REMARK                            x       y       z     vdW  Elec       q    Type
REMARK                         _______ _______ _______ _____ _____    ______ ____
ROOT
ATOM      1  C   UNL     1       0.352  10.794  20.061  0.00  0.00    +0.000 C 
ATOM      2  C   UNL     1      -1.095  10.802  19.638  0.00  0.00    +0.000 C 
ATOM      3  C   UNL     1      -0.741  10.735  21.096  0.00  0.00    +0.000 C 
ENDROOT
BRANCH   1   7
ATOM      4  C   UNL     1       2.437   7.317  18.501  0.00  0.00    +0.000 A 
ATOM      5  C   UNL     1       2.058   7.446  19.842  0.00  0.00    +0.000 A 
ATOM      6  C   UNL     1       1.444   8.600  20.308  0.00  0.00    +0.000 A 
ATOM      7  C   UNL     1       1.195   9.701  19.472  0.00  0.00    +0.000 A 
ATOM      8  C   UNL     1       1.689   9.632  18.165  0.00  0.00    +0.000 A 
ATOM      9  C   UNL     1       2.301   8.455  17.687  0.00  0.00    +0.000 A 
BRANCH   4  14
ATOM     10  C   UNL     1       4.606   4.501  17.125  0.00  0.00    +0.000 A 
ATOM     11  C   UNL     1       3.700   3.439  17.149  0.00  0.00    +0.000 A 
ATOM     12  C   UNL     1       2.394   3.640  17.578  0.00  0.00    +0.000 A 
ATOM     13  C   UNL     1       1.997   4.910  17.988  0.00  0.00    +0.000 A 
ATOM     14  C   UNL     1       2.894   5.999  18.008  0.00  0.00    +0.000 A 
ATOM     15  C   UNL     1       4.204   5.774  17.556  0.00  0.00    +0.000 A 
BRANCH  10  17
ATOM     16  C   UNL     1       6.179   4.582  15.349  0.00  0.00    +0.000 C 
ATOM     17  O   UNL     1       5.852   4.167  16.669  0.00  0.00    +0.000 OA
ENDBRANCH  10  17
ENDBRANCH   4  14
ENDBRANCH   1   7
BRANCH   3  18
ATOM     18  N   UNL     1      -0.933  11.928  21.949  0.00  0.00    +0.000 NA
ATOM     19  H   UNL     1      -0.059  12.451  22.046  0.00  0.00    +0.000 HD
BRANCH  18  20
ATOM     20  C   UNL     1      -1.945  12.858  21.419  0.00  0.00    +0.000 C 
BRANCH  20  21
ATOM     21  C   UNL     1      -3.268  12.672  22.172  0.00  0.00    +0.000 C 
ATOM     22  O   UNL     1      -3.258  12.395  23.374  0.00  0.00    +0.000 OA
ATOM     23  N   UNL     1      -4.443  12.846  21.454  0.00  0.00    +0.000 N 
ATOM     24  C   UNL     1      -5.700  12.687  22.185  0.00  0.00    +0.000 C 
ATOM     25  C   UNL     1      -6.888  13.343  21.458  0.00  0.00    +0.000 C 
ATOM     26  N   UNL     1      -7.024  12.970  20.033  0.00  0.00    +0.000 NA
ATOM     27  C   UNL     1      -7.465  11.583  19.880  0.00  0.00    +0.000 C 
ATOM     28  C   UNL     1      -5.742  13.212  19.345  0.00  0.00    +0.000 C 
ATOM     29  C   UNL     1      -4.512  12.571  20.015  0.00  0.00    +0.000 C 
ENDBRANCH  20  21
ENDBRANCH  18  20
ENDBRANCH   3  18
TORSDOF 6
ENDMDL
