MODEL 1
REMARK VINA RESULT:      -6.6      0.000      0.000
REMARK  Name = 
REMARK  14 active torsions:
REMARK  status: ('A' for Active; 'I' for Inactive)
REMARK    1  A    between atoms: C_1  and  C_2
REMARK    2  A    between atoms: C_2  and  C_3
REMARK    3  A    between atoms: C_3  and  N_4
REMARK    4  A    between atoms: N_4  and  C_5
REMARK    5  A    between atoms: C_5  and  C_6
REMARK    6  A    between atoms: C_6  and  N_7
REMARK    7  A    between atoms: N_7  and  C_8
REMARK    8  A    between atoms: C_11  and  N_12
REMARK    9  A    between atoms: N_12  and  C_13
REMARK   10  A    between atoms: C_13  and  C_14
REMARK   11  A    between atoms: C_14  and  N_15
REMARK   12  A    between atoms: N_15  and  C_16
REMARK   13  A    between atoms: C_16  and  C_17
REMARK   14  A    between atoms: C_17  and  C_18
REMARK                            x       y       z     vdW  Elec       q    Type
REMARK                         _______ _______ _______ _____ _____    ______ ____
ROOT
ATOM      1  C   UNL     1       4.949   5.504  17.516  0.00  0.00    +0.000 A 
ATOM      2  C   UNL     1       5.341   4.290  18.077  0.00  0.00    +0.000 A 
ATOM      3  C   UNL     1       4.790   3.798  19.240  0.00  0.00    +0.000 A 
ATOM      4  C   UNL     1       3.800   4.502  19.922  0.00  0.00    +0.000 A 
ATOM      5  C   UNL     1       3.361   5.735  19.390  0.00  0.00    +0.000 A 
ATOM      6  C   UNL     1       3.929   6.229  18.195  0.00  0.00    +0.000 A 
ATOM      7  C   UNL     1       3.467   7.534  17.655  0.00  0.00    +0.000 C 
ATOM      8  O   UNL     1       3.895   8.002  16.595  0.00  0.00    +0.000 OA
ATOM      9  C   UNL     1       2.426   8.300  18.341  0.00  0.00    +0.000 A 
ATOM     10  C   UNL     1       1.978   9.505  17.788  0.00  0.00    +0.000 A 
ATOM     11  C   UNL     1       0.990  10.199  18.458  0.00  0.00    +0.000 A 
ATOM     12  N   UNL     1       0.438   9.768  19.610  0.00  0.00    +0.000 NA
ATOM     13  C   UNL     1       0.889   8.592  20.114  0.00  0.00    +0.000 A 
ATOM     14  C   UNL     1       1.876   7.823  19.517  0.00  0.00    +0.000 A 
ATOM     15  C   UNL     1       2.303   6.539  20.094  0.00  0.00    +0.000 C 
ATOM     16  O   UNL     1       1.750   6.170  21.110  0.00  0.00    +0.000 OA
ENDROOT
BRANCH   1  17
ATOM     17  N   UNL     1       5.595   5.985  16.379  0.00  0.00    +0.000 N 
ATOM     18  H   UNL     1       5.391   6.974  16.239  0.00  0.00    +0.000 HD
BRANCH  17  19
ATOM     19  C   UNL     1       5.551   5.187  15.158  0.00  0.00    +0.000 C 
BRANCH  19  20
ATOM     20  C   UNL     1       6.945   5.010  14.557  0.00  0.00    +0.000 C 
BRANCH  20  21
ATOM     21  N   UNL     1       6.886   4.198  13.335  0.00  0.00    +0.000 NA
ATOM     22  H   UNL     1       7.056   4.794  12.523  0.00  0.00    +0.000 HD
BRANCH  21  23
ATOM     23  C   UNL     1       5.566   3.578  13.209  0.00  0.00    +0.000 C 
BRANCH  23  25
ATOM     24  C   UNL     1       4.075   3.270  11.215  0.00  0.00    +0.000 C 
ATOM     25  C   UNL     1       5.424   2.939  11.829  0.00  0.00    +0.000 C 
ENDBRANCH  23  25
ENDBRANCH  21  23
ENDBRANCH  20  21
ENDBRANCH  19  20
ENDBRANCH  17  19
ENDBRANCH   1  17
BRANCH   4  26
ATOM     26  N   UNL     1       3.353   4.006  21.135  0.00  0.00    +0.000 N 
ATOM     27  H   UNL     1       3.297   4.643  21.931  0.00  0.00    +0.000 HD
BRANCH  26  28
ATOM     28  C   UNL     1       2.785   2.674  21.293  0.00  0.00    +0.000 C 
BRANCH  28  29
ATOM     29  C   UNL     1       1.265   2.734  21.541  0.00  0.00    +0.000 C 
BRANCH  29  30
ATOM     30  N   UNL     1       0.561   3.312  20.389  0.00  0.00    +0.000 NA
ATOM     31  H   UNL     1       0.989   4.201  20.138  0.00  0.00    +0.000 HD
BRANCH  30  32
ATOM     32  C   UNL     1       0.591   2.401  19.251  0.00  0.00    +0.000 C 
BRANCH  32  33
ATOM     33  C   UNL     1       1.303   3.070  18.078  0.00  0.00    +0.000 C 
ATOM     34  C   UNL     1       2.365   2.148  17.500  0.00  0.00    +0.000 C 
ENDBRANCH  32  33
ENDBRANCH  30  32
ENDBRANCH  29  30
ENDBRANCH  28  29
ENDBRANCH  26  28
ENDBRANCH   4  26
TORSDOF 12
ENDMDL
MODEL 2
REMARK VINA RESULT:      -6.4      0.965      1.237
REMARK  Name = 
REMARK  14 active torsions:
REMARK  status: ('A' for Active; 'I' for Inactive)
REMARK    1  A    between atoms: C_1  and  C_2
REMARK    2  A    between atoms: C_2  and  C_3
REMARK    3  A    between atoms: C_3  and  N_4
REMARK    4  A    between atoms: N_4  and  C_5
REMARK    5  A    between atoms: C_5  and  C_6
REMARK    6  A    between atoms: C_6  and  N_7
REMARK    7  A    between atoms: N_7  and  C_8
REMARK    8  A    between atoms: C_11  and  N_12
REMARK    9  A    between atoms: N_12  and  C_13
REMARK   10  A    between atoms: C_13  and  C_14
REMARK   11  A    between atoms: C_14  and  N_15
REMARK   12  A    between atoms: N_15  and  C_16
REMARK   13  A    between atoms: C_16  and  C_17
REMARK   14  A    between atoms: C_17  and  C_18
REMARK                            x       y       z     vdW  Elec       q    Type
REMARK                         _______ _______ _______ _____ _____    ______ ____
ROOT
ATOM      1  C   UNL     1       4.142   6.384  17.787  0.00  0.00    +0.000 A 
ATOM      2  C   UNL     1       4.562   5.164  18.314  0.00  0.00    +0.000 A 
ATOM      3  C   UNL     1       4.041   4.641  19.479  0.00  0.00    +0.000 A 
ATOM      4  C   UNL     1       3.058   5.318  20.196  0.00  0.00    +0.000 A 
ATOM      5  C   UNL     1       2.593   6.556  19.698  0.00  0.00    +0.000 A 
ATOM      6  C   UNL     1       3.129   7.082  18.502  0.00  0.00    +0.000 A 
ATOM      7  C   UNL     1       2.639   8.392  17.999  0.00  0.00    +0.000 C 
ATOM      8  O   UNL     1       3.038   8.886  16.940  0.00  0.00    +0.000 OA
ATOM      9  C   UNL     1       1.604   9.130  18.722  0.00  0.00    +0.000 A 
ATOM     10  C   UNL     1       1.129  10.340  18.204  0.00  0.00    +0.000 A 
ATOM     11  C   UNL     1       0.148  11.008  18.910  0.00  0.00    +0.000 A 
ATOM     12  N   UNL     1      -0.374  10.546  20.063  0.00  0.00    +0.000 NA
ATOM     13  C   UNL     1       0.102   9.367  20.534  0.00  0.00    +0.000 A 
ATOM     14  C   UNL     1       1.086   8.623  19.900  0.00  0.00    +0.000 A 
ATOM     15  C   UNL     1       1.540   7.332  20.442  0.00  0.00    +0.000 C 
ATOM     16  O   UNL     1       1.014   6.936  21.462  0.00  0.00    +0.000 OA
ENDROOT
BRANCH   1  17
ATOM     17  N   UNL     1       4.757   6.895  16.646  0.00  0.00    +0.000 N 
ATOM     18  H   UNL     1       4.197   7.643  16.238  0.00  0.00    +0.000 HD
BRANCH  17  19
ATOM     19  C   UNL     1       5.311   5.963  15.670  0.00  0.00    +0.000 C 
BRANCH  19  20
ATOM     20  C   UNL     1       6.816   5.779  15.865  0.00  0.00    +0.000 C 
BRANCH  20  21
ATOM     21  N   UNL     1       7.413   5.105  14.706  0.00  0.00    +0.000 NA
ATOM     22  H   UNL     1       7.571   5.785  13.961  0.00  0.00    +0.000 HD
BRANCH  21  23
ATOM     23  C   UNL     1       6.514   4.057  14.218  0.00  0.00    +0.000 C 
BRANCH  23  25
ATOM     24  C   UNL     1       5.382   3.275  12.120  0.00  0.00    +0.000 C 
ATOM     25  C   UNL     1       6.609   3.960  12.697  0.00  0.00    +0.000 C 
ENDBRANCH  23  25
ENDBRANCH  21  23
ENDBRANCH  20  21
ENDBRANCH  19  20
ENDBRANCH  17  19
ENDBRANCH   1  17
BRANCH   4  26
ATOM     26  N   UNL     1       2.644   4.792  21.408  0.00  0.00    +0.000 N 
ATOM     27  H   UNL     1       2.260   5.428  22.109  0.00  0.00    +0.000 HD
BRANCH  26  28
ATOM     28  C   UNL     1       2.554   3.362  21.668  0.00  0.00    +0.000 C 
BRANCH  28  29
ATOM     29  C   UNL     1       1.118   2.840  21.459  0.00  0.00    +0.000 C 
BRANCH  29  30
ATOM     30  N   UNL     1       0.575   3.283  20.169  0.00  0.00    +0.000 NA
ATOM     31  H   UNL     1       1.047   4.135  19.874  0.00  0.00    +0.000 HD
BRANCH  30  32
ATOM     32  C   UNL     1       0.729   2.247  19.155  0.00  0.00    +0.000 C 
BRANCH  32  33
ATOM     33  C   UNL     1       1.699   2.724  18.077  0.00  0.00    +0.000 C 
ATOM     34  C   UNL     1       1.208   4.019  17.450  0.00  0.00    +0.000 C 
ENDBRANCH  32  33
ENDBRANCH  30  32
ENDBRANCH  29  30
ENDBRANCH  28  29
ENDBRANCH  26  28
ENDBRANCH   4  26
TORSDOF 12
ENDMDL
MODEL 3
REMARK VINA RESULT:      -6.4      1.706      7.232
REMARK  Name = 
REMARK  14 active torsions:
REMARK  status: ('A' for Active; 'I' for Inactive)
REMARK    1  A    between atoms: C_1  and  C_2
REMARK    2  A    between atoms: C_2  and  C_3
REMARK    3  A    between atoms: C_3  and  N_4
REMARK    4  A    between atoms: N_4  and  C_5
REMARK    5  A    between atoms: C_5  and  C_6
REMARK    6  A    between atoms: C_6  and  N_7
REMARK    7  A    between atoms: N_7  and  C_8
REMARK    8  A    between atoms: C_11  and  N_12
REMARK    9  A    between atoms: N_12  and  C_13
REMARK   10  A    between atoms: C_13  and  C_14
REMARK   11  A    between atoms: C_14  and  N_15
REMARK   12  A    between atoms: N_15  and  C_16
REMARK   13  A    between atoms: C_16  and  C_17
REMARK   14  A    between atoms: C_17  and  C_18
REMARK                            x       y       z     vdW  Elec       q    Type
REMARK                         _______ _______ _______ _____ _____    ______ ____
ROOT
ATOM      1  C   UNL     1       3.387   7.463  17.893  0.00  0.00    +0.000 A 
ATOM      2  C   UNL     1       4.219   7.685  16.798  0.00  0.00    +0.000 A 
ATOM      3  C   UNL     1       4.917   6.670  16.179  0.00  0.00    +0.000 A 
ATOM      4  C   UNL     1       4.822   5.354  16.625  0.00  0.00    +0.000 A 
ATOM      5  C   UNL     1       3.983   5.075  17.728  0.00  0.00    +0.000 A 
ATOM      6  C   UNL     1       3.270   6.120  18.353  0.00  0.00    +0.000 A 
ATOM      7  C   UNL     1       2.403   5.813  19.520  0.00  0.00    +0.000 C 
ATOM      8  O   UNL     1       1.722   6.675  20.086  0.00  0.00    +0.000 OA
ATOM      9  C   UNL     1       2.274   4.443  20.015  0.00  0.00    +0.000 A 
ATOM     10  C   UNL     1       1.417   4.173  21.088  0.00  0.00    +0.000 A 
ATOM     11  C   UNL     1       1.315   2.867  21.525  0.00  0.00    +0.000 A 
ATOM     12  N   UNL     1       1.994   1.847  20.965  0.00  0.00    +0.000 NA
ATOM     13  C   UNL     1       2.810   2.141  19.922  0.00  0.00    +0.000 A 
ATOM     14  C   UNL     1       2.981   3.418  19.411  0.00  0.00    +0.000 A 
ATOM     15  C   UNL     1       3.855   3.672  18.255  0.00  0.00    +0.000 C 
ATOM     16  O   UNL     1       4.417   2.718  17.756  0.00  0.00    +0.000 OA
ENDROOT
BRANCH   1  17
ATOM     17  N   UNL     1       2.765   8.539  18.523  0.00  0.00    +0.000 N 
ATOM     18  H   UNL     1       2.651   8.357  19.519  0.00  0.00    +0.000 HD
BRANCH  17  19
ATOM     19  C   UNL     1       1.600   9.145  17.888  0.00  0.00    +0.000 C 
BRANCH  19  20
ATOM     20  C   UNL     1       1.311  10.533  18.460  0.00  0.00    +0.000 C 
BRANCH  20  21
ATOM     21  N   UNL     1       0.169  10.489  19.382  0.00  0.00    +0.000 NA
ATOM     22  H   UNL     1      -0.376  11.347  19.289  0.00  0.00    +0.000 HD
BRANCH  21  23
ATOM     23  C   UNL     1       0.644  10.369  20.762  0.00  0.00    +0.000 C 
BRANCH  23  25
ATOM     24  C   UNL     1      -0.256   9.547  22.954  0.00  0.00    +0.000 C 
ATOM     25  C   UNL     1      -0.107   9.246  21.473  0.00  0.00    +0.000 C 
ENDBRANCH  23  25
ENDBRANCH  21  23
ENDBRANCH  20  21
ENDBRANCH  19  20
ENDBRANCH  17  19
ENDBRANCH   1  17
BRANCH   4  26
ATOM     26  N   UNL     1       5.620   4.394  16.026  0.00  0.00    +0.000 N 
ATOM     27  H   UNL     1       5.193   3.507  15.754  0.00  0.00    +0.000 HD
BRANCH  26  28
ATOM     28  C   UNL     1       6.988   4.647  15.597  0.00  0.00    +0.000 C 
BRANCH  28  29
ATOM     29  C   UNL     1       7.127   4.540  14.065  0.00  0.00    +0.000 C 
BRANCH  29  30
ATOM     30  N   UNL     1       6.135   3.615  13.505  0.00  0.00    +0.000 NA
ATOM     31  H   UNL     1       5.199   3.989  13.647  0.00  0.00    +0.000 HD
BRANCH  30  32
ATOM     32  C   UNL     1       6.375   3.390  12.084  0.00  0.00    +0.000 C 
BRANCH  32  33
ATOM     33  C   UNL     1       5.348   2.400  11.541  0.00  0.00    +0.000 C 
ATOM     34  C   UNL     1       4.048   3.111  11.199  0.00  0.00    +0.000 C 
ENDBRANCH  32  33
ENDBRANCH  30  32
ENDBRANCH  29  30
ENDBRANCH  28  29
ENDBRANCH  26  28
ENDBRANCH   4  26
TORSDOF 12
ENDMDL
MODEL 4
REMARK VINA RESULT:      -6.4      1.924      5.865
REMARK  Name = 
REMARK  14 active torsions:
REMARK  status: ('A' for Active; 'I' for Inactive)
REMARK    1  A    between atoms: C_1  and  C_2
REMARK    2  A    between atoms: C_2  and  C_3
REMARK    3  A    between atoms: C_3  and  N_4
REMARK    4  A    between atoms: N_4  and  C_5
REMARK    5  A    between atoms: C_5  and  C_6
REMARK    6  A    between atoms: C_6  and  N_7
REMARK    7  A    between atoms: N_7  and  C_8
REMARK    8  A    between atoms: C_11  and  N_12
REMARK    9  A    between atoms: N_12  and  C_13
REMARK   10  A    between atoms: C_13  and  C_14
REMARK   11  A    between atoms: C_14  and  N_15
REMARK   12  A    between atoms: N_15  and  C_16
REMARK   13  A    between atoms: C_16  and  C_17
REMARK   14  A    between atoms: C_17  and  C_18
REMARK                            x       y       z     vdW  Elec       q    Type
REMARK                         _______ _______ _______ _____ _____    ______ ____
ROOT
ATOM      1  C   UNL     1       2.237   7.592  18.631  0.00  0.00    +0.000 A 
ATOM      2  C   UNL     1       1.572   7.364  19.834  0.00  0.00    +0.000 A 
ATOM      3  C   UNL     1       1.912   6.336  20.687  0.00  0.00    +0.000 A 
ATOM      4  C   UNL     1       2.953   5.462  20.382  0.00  0.00    +0.000 A 
ATOM      5  C   UNL     1       3.666   5.656  19.177  0.00  0.00    +0.000 A 
ATOM      6  C   UNL     1       3.312   6.714  18.312  0.00  0.00    +0.000 A 
ATOM      7  C   UNL     1       4.061   6.897  17.042  0.00  0.00    +0.000 C 
ATOM      8  O   UNL     1       3.828   7.826  16.261  0.00  0.00    +0.000 OA
ATOM      9  C   UNL     1       5.164   6.002  16.690  0.00  0.00    +0.000 A 
ATOM     10  C   UNL     1       5.882   6.222  15.509  0.00  0.00    +0.000 A 
ATOM     11  C   UNL     1       6.920   5.362  15.210  0.00  0.00    +0.000 A 
ATOM     12  N   UNL     1       7.274   4.331  16.003  0.00  0.00    +0.000 NA
ATOM     13  C   UNL     1       6.563   4.150  17.143  0.00  0.00    +0.000 A 
ATOM     14  C   UNL     1       5.504   4.958  17.531  0.00  0.00    +0.000 A 
ATOM     15  C   UNL     1       4.790   4.733  18.797  0.00  0.00    +0.000 C 
ATOM     16  O   UNL     1       5.169   3.817  19.499  0.00  0.00    +0.000 OA
ENDROOT
BRANCH   1  17
ATOM     17  N   UNL     1       1.800   8.601  17.776  0.00  0.00    +0.000 N 
ATOM     18  H   UNL     1       2.184   8.473  16.840  0.00  0.00    +0.000 HD
BRANCH  17  19
ATOM     19  C   UNL     1       1.826   9.981  18.249  0.00  0.00    +0.000 C 
BRANCH  19  20
ATOM     20  C   UNL     1       0.414  10.522  18.469  0.00  0.00    +0.000 C 
BRANCH  20  21
ATOM     21  N   UNL     1      -0.525   9.936  17.504  0.00  0.00    +0.000 NA
ATOM     22  H   UNL     1      -0.329  10.304  16.572  0.00  0.00    +0.000 HD
BRANCH  21  23
ATOM     23  C   UNL     1      -1.901  10.275  17.875  0.00  0.00    +0.000 C 
BRANCH  23  25
ATOM     24  C   UNL     1      -2.764  10.676  15.553  0.00  0.00    +0.000 C 
ATOM     25  C   UNL     1      -2.862   9.797  16.789  0.00  0.00    +0.000 C 
ENDBRANCH  23  25
ENDBRANCH  21  23
ENDBRANCH  20  21
ENDBRANCH  19  20
ENDBRANCH  17  19
ENDBRANCH   1  17
BRANCH   4  26
ATOM     26  N   UNL     1       3.186   4.391  21.228  0.00  0.00    +0.000 N 
ATOM     27  H   UNL     1       4.141   4.222  21.549  0.00  0.00    +0.000 HD
BRANCH  26  28
ATOM     28  C   UNL     1       2.120   3.604  21.832  0.00  0.00    +0.000 C 
BRANCH  28  29
ATOM     29  C   UNL     1       1.633   2.492  20.883  0.00  0.00    +0.000 C 
BRANCH  29  30
ATOM     30  N   UNL     1       0.488   2.941  20.082  0.00  0.00    +0.000 NA
ATOM     31  H   UNL     1       0.464   3.959  20.060  0.00  0.00    +0.000 HD
BRANCH  30  32
ATOM     32  C   UNL     1       0.560   2.411  18.726  0.00  0.00    +0.000 C 
BRANCH  32  33
ATOM     33  C   UNL     1       1.654   3.140  17.949  0.00  0.00    +0.000 C 
ATOM     34  C   UNL     1       2.706   2.159  17.458  0.00  0.00    +0.000 C 
ENDBRANCH  32  33
ENDBRANCH  30  32
ENDBRANCH  29  30
ENDBRANCH  28  29
ENDBRANCH  26  28
ENDBRANCH   4  26
TORSDOF 12
ENDMDL
MODEL 5
REMARK VINA RESULT:      -6.4      1.893      7.194
REMARK  Name = 
REMARK  14 active torsions:
REMARK  status: ('A' for Active; 'I' for Inactive)
REMARK    1  A    between atoms: C_1  and  C_2
REMARK    2  A    between atoms: C_2  and  C_3
REMARK    3  A    between atoms: C_3  and  N_4
REMARK    4  A    between atoms: N_4  and  C_5
REMARK    5  A    between atoms: C_5  and  C_6
REMARK    6  A    between atoms: C_6  and  N_7
REMARK    7  A    between atoms: N_7  and  C_8
REMARK    8  A    between atoms: C_11  and  N_12
REMARK    9  A    between atoms: N_12  and  C_13
REMARK   10  A    between atoms: C_13  and  C_14
REMARK   11  A    between atoms: C_14  and  N_15
REMARK   12  A    between atoms: N_15  and  C_16
REMARK   13  A    between atoms: C_16  and  C_17
REMARK   14  A    between atoms: C_17  and  C_18
REMARK                            x       y       z     vdW  Elec       q    Type
REMARK                         _______ _______ _______ _____ _____    ______ ____
ROOT
ATOM      1  C   UNL     1       3.723   7.281  17.546  0.00  0.00    +0.000 A 
ATOM      2  C   UNL     1       4.585   7.390  16.456  0.00  0.00    +0.000 A 
ATOM      3  C   UNL     1       5.182   6.294  15.870  0.00  0.00    +0.000 A 
ATOM      4  C   UNL     1       4.951   5.006  16.348  0.00  0.00    +0.000 A 
ATOM      5  C   UNL     1       4.079   4.842  17.447  0.00  0.00    +0.000 A 
ATOM      6  C   UNL     1       3.468   5.970  18.038  0.00  0.00    +0.000 A 
ATOM      7  C   UNL     1       2.563   5.782  19.202  0.00  0.00    +0.000 C 
ATOM      8  O   UNL     1       1.967   6.722  19.738  0.00  0.00    +0.000 OA
ATOM      9  C   UNL     1       2.292   4.444  19.729  0.00  0.00    +0.000 A 
ATOM     10  C   UNL     1       1.403   4.290  20.798  0.00  0.00    +0.000 A 
ATOM     11  C   UNL     1       1.165   3.013  21.267  0.00  0.00    +0.000 A 
ATOM     12  N   UNL     1       1.744   1.916  20.740  0.00  0.00    +0.000 NA
ATOM     13  C   UNL     1       2.595   2.099  19.700  0.00  0.00    +0.000 A 
ATOM     14  C   UNL     1       2.899   3.339  19.159  0.00  0.00    +0.000 A 
ATOM     15  C   UNL     1       3.805   3.473  18.008  0.00  0.00    +0.000 C 
ATOM     16  O   UNL     1       4.272   2.454  17.541  0.00  0.00    +0.000 OA
ENDROOT
BRANCH   1  17
ATOM     17  N   UNL     1       3.207   8.431  18.141  0.00  0.00    +0.000 N 
ATOM     18  H   UNL     1       3.180   8.331  19.155  0.00  0.00    +0.000 HD
BRANCH  17  19
ATOM     19  C   UNL     1       2.013   9.040  17.567  0.00  0.00    +0.000 C 
BRANCH  19  20
ATOM     20  C   UNL     1       1.478  10.164  18.456  0.00  0.00    +0.000 C 
BRANCH  20  21
ATOM     21  N   UNL     1       0.978   9.628  19.728  0.00  0.00    +0.000 NA
ATOM     22  H   UNL     1       0.997   8.607  19.699  0.00  0.00    +0.000 HD
BRANCH  21  23
ATOM     23  C   UNL     1      -0.398  10.076  19.953  0.00  0.00    +0.000 C 
BRANCH  23  25
ATOM     24  C   UNL     1      -1.876  12.101  19.878  0.00  0.00    +0.000 C 
ATOM     25  C   UNL     1      -0.447  11.601  19.994  0.00  0.00    +0.000 C 
ENDBRANCH  23  25
ENDBRANCH  21  23
ENDBRANCH  20  21
ENDBRANCH  19  20
ENDBRANCH  17  19
ENDBRANCH   1  17
BRANCH   4  26
ATOM     26  N   UNL     1       5.654   3.956  15.783  0.00  0.00    +0.000 N 
ATOM     27  H   UNL     1       5.477   3.011  16.127  0.00  0.00    +0.000 HD
BRANCH  26  28
ATOM     28  C   UNL     1       6.495   4.101  14.603  0.00  0.00    +0.000 C 
BRANCH  28  29
ATOM     29  C   UNL     1       5.682   3.922  13.306  0.00  0.00    +0.000 C 
BRANCH  29  30
ATOM     30  N   UNL     1       6.135   2.746  12.553  0.00  0.00    +0.000 NA
ATOM     31  H   UNL     1       6.056   1.915  13.136  0.00  0.00    +0.000 HD
BRANCH  30  32
ATOM     32  C   UNL     1       5.357   2.577  11.332  0.00  0.00    +0.000 C 
BRANCH  32  33
ATOM     33  C   UNL     1       4.046   3.349  11.448  0.00  0.00    +0.000 C 
ATOM     34  C   UNL     1       3.337   3.407  10.105  0.00  0.00    +0.000 C 
ENDBRANCH  32  33
ENDBRANCH  30  32
ENDBRANCH  29  30
ENDBRANCH  28  29
ENDBRANCH  26  28
ENDBRANCH   4  26
TORSDOF 12
ENDMDL
MODEL 6
REMARK VINA RESULT:      -6.4      2.034      7.097
REMARK  Name = 
REMARK  14 active torsions:
REMARK  status: ('A' for Active; 'I' for Inactive)
REMARK    1  A    between atoms: C_1  and  C_2
REMARK    2  A    between atoms: C_2  and  C_3
REMARK    3  A    between atoms: C_3  and  N_4
REMARK    4  A    between atoms: N_4  and  C_5
REMARK    5  A    between atoms: C_5  and  C_6
REMARK    6  A    between atoms: C_6  and  N_7
REMARK    7  A    between atoms: N_7  and  C_8
REMARK    8  A    between atoms: C_11  and  N_12
REMARK    9  A    between atoms: N_12  and  C_13
REMARK   10  A    between atoms: C_13  and  C_14
REMARK   11  A    between atoms: C_14  and  N_15
REMARK   12  A    between atoms: N_15  and  C_16
REMARK   13  A    between atoms: C_16  and  C_17
REMARK   14  A    between atoms: C_17  and  C_18
REMARK                            x       y       z     vdW  Elec       q    Type
REMARK                         _______ _______ _______ _____ _____    ______ ____
ROOT
ATOM      1  C   UNL     1       3.360   7.492  17.829  0.00  0.00    +0.000 A 
ATOM      2  C   UNL     1       4.194   7.725  16.738  0.00  0.00    +0.000 A 
ATOM      3  C   UNL     1       4.891   6.716  16.108  0.00  0.00    +0.000 A 
ATOM      4  C   UNL     1       4.794   5.395  16.540  0.00  0.00    +0.000 A 
ATOM      5  C   UNL     1       3.953   5.105  17.639  0.00  0.00    +0.000 A 
ATOM      6  C   UNL     1       3.241   6.145  18.275  0.00  0.00    +0.000 A 
ATOM      7  C   UNL     1       2.372   5.827  19.437  0.00  0.00    +0.000 C 
ATOM      8  O   UNL     1       1.692   6.683  20.012  0.00  0.00    +0.000 OA
ATOM      9  C   UNL     1       2.240   4.451  19.917  0.00  0.00    +0.000 A 
ATOM     10  C   UNL     1       1.382   4.171  20.986  0.00  0.00    +0.000 A 
ATOM     11  C   UNL     1       1.277   2.861  21.409  0.00  0.00    +0.000 A 
ATOM     12  N   UNL     1       1.955   1.846  20.838  0.00  0.00    +0.000 NA
ATOM     13  C   UNL     1       2.772   2.149  19.800  0.00  0.00    +0.000 A 
ATOM     14  C   UNL     1       2.946   3.432  19.302  0.00  0.00    +0.000 A 
ATOM     15  C   UNL     1       3.822   3.697  18.151  0.00  0.00    +0.000 C 
ATOM     16  O   UNL     1       4.382   2.747  17.642  0.00  0.00    +0.000 OA
ENDROOT
BRANCH   1  17
ATOM     17  N   UNL     1       2.740   8.563  18.470  0.00  0.00    +0.000 N 
ATOM     18  H   UNL     1       2.308   8.260  19.343  0.00  0.00    +0.000 HD
BRANCH  17  19
ATOM     19  C   UNL     1       1.917   9.471  17.679  0.00  0.00    +0.000 C 
BRANCH  19  20
ATOM     20  C   UNL     1       0.693   9.943  18.464  0.00  0.00    +0.000 C 
BRANCH  20  21
ATOM     21  N   UNL     1      -0.504   9.939  17.615  0.00  0.00    +0.000 NA
ATOM     22  H   UNL     1      -0.392  10.625  16.866  0.00  0.00    +0.000 HD
BRANCH  21  23
ATOM     23  C   UNL     1      -1.684  10.286  18.410  0.00  0.00    +0.000 C 
BRANCH  23  25
ATOM     24  C   UNL     1      -3.917  11.277  17.841  0.00  0.00    +0.000 C 
ATOM     25  C   UNL     1      -2.943  10.146  17.558  0.00  0.00    +0.000 C 
ENDBRANCH  23  25
ENDBRANCH  21  23
ENDBRANCH  20  21
ENDBRANCH  19  20
ENDBRANCH  17  19
ENDBRANCH   1  17
BRANCH   4  26
ATOM     26  N   UNL     1       5.590   4.440  15.931  0.00  0.00    +0.000 N 
ATOM     27  H   UNL     1       5.193   3.517  15.752  0.00  0.00    +0.000 HD
BRANCH  26  28
ATOM     28  C   UNL     1       6.900   4.735  15.367  0.00  0.00    +0.000 C 
BRANCH  28  29
ATOM     29  C   UNL     1       6.921   4.511  13.842  0.00  0.00    +0.000 C 
BRANCH  29  30
ATOM     30  N   UNL     1       6.345   3.207  13.489  0.00  0.00    +0.000 NA
ATOM     31  H   UNL     1       5.570   2.995  14.114  0.00  0.00    +0.000 HD
BRANCH  30  32
ATOM     32  C   UNL     1       5.890   3.196  12.104  0.00  0.00    +0.000 C 
BRANCH  32  33
ATOM     33  C   UNL     1       4.431   3.642  12.040  0.00  0.00    +0.000 C 
ATOM     34  C   UNL     1       3.781   3.165  10.752  0.00  0.00    +0.000 C 
ENDBRANCH  32  33
ENDBRANCH  30  32
ENDBRANCH  29  30
ENDBRANCH  28  29
ENDBRANCH  26  28
ENDBRANCH   4  26
TORSDOF 12
ENDMDL
MODEL 7
REMARK VINA RESULT:      -6.3      1.967      6.510
REMARK  Name = 
REMARK  14 active torsions:
REMARK  status: ('A' for Active; 'I' for Inactive)
REMARK    1  A    between atoms: C_1  and  C_2
REMARK    2  A    between atoms: C_2  and  C_3
REMARK    3  A    between atoms: C_3  and  N_4
REMARK    4  A    between atoms: N_4  and  C_5
REMARK    5  A    between atoms: C_5  and  C_6
REMARK    6  A    between atoms: C_6  and  N_7
REMARK    7  A    between atoms: N_7  and  C_8
REMARK    8  A    between atoms: C_11  and  N_12
REMARK    9  A    between atoms: N_12  and  C_13
REMARK   10  A    between atoms: C_13  and  C_14
REMARK   11  A    between atoms: C_14  and  N_15
REMARK   12  A    between atoms: N_15  and  C_16
REMARK   13  A    between atoms: C_16  and  C_17
REMARK   14  A    between atoms: C_17  and  C_18
REMARK                            x       y       z     vdW  Elec       q    Type
REMARK                         _______ _______ _______ _____ _____    ______ ____
ROOT
ATOM      1  C   UNL     1       2.681   5.421  20.570  0.00  0.00    +0.000 A 
ATOM      2  C   UNL     1       1.708   6.288  21.062  0.00  0.00    +0.000 A 
ATOM      3  C   UNL     1       1.346   7.446  20.406  0.00  0.00    +0.000 A 
ATOM      4  C   UNL     1       1.947   7.810  19.202  0.00  0.00    +0.000 A 
ATOM      5  C   UNL     1       2.935   6.959  18.657  0.00  0.00    +0.000 A 
ATOM      6  C   UNL     1       3.295   5.773  19.335  0.00  0.00    +0.000 A 
ATOM      7  C   UNL     1       4.346   4.895  18.756  0.00  0.00    +0.000 C 
ATOM      8  O   UNL     1       4.678   3.826  19.278  0.00  0.00    +0.000 OA
ATOM      9  C   UNL     1       4.995   5.242  17.492  0.00  0.00    +0.000 A 
ATOM     10  C   UNL     1       5.950   4.376  16.946  0.00  0.00    +0.000 A 
ATOM     11  C   UNL     1       6.539   4.731  15.749  0.00  0.00    +0.000 A 
ATOM     12  N   UNL     1       6.233   5.862  15.084  0.00  0.00    +0.000 NA
ATOM     13  C   UNL     1       5.298   6.675  15.635  0.00  0.00    +0.000 A 
ATOM     14  C   UNL     1       4.651   6.408  16.833  0.00  0.00    +0.000 A 
ATOM     15  C   UNL     1       3.621   7.312  17.367  0.00  0.00    +0.000 C 
ATOM     16  O   UNL     1       3.348   8.299  16.714  0.00  0.00    +0.000 OA
ENDROOT
BRANCH   1  17
ATOM     17  N   UNL     1       3.056   4.304  21.315  0.00  0.00    +0.000 N 
ATOM     18  H   UNL     1       3.795   3.786  20.840  0.00  0.00    +0.000 HD
BRANCH  17  19
ATOM     19  C   UNL     1       2.013   3.465  21.892  0.00  0.00    +0.000 C 
BRANCH  19  20
ATOM     20  C   UNL     1       1.433   2.502  20.856  0.00  0.00    +0.000 C 
BRANCH  20  21
ATOM     21  N   UNL     1       2.473   2.055  19.921  0.00  0.00    +0.000 NA
ATOM     22  H   UNL     1       3.253   2.715  19.939  0.00  0.00    +0.000 HD
BRANCH  21  23
ATOM     23  C   UNL     1       1.931   1.990  18.563  0.00  0.00    +0.000 C 
BRANCH  23  25
ATOM     24  C   UNL     1       1.239   4.086  17.369  0.00  0.00    +0.000 C 
ATOM     25  C   UNL     1       0.834   3.039  18.392  0.00  0.00    +0.000 C 
ENDBRANCH  23  25
ENDBRANCH  21  23
ENDBRANCH  20  21
ENDBRANCH  19  20
ENDBRANCH  17  19
ENDBRANCH   1  17
BRANCH   4  26
ATOM     26  N   UNL     1       1.613   9.030  18.640  0.00  0.00    +0.000 N 
ATOM     27  H   UNL     1       1.604   9.111  17.622  0.00  0.00    +0.000 HD
BRANCH  26  28
ATOM     28  C   UNL     1       1.097  10.151  19.413  0.00  0.00    +0.000 C 
BRANCH  28  29
ATOM     29  C   UNL     1      -0.295  10.588  18.913  0.00  0.00    +0.000 C 
BRANCH  29  30
ATOM     30  N   UNL     1      -0.569  10.054  17.573  0.00  0.00    +0.000 NA
ATOM     31  H   UNL     1      -0.075   9.173  17.448  0.00  0.00    +0.000 HD
BRANCH  30  32
ATOM     32  C   UNL     1      -2.000   9.860  17.372  0.00  0.00    +0.000 C 
BRANCH  32  33
ATOM     33  C   UNL     1      -2.515  10.868  16.348  0.00  0.00    +0.000 C 
ATOM     34  C   UNL     1      -2.880  10.172  15.047  0.00  0.00    +0.000 C 
ENDBRANCH  32  33
ENDBRANCH  30  32
ENDBRANCH  29  30
ENDBRANCH  28  29
ENDBRANCH  26  28
ENDBRANCH   4  26
TORSDOF 12
ENDMDL
MODEL 8
REMARK VINA RESULT:      -6.3      1.993      5.240
REMARK  Name = 
REMARK  14 active torsions:
REMARK  status: ('A' for Active; 'I' for Inactive)
REMARK    1  A    between atoms: C_1  and  C_2
REMARK    2  A    between atoms: C_2  and  C_3
REMARK    3  A    between atoms: C_3  and  N_4
REMARK    4  A    between atoms: N_4  and  C_5
REMARK    5  A    between atoms: C_5  and  C_6
REMARK    6  A    between atoms: C_6  and  N_7
REMARK    7  A    between atoms: N_7  and  C_8
REMARK    8  A    between atoms: C_11  and  N_12
REMARK    9  A    between atoms: N_12  and  C_13
REMARK   10  A    between atoms: C_13  and  C_14
REMARK   11  A    between atoms: C_14  and  N_15
REMARK   12  A    between atoms: N_15  and  C_16
REMARK   13  A    between atoms: C_16  and  C_17
REMARK   14  A    between atoms: C_17  and  C_18
REMARK                            x       y       z     vdW  Elec       q    Type
REMARK                         _______ _______ _______ _____ _____    ______ ____
ROOT
ATOM      1  C   UNL     1       4.476   5.964  16.916  0.00  0.00    +0.000 A 
ATOM      2  C   UNL     1       4.246   7.270  16.488  0.00  0.00    +0.000 A 
ATOM      3  C   UNL     1       3.410   8.134  17.163  0.00  0.00    +0.000 A 
ATOM      4  C   UNL     1       2.745   7.737  18.320  0.00  0.00    +0.000 A 
ATOM      5  C   UNL     1       2.951   6.424  18.800  0.00  0.00    +0.000 A 
ATOM      6  C   UNL     1       3.813   5.547  18.105  0.00  0.00    +0.000 A 
ATOM      7  C   UNL     1       4.009   4.165  18.614  0.00  0.00    +0.000 C 
ATOM      8  O   UNL     1       4.779   3.363  18.075  0.00  0.00    +0.000 OA
ATOM      9  C   UNL     1       3.332   3.713  19.829  0.00  0.00    +0.000 A 
ATOM     10  C   UNL     1       3.568   2.421  20.312  0.00  0.00    +0.000 A 
ATOM     11  C   UNL     1       2.916   2.029  21.465  0.00  0.00    +0.000 A 
ATOM     12  N   UNL     1       2.074   2.833  22.144  0.00  0.00    +0.000 NA
ATOM     13  C   UNL     1       1.873   4.081  21.654  0.00  0.00    +0.000 A 
ATOM     14  C   UNL     1       2.479   4.567  20.506  0.00  0.00    +0.000 A 
ATOM     15  C   UNL     1       2.248   5.943  20.039  0.00  0.00    +0.000 C 
ATOM     16  O   UNL     1       1.513   6.645  20.705  0.00  0.00    +0.000 OA
ENDROOT
BRANCH   1  17
ATOM     17  N   UNL     1       5.273   5.113  16.152  0.00  0.00    +0.000 N 
ATOM     18  H   UNL     1       5.143   4.144  16.438  0.00  0.00    +0.000 HD
BRANCH  17  19
ATOM     19  C   UNL     1       6.663   5.484  15.912  0.00  0.00    +0.000 C 
BRANCH  19  20
ATOM     20  C   UNL     1       7.253   4.708  14.735  0.00  0.00    +0.000 C 
BRANCH  20  21
ATOM     21  N   UNL     1       6.374   3.596  14.351  0.00  0.00    +0.000 NA
ATOM     22  H   UNL     1       6.921   2.736  14.291  0.00  0.00    +0.000 HD
BRANCH  21  23
ATOM     23  C   UNL     1       5.762   3.868  13.049  0.00  0.00    +0.000 C 
BRANCH  23  25
ATOM     24  C   UNL     1       5.656   1.960  11.424  0.00  0.00    +0.000 C 
ATOM     25  C   UNL     1       6.505   3.101  11.957  0.00  0.00    +0.000 C 
ENDBRANCH  23  25
ENDBRANCH  21  23
ENDBRANCH  20  21
ENDBRANCH  19  20
ENDBRANCH  17  19
ENDBRANCH   1  17
BRANCH   4  26
ATOM     26  N   UNL     1       1.844   8.615  18.899  0.00  0.00    +0.000 N 
ATOM     27  H   UNL     1       1.729   8.597  19.914  0.00  0.00    +0.000 HD
BRANCH  26  28
ATOM     28  C   UNL     1       1.189   9.687  18.163  0.00  0.00    +0.000 C 
BRANCH  28  29
ATOM     29  C   UNL     1      -0.130  10.112  18.840  0.00  0.00    +0.000 C 
BRANCH  29  30
ATOM     30  N   UNL     1      -0.965  10.902  17.926  0.00  0.00    +0.000 NA
ATOM     31  H   UNL     1      -0.373  11.490  17.344  0.00  0.00    +0.000 HD
BRANCH  30  32
ATOM     32  C   UNL     1      -1.787  10.035  17.091  0.00  0.00    +0.000 C 
BRANCH  32  33
ATOM     33  C   UNL     1      -2.547  10.877  16.069  0.00  0.00    +0.000 C 
ATOM     34  C   UNL     1      -3.077  10.005  14.943  0.00  0.00    +0.000 C 
ENDBRANCH  32  33
ENDBRANCH  30  32
ENDBRANCH  29  30
ENDBRANCH  28  29
ENDBRANCH  26  28
ENDBRANCH   4  26
TORSDOF 12
ENDMDL
MODEL 9
REMARK VINA RESULT:      -6.3      2.102      6.593
REMARK  Name = 
REMARK  14 active torsions:
REMARK  status: ('A' for Active; 'I' for Inactive)
REMARK    1  A    between atoms: C_1  and  C_2
REMARK    2  A    between atoms: C_2  and  C_3
REMARK    3  A    between atoms: C_3  and  N_4
REMARK    4  A    between atoms: N_4  and  C_5
REMARK    5  A    between atoms: C_5  and  C_6
REMARK    6  A    between atoms: C_6  and  N_7
REMARK    7  A    between atoms: N_7  and  C_8
REMARK    8  A    between atoms: C_11  and  N_12
REMARK    9  A    between atoms: N_12  and  C_13
REMARK   10  A    between atoms: C_13  and  C_14
REMARK   11  A    between atoms: C_14  and  N_15
REMARK   12  A    between atoms: N_15  and  C_16
REMARK   13  A    between atoms: C_16  and  C_17
REMARK   14  A    between atoms: C_17  and  C_18
REMARK                            x       y       z     vdW  Elec       q    Type
REMARK                         _______ _______ _______ _____ _____    ______ ____
ROOT
ATOM      1  C   UNL     1       2.773   5.324  20.548  0.00  0.00    +0.000 A 
ATOM      2  C   UNL     1       1.693   6.160  20.826  0.00  0.00    +0.000 A 
ATOM      3  C   UNL     1       1.378   7.250  20.042  0.00  0.00    +0.000 A 
ATOM      4  C   UNL     1       2.136   7.573  18.919  0.00  0.00    +0.000 A 
ATOM      5  C   UNL     1       3.238   6.751  18.590  0.00  0.00    +0.000 A 
ATOM      6  C   UNL     1       3.551   5.635  19.397  0.00  0.00    +0.000 A 
ATOM      7  C   UNL     1       4.720   4.788  19.045  0.00  0.00    +0.000 C 
ATOM      8  O   UNL     1       5.023   3.776  19.686  0.00  0.00    +0.000 OA
ATOM      9  C   UNL     1       5.537   5.093  17.871  0.00  0.00    +0.000 A 
ATOM     10  C   UNL     1       6.607   4.255  17.537  0.00  0.00    +0.000 A 
ATOM     11  C   UNL     1       7.354   4.569  16.419  0.00  0.00    +0.000 A 
ATOM     12  N   UNL     1       7.096   5.636  15.637  0.00  0.00    +0.000 NA
ATOM     13  C   UNL     1       6.048   6.423  15.983  0.00  0.00    +0.000 A 
ATOM     14  C   UNL     1       5.240   6.193  17.086  0.00  0.00    +0.000 A 
ATOM     15  C   UNL     1       4.095   7.064  17.395  0.00  0.00    +0.000 C 
ATOM     16  O   UNL     1       3.876   7.990  16.640  0.00  0.00    +0.000 OA
ENDROOT
BRANCH   1  17
ATOM     17  N   UNL     1       3.086   4.281  21.418  0.00  0.00    +0.000 N 
ATOM     18  H   UNL     1       3.941   3.810  21.123  0.00  0.00    +0.000 HD
BRANCH  17  19
ATOM     19  C   UNL     1       2.021   3.380  21.843  0.00  0.00    +0.000 C 
BRANCH  19  20
ATOM     20  C   UNL     1       1.657   2.388  20.739  0.00  0.00    +0.000 C 
BRANCH  20  21
ATOM     21  N   UNL     1       0.436   2.810  20.040  0.00  0.00    +0.000 NA
ATOM     22  H   UNL     1      -0.331   2.183  20.286  0.00  0.00    +0.000 HD
BRANCH  21  23
ATOM     23  C   UNL     1       0.648   2.765  18.592  0.00  0.00    +0.000 C 
BRANCH  23  25
ATOM     24  C   UNL     1       2.592   2.983  17.022  0.00  0.00    +0.000 C 
ATOM     25  C   UNL     1       2.079   2.325  18.291  0.00  0.00    +0.000 C 
ENDBRANCH  23  25
ENDBRANCH  21  23
ENDBRANCH  20  21
ENDBRANCH  19  20
ENDBRANCH  17  19
ENDBRANCH   1  17
BRANCH   4  26
ATOM     26  N   UNL     1       1.831   8.732  18.228  0.00  0.00    +0.000 N 
ATOM     27  H   UNL     1       1.802   8.698  17.208  0.00  0.00    +0.000 HD
BRANCH  26  28
ATOM     28  C   UNL     1       1.371   9.952  18.877  0.00  0.00    +0.000 C 
BRANCH  28  29
ATOM     29  C   UNL     1      -0.132  10.189  18.632  0.00  0.00    +0.000 C 
BRANCH  29  30
ATOM     30  N   UNL     1      -0.847  10.414  19.894  0.00  0.00    +0.000 NA
ATOM     31  H   UNL     1      -1.201   9.528  20.249  0.00  0.00    +0.000 HD
BRANCH  30  32
ATOM     32  C   UNL     1       0.024  11.038  20.882  0.00  0.00    +0.000 C 
BRANCH  32  33
ATOM     33  C   UNL     1      -0.518  10.772  22.284  0.00  0.00    +0.000 C 
ATOM     34  C   UNL     1      -0.367   9.304  22.647  0.00  0.00    +0.000 C 
ENDBRANCH  32  33
ENDBRANCH  30  32
ENDBRANCH  29  30
ENDBRANCH  28  29
ENDBRANCH  26  28
ENDBRANCH   4  26
TORSDOF 12
ENDMDL
