MODEL 1
REMARK VINA RESULT:      -7.6      0.000      0.000
REMARK  Name = 
REMARK  12 active torsions:
REMARK  status: ('A' for Active; 'I' for Inactive)
REMARK    1  A    between atoms: C_1  and  C_2
REMARK    2  A    between atoms: C_2  and  C_3
REMARK    3  A    between atoms: C_3  and  C_5
REMARK    4  A    between atoms: C_10  and  N_11
REMARK    5  A    between atoms: N_11  and  S_12
REMARK    6  A    between atoms: S_12  and  C_15
REMARK    7  A    between atoms: C_18  and  O_19
REMARK    8  A    between atoms: O_19  and  C_20
REMARK    9  A    between atoms: C_20  and  C_22
REMARK   10  A    between atoms: C_22  and  C_23
REMARK   11  A    between atoms: C_22  and  C_24
REMARK   12  A    between atoms: C_22  and  C_25
REMARK                            x       y       z     vdW  Elec       q    Type
REMARK                         _______ _______ _______ _____ _____    ______ ____
ROOT
ATOM      1  S   UNL     1       3.068   5.985  18.675  0.00  0.00    +0.000 S 
ATOM      2  O   UNL     1       2.114   5.277  17.853  0.00  0.00    +0.000 OA
ATOM      3  O   UNL     1       3.721   5.348  19.798  0.00  0.00    +0.000 OA
ENDROOT
BRANCH   1   4
ATOM      4  C   UNL     1       2.306   7.481  19.257  0.00  0.00    +0.000 A 
ATOM      5  C   UNL     1       1.823   7.568  20.572  0.00  0.00    +0.000 A 
ATOM      6  C   UNL     1       1.011   8.643  20.931  0.00  0.00    +0.000 A 
ATOM      7  C   UNL     1       0.693   9.606  19.973  0.00  0.00    +0.000 A 
ATOM      8  C   UNL     1       1.185   9.515  18.668  0.00  0.00    +0.000 A 
ATOM      9  C   UNL     1       2.040   8.482  18.322  0.00  0.00    +0.000 A 
BRANCH   7  10
ATOM     10  O   UNL     1      -0.241  10.596  20.314  0.00  0.00    +0.000 OA
BRANCH  10  11
ATOM     11  C   UNL     1       0.268  11.877  20.496  0.00  0.00    +0.000 C 
ATOM     12  O   UNL     1       1.256  12.162  21.165  0.00  0.00    +0.000 OA
BRANCH  11  13
ATOM     13  C   UNL     1      -0.526  12.916  19.706  0.00  0.00    +0.000 C 
ATOM     14  C   UNL     1      -1.905  12.416  19.257  0.00  0.00    +0.000 C 
ATOM     15  C   UNL     1      -0.697  14.141  20.614  0.00  0.00    +0.000 C 
ATOM     16  C   UNL     1       0.305  13.287  18.469  0.00  0.00    +0.000 C 
ENDBRANCH  11  13
ENDBRANCH  10  11
ENDBRANCH   7  10
ENDBRANCH   1   4
BRANCH   1  17
ATOM     17  N   UNL     1       4.318   6.565  17.672  0.00  0.00    +0.000 N 
ATOM     18  H   UNL     1       4.081   7.438  17.219  0.00  0.00    +0.000 HD
BRANCH  17  24
ATOM     19  C   UNL     1       6.535   5.373  17.514  0.00  0.00    +0.000 A 
ATOM     20  C   UNL     1       7.376   4.596  16.685  0.00  0.00    +0.000 A 
ATOM     21  C   UNL     1       6.935   4.082  15.466  0.00  0.00    +0.000 A 
ATOM     22  C   UNL     1       5.633   4.313  15.054  0.00  0.00    +0.000 A 
ATOM     23  C   UNL     1       4.780   5.070  15.856  0.00  0.00    +0.000 A 
ATOM     24  C   UNL     1       5.215   5.625  17.072  0.00  0.00    +0.000 A 
BRANCH  19  25
ATOM     25  C   UNL     1       7.226   5.918  18.739  0.00  0.00    +0.000 C 
ATOM     26  O   UNL     1       6.976   5.392  19.827  0.00  0.00    +0.000 OA
BRANCH  25  28
ATOM     27  C   UNL     1       7.725   8.112  17.588  0.00  0.00    +0.000 C 
ATOM     28  C   UNL     1       8.150   7.119  18.666  0.00  0.00    +0.000 C 
ENDBRANCH  25  28
ENDBRANCH  19  25
ENDBRANCH  17  24
ENDBRANCH   1  17
TORSDOF 8
ENDMDL
MODEL 2
REMARK VINA RESULT:      -7.5      2.289      8.734
REMARK  Name = 
REMARK  12 active torsions:
REMARK  status: ('A' for Active; 'I' for Inactive)
REMARK    1  A    between atoms: C_1  and  C_2
REMARK    2  A    between atoms: C_2  and  C_3
REMARK    3  A    between atoms: C_3  and  C_5
REMARK    4  A    between atoms: C_10  and  N_11
REMARK    5  A    between atoms: N_11  and  S_12
REMARK    6  A    between atoms: S_12  and  C_15
REMARK    7  A    between atoms: C_18  and  O_19
REMARK    8  A    between atoms: O_19  and  C_20
REMARK    9  A    between atoms: C_20  and  C_22
REMARK   10  A    between atoms: C_22  and  C_23
REMARK   11  A    between atoms: C_22  and  C_24
REMARK   12  A    between atoms: C_22  and  C_25
REMARK                            x       y       z     vdW  Elec       q    Type
REMARK                         _______ _______ _______ _____ _____    ______ ____
ROOT
ATOM      1  S   UNL     1       0.825   8.928  21.232  0.00  0.00    +0.000 S 
ATOM      2  O   UNL     1       1.745   9.307  22.280  0.00  0.00    +0.000 OA
ATOM      3  O   UNL     1      -0.516   8.474  21.528  0.00  0.00    +0.000 OA
ENDROOT
BRANCH   1   4
ATOM      4  C   UNL     1       1.610   7.703  20.211  0.00  0.00    +0.000 A 
ATOM      5  C   UNL     1       1.820   6.403  20.696  0.00  0.00    +0.000 A 
ATOM      6  C   UNL     1       2.653   5.537  19.988  0.00  0.00    +0.000 A 
ATOM      7  C   UNL     1       3.263   5.986  18.816  0.00  0.00    +0.000 A 
ATOM      8  C   UNL     1       3.042   7.279  18.338  0.00  0.00    +0.000 A 
ATOM      9  C   UNL     1       2.169   8.123  19.004  0.00  0.00    +0.000 A 
BRANCH   7  10
ATOM     10  O   UNL     1       4.209   5.152  18.203  0.00  0.00    +0.000 OA
BRANCH  10  11
ATOM     11  C   UNL     1       5.541   5.412  18.507  0.00  0.00    +0.000 C 
ATOM     12  O   UNL     1       6.030   5.391  19.632  0.00  0.00    +0.000 OA
BRANCH  11  13
ATOM     13  C   UNL     1       6.365   5.681  17.249  0.00  0.00    +0.000 C 
ATOM     14  C   UNL     1       5.529   5.680  15.963  0.00  0.00    +0.000 C 
ATOM     15  C   UNL     1       7.028   7.053  17.427  0.00  0.00    +0.000 C 
ATOM     16  C   UNL     1       7.436   4.584  17.157  0.00  0.00    +0.000 C 
ENDBRANCH  11  13
ENDBRANCH  10  11
ENDBRANCH   7  10
ENDBRANCH   1   4
BRANCH   1  17
ATOM     17  N   UNL     1       0.649  10.247  20.167  0.00  0.00    +0.000 N 
ATOM     18  H   UNL     1       1.536  10.661  19.908  0.00  0.00    +0.000 HD
BRANCH  17  24
ATOM     19  C   UNL     1      -1.532  11.058  19.194  0.00  0.00    +0.000 A 
ATOM     20  C   UNL     1      -2.545  12.040  19.281  0.00  0.00    +0.000 A 
ATOM     21  C   UNL     1      -2.598  12.951  20.336  0.00  0.00    +0.000 A 
ATOM     22  C   UNL     1      -1.651  12.888  21.345  0.00  0.00    +0.000 A 
ATOM     23  C   UNL     1      -0.645  11.925  21.288  0.00  0.00    +0.000 A 
ATOM     24  C   UNL     1      -0.555  11.019  20.216  0.00  0.00    +0.000 A 
BRANCH  19  25
ATOM     25  C   UNL     1      -1.590  10.236  17.931  0.00  0.00    +0.000 C 
ATOM     26  O   UNL     1      -0.543   9.728  17.522  0.00  0.00    +0.000 OA
BRANCH  25  28
ATOM     27  C   UNL     1      -2.774  10.717  15.751  0.00  0.00    +0.000 C 
ATOM     28  C   UNL     1      -2.873  10.084  17.136  0.00  0.00    +0.000 C 
ENDBRANCH  25  28
ENDBRANCH  19  25
ENDBRANCH  17  24
ENDBRANCH   1  17
TORSDOF 8
ENDMDL
MODEL 3
REMARK VINA RESULT:      -7.5      0.965      1.790
REMARK  Name = 
REMARK  12 active torsions:
REMARK  status: ('A' for Active; 'I' for Inactive)
REMARK    1  A    between atoms: C_1  and  C_2
REMARK    2  A    between atoms: C_2  and  C_3
REMARK    3  A    between atoms: C_3  and  C_5
REMARK    4  A    between atoms: C_10  and  N_11
REMARK    5  A    between atoms: N_11  and  S_12
REMARK    6  A    between atoms: S_12  and  C_15
REMARK    7  A    between atoms: C_18  and  O_19
REMARK    8  A    between atoms: O_19  and  C_20
REMARK    9  A    between atoms: C_20  and  C_22
REMARK   10  A    between atoms: C_22  and  C_23
REMARK   11  A    between atoms: C_22  and  C_24
REMARK   12  A    between atoms: C_22  and  C_25
REMARK                            x       y       z     vdW  Elec       q    Type
REMARK                         _______ _______ _______ _____ _____    ______ ____
ROOT
ATOM      1  S   UNL     1       3.228   6.082  18.540  0.00  0.00    +0.000 S 
ATOM      2  O   UNL     1       2.429   5.133  17.799  0.00  0.00    +0.000 OA
ATOM      3  O   UNL     1       3.910   5.711  19.760  0.00  0.00    +0.000 OA
ENDROOT
BRANCH   1   4
ATOM      4  C   UNL     1       2.228   7.512  18.881  0.00  0.00    +0.000 A 
ATOM      5  C   UNL     1       2.069   8.515  17.912  0.00  0.00    +0.000 A 
ATOM      6  C   UNL     1       1.498   9.733  18.279  0.00  0.00    +0.000 A 
ATOM      7  C   UNL     1       1.104   9.929  19.603  0.00  0.00    +0.000 A 
ATOM      8  C   UNL     1       1.261   8.922  20.559  0.00  0.00    +0.000 A 
ATOM      9  C   UNL     1       1.771   7.689  20.187  0.00  0.00    +0.000 A 
BRANCH   7  10
ATOM     10  O   UNL     1       0.671  11.208  19.982  0.00  0.00    +0.000 OA
BRANCH  10  11
ATOM     11  C   UNL     1      -0.699  11.358  20.169  0.00  0.00    +0.000 C 
ATOM     12  O   UNL     1      -1.569  10.955  19.404  0.00  0.00    +0.000 OA
BRANCH  11  13
ATOM     13  C   UNL     1      -1.015  12.047  21.495  0.00  0.00    +0.000 C 
ATOM     14  C   UNL     1      -0.062  13.205  21.821  0.00  0.00    +0.000 C 
ATOM     15  C   UNL     1      -2.451  12.578  21.399  0.00  0.00    +0.000 C 
ATOM     16  C   UNL     1      -0.917  10.986  22.601  0.00  0.00    +0.000 C 
ENDBRANCH  11  13
ENDBRANCH  10  11
ENDBRANCH   7  10
ENDBRANCH   1   4
BRANCH   1  17
ATOM     17  N   UNL     1       4.429   6.702  17.502  0.00  0.00    +0.000 N 
ATOM     18  H   UNL     1       4.163   7.583  17.080  0.00  0.00    +0.000 HD
BRANCH  17  24
ATOM     19  C   UNL     1       6.613   5.460  17.290  0.00  0.00    +0.000 A 
ATOM     20  C   UNL     1       7.450   4.729  16.416  0.00  0.00    +0.000 A 
ATOM     21  C   UNL     1       7.024   4.334  15.148  0.00  0.00    +0.000 A 
ATOM     22  C   UNL     1       5.738   4.639  14.730  0.00  0.00    +0.000 A 
ATOM     23  C   UNL     1       4.890   5.352  15.575  0.00  0.00    +0.000 A 
ATOM     24  C   UNL     1       5.312   5.789  16.843  0.00  0.00    +0.000 A 
BRANCH  19  25
ATOM     25  C   UNL     1       7.290   5.877  18.571  0.00  0.00    +0.000 C 
ATOM     26  O   UNL     1       7.083   5.202  19.582  0.00  0.00    +0.000 OA
BRANCH  25  28
ATOM     27  C   UNL     1       7.771   8.156  17.590  0.00  0.00    +0.000 C 
ATOM     28  C   UNL     1       8.150   7.124  18.649  0.00  0.00    +0.000 C 
ENDBRANCH  25  28
ENDBRANCH  19  25
ENDBRANCH  17  24
ENDBRANCH   1  17
TORSDOF 8
ENDMDL
MODEL 4
REMARK VINA RESULT:      -7.4      1.923      2.907
REMARK  Name = 
REMARK  12 active torsions:
REMARK  status: ('A' for Active; 'I' for Inactive)
REMARK    1  A    between atoms: C_1  and  C_2
REMARK    2  A    between atoms: C_2  and  C_3
REMARK    3  A    between atoms: C_3  and  C_5
REMARK    4  A    between atoms: C_10  and  N_11
REMARK    5  A    between atoms: N_11  and  S_12
REMARK    6  A    between atoms: S_12  and  C_15
REMARK    7  A    between atoms: C_18  and  O_19
REMARK    8  A    between atoms: O_19  and  C_20
REMARK    9  A    between atoms: C_20  and  C_22
REMARK   10  A    between atoms: C_22  and  C_23
REMARK   11  A    between atoms: C_22  and  C_24
REMARK   12  A    between atoms: C_22  and  C_25
REMARK                            x       y       z     vdW  Elec       q    Type
REMARK                         _______ _______ _______ _____ _____    ______ ____
ROOT
ATOM      1  S   UNL     1       2.248   5.850  19.874  0.00  0.00    +0.000 S 
ATOM      2  O   UNL     1       1.499   5.283  18.776  0.00  0.00    +0.000 OA
ATOM      3  O   UNL     1       2.207   5.271  21.199  0.00  0.00    +0.000 OA
ENDROOT
BRANCH   1   4
ATOM      4  C   UNL     1       1.827   7.571  20.012  0.00  0.00    +0.000 A 
ATOM      5  C   UNL     1       1.282   8.077  21.202  0.00  0.00    +0.000 A 
ATOM      6  C   UNL     1       0.730   9.357  21.210  0.00  0.00    +0.000 A 
ATOM      7  C   UNL     1       0.725  10.104  20.031  0.00  0.00    +0.000 A 
ATOM      8  C   UNL     1       1.276   9.594  18.852  0.00  0.00    +0.000 A 
ATOM      9  C   UNL     1       1.880   8.348  18.854  0.00  0.00    +0.000 A 
BRANCH   7  10
ATOM     10  O   UNL     1       0.034  11.324  20.024  0.00  0.00    +0.000 OA
BRANCH  10  11
ATOM     11  C   UNL     1       0.807  12.464  20.220  0.00  0.00    +0.000 C 
ATOM     12  O   UNL     1       1.512  12.685  21.200  0.00  0.00    +0.000 OA
BRANCH  11  13
ATOM     13  C   UNL     1       0.725  13.413  19.026  0.00  0.00    +0.000 C 
ATOM     14  C   UNL     1       0.599  14.888  19.429  0.00  0.00    +0.000 C 
ATOM     15  C   UNL     1       2.003  13.214  18.201  0.00  0.00    +0.000 C 
ATOM     16  C   UNL     1      -0.505  13.008  18.200  0.00  0.00    +0.000 C 
ENDBRANCH  11  13
ENDBRANCH  10  11
ENDBRANCH   7  10
ENDBRANCH   1   4
BRANCH   1  17
ATOM     17  N   UNL     1       3.894   5.899  19.435  0.00  0.00    +0.000 N 
ATOM     18  H   UNL     1       4.401   6.638  19.905  0.00  0.00    +0.000 HD
BRANCH  17  24
ATOM     19  C   UNL     1       4.475   4.071  17.797  0.00  0.00    +0.000 A 
ATOM     20  C   UNL     1       5.077   3.780  16.552  0.00  0.00    +0.000 A 
ATOM     21  C   UNL     1       5.469   4.788  15.671  0.00  0.00    +0.000 A 
ATOM     22  C   UNL     1       5.247   6.115  16.003  0.00  0.00    +0.000 A 
ATOM     23  C   UNL     1       4.649   6.430  17.222  0.00  0.00    +0.000 A 
ATOM     24  C   UNL     1       4.277   5.430  18.138  0.00  0.00    +0.000 A 
BRANCH  19  25
ATOM     25  C   UNL     1       4.217   2.852  18.645  0.00  0.00    +0.000 C 
ATOM     26  O   UNL     1       4.846   2.735  19.700  0.00  0.00    +0.000 OA
BRANCH  25  28
ATOM     27  C   UNL     1       1.922   1.829  18.921  0.00  0.00    +0.000 C 
ATOM     28  C   UNL     1       3.266   1.757  18.200  0.00  0.00    +0.000 C 
ENDBRANCH  25  28
ENDBRANCH  19  25
ENDBRANCH  17  24
ENDBRANCH   1  17
TORSDOF 8
ENDMDL
MODEL 5
REMARK VINA RESULT:      -7.4      2.471      3.640
REMARK  Name = 
REMARK  12 active torsions:
REMARK  status: ('A' for Active; 'I' for Inactive)
REMARK    1  A    between atoms: C_1  and  C_2
REMARK    2  A    between atoms: C_2  and  C_3
REMARK    3  A    between atoms: C_3  and  C_5
REMARK    4  A    between atoms: C_10  and  N_11
REMARK    5  A    between atoms: N_11  and  S_12
REMARK    6  A    between atoms: S_12  and  C_15
REMARK    7  A    between atoms: C_18  and  O_19
REMARK    8  A    between atoms: O_19  and  C_20
REMARK    9  A    between atoms: C_20  and  C_22
REMARK   10  A    between atoms: C_22  and  C_23
REMARK   11  A    between atoms: C_22  and  C_24
REMARK   12  A    between atoms: C_22  and  C_25
REMARK                            x       y       z     vdW  Elec       q    Type
REMARK                         _______ _______ _______ _____ _____    ______ ____
ROOT
ATOM      1  S   UNL     1       2.783   6.976  18.444  0.00  0.00    +0.000 S 
ATOM      2  O   UNL     1       3.928   7.493  17.730  0.00  0.00    +0.000 OA
ATOM      3  O   UNL     1       1.857   6.053  17.825  0.00  0.00    +0.000 OA
ENDROOT
BRANCH   1   4
ATOM      4  C   UNL     1       1.850   8.349  19.079  0.00  0.00    +0.000 A 
ATOM      5  C   UNL     1       1.477   8.389  20.431  0.00  0.00    +0.000 A 
ATOM      6  C   UNL     1       0.542   9.334  20.853  0.00  0.00    +0.000 A 
ATOM      7  C   UNL     1      -0.006  10.214  19.919  0.00  0.00    +0.000 A 
ATOM      8  C   UNL     1       0.378  10.170  18.576  0.00  0.00    +0.000 A 
ATOM      9  C   UNL     1       1.350   9.274  18.163  0.00  0.00    +0.000 A 
BRANCH   7  10
ATOM     10  O   UNL     1      -1.049  11.054  20.334  0.00  0.00    +0.000 OA
BRANCH  10  11
ATOM     11  C   UNL     1      -0.672  12.191  21.040  0.00  0.00    +0.000 C 
ATOM     12  O   UNL     1       0.241  12.950  20.730  0.00  0.00    +0.000 OA
BRANCH  11  13
ATOM     13  C   UNL     1      -1.578  12.433  22.246  0.00  0.00    +0.000 C 
ATOM     14  C   UNL     1      -3.048  12.658  21.867  0.00  0.00    +0.000 C 
ATOM     15  C   UNL     1      -1.465  11.200  23.151  0.00  0.00    +0.000 C 
ATOM     16  C   UNL     1      -1.049  13.676  22.977  0.00  0.00    +0.000 C 
ENDBRANCH  11  13
ENDBRANCH  10  11
ENDBRANCH   7  10
ENDBRANCH   1   4
BRANCH   1  17
ATOM     17  N   UNL     1       3.334   6.207  19.862  0.00  0.00    +0.000 N 
ATOM     18  H   UNL     1       4.202   6.598  20.206  0.00  0.00    +0.000 HD
BRANCH  17  24
ATOM     19  C   UNL     1       3.555   3.736  19.405  0.00  0.00    +0.000 A 
ATOM     20  C   UNL     1       2.947   2.470  19.564  0.00  0.00    +0.000 A 
ATOM     21  C   UNL     1       1.819   2.291  20.365  0.00  0.00    +0.000 A 
ATOM     22  C   UNL     1       1.283   3.371  21.048  0.00  0.00    +0.000 A 
ATOM     23  C   UNL     1       1.867   4.630  20.915  0.00  0.00    +0.000 A 
ATOM     24  C   UNL     1       2.984   4.837  20.086  0.00  0.00    +0.000 A 
BRANCH  19  25
ATOM     25  C   UNL     1       4.699   3.741  18.423  0.00  0.00    +0.000 C 
ATOM     26  O   UNL     1       5.834   3.951  18.858  0.00  0.00    +0.000 OA
BRANCH  25  28
ATOM     27  C   UNL     1       5.208   4.616  16.108  0.00  0.00    +0.000 C 
ATOM     28  C   UNL     1       4.473   3.563  16.934  0.00  0.00    +0.000 C 
ENDBRANCH  25  28
ENDBRANCH  19  25
ENDBRANCH  17  24
ENDBRANCH   1  17
TORSDOF 8
ENDMDL
MODEL 6
REMARK VINA RESULT:      -7.4      2.623      3.754
REMARK  Name = 
REMARK  12 active torsions:
REMARK  status: ('A' for Active; 'I' for Inactive)
REMARK    1  A    between atoms: C_1  and  C_2
REMARK    2  A    between atoms: C_2  and  C_3
REMARK    3  A    between atoms: C_3  and  C_5
REMARK    4  A    between atoms: C_10  and  N_11
REMARK    5  A    between atoms: N_11  and  S_12
REMARK    6  A    between atoms: S_12  and  C_15
REMARK    7  A    between atoms: C_18  and  O_19
REMARK    8  A    between atoms: O_19  and  C_20
REMARK    9  A    between atoms: C_20  and  C_22
REMARK   10  A    between atoms: C_22  and  C_23
REMARK   11  A    between atoms: C_22  and  C_24
REMARK   12  A    between atoms: C_22  and  C_25
REMARK                            x       y       z     vdW  Elec       q    Type
REMARK                         _______ _______ _______ _____ _____    ______ ____
ROOT
ATOM      1  S   UNL     1       2.630   7.025  18.673  0.00  0.00    +0.000 S 
ATOM      2  O   UNL     1       3.749   7.671  18.027  0.00  0.00    +0.000 OA
ATOM      3  O   UNL     1       1.693   6.210  17.932  0.00  0.00    +0.000 OA
ENDROOT
BRANCH   1   4
ATOM      4  C   UNL     1       1.707   8.257  19.561  0.00  0.00    +0.000 A 
ATOM      5  C   UNL     1       1.339   9.457  18.935  0.00  0.00    +0.000 A 
ATOM      6  C   UNL     1       0.843  10.506  19.709  0.00  0.00    +0.000 A 
ATOM      7  C   UNL     1       0.730  10.340  21.090  0.00  0.00    +0.000 A 
ATOM      8  C   UNL     1       1.093   9.138  21.703  0.00  0.00    +0.000 A 
ATOM      9  C   UNL     1       1.529   8.072  20.933  0.00  0.00    +0.000 A 
BRANCH   7  10
ATOM     10  O   UNL     1       0.371  11.453  21.863  0.00  0.00    +0.000 OA
BRANCH  10  11
ATOM     11  C   UNL     1      -0.761  11.304  22.658  0.00  0.00    +0.000 C 
ATOM     12  O   UNL     1      -0.938  10.413  23.482  0.00  0.00    +0.000 OA
BRANCH  11  13
ATOM     13  C   UNL     1      -1.764  12.433  22.428  0.00  0.00    +0.000 C 
ATOM     14  C   UNL     1      -2.257  12.524  20.979  0.00  0.00    +0.000 C 
ATOM     15  C   UNL     1      -2.955  12.177  23.360  0.00  0.00    +0.000 C 
ATOM     16  C   UNL     1      -1.069  13.750  22.809  0.00  0.00    +0.000 C 
ENDBRANCH  11  13
ENDBRANCH  10  11
ENDBRANCH   7  10
ENDBRANCH   1   4
BRANCH   1  17
ATOM     17  N   UNL     1       3.230   6.031  19.921  0.00  0.00    +0.000 N 
ATOM     18  H   UNL     1       4.107   6.367  20.300  0.00  0.00    +0.000 HD
BRANCH  17  24
ATOM     19  C   UNL     1       3.549   3.653  19.147  0.00  0.00    +0.000 A 
ATOM     20  C   UNL     1       2.960   2.370  19.070  0.00  0.00    +0.000 A 
ATOM     21  C   UNL     1       1.770   2.067  19.731  0.00  0.00    +0.000 A 
ATOM     22  C   UNL     1       1.150   3.034  20.506  0.00  0.00    +0.000 A 
ATOM     23  C   UNL     1       1.713   4.305  20.604  0.00  0.00    +0.000 A 
ATOM     24  C   UNL     1       2.895   4.640  19.919  0.00  0.00    +0.000 A 
BRANCH  19  25
ATOM     25  C   UNL     1       4.776   3.809  18.284  0.00  0.00    +0.000 C 
ATOM     26  O   UNL     1       5.843   4.087  18.839  0.00  0.00    +0.000 OA
BRANCH  25  28
ATOM     27  C   UNL     1       5.164   4.979  16.079  0.00  0.00    +0.000 C 
ATOM     28  C   UNL     1       4.709   3.698  16.773  0.00  0.00    +0.000 C 
ENDBRANCH  25  28
ENDBRANCH  19  25
ENDBRANCH  17  24
ENDBRANCH   1  17
TORSDOF 8
ENDMDL
MODEL 7
REMARK VINA RESULT:      -7.3      2.493      3.818
REMARK  Name = 
REMARK  12 active torsions:
REMARK  status: ('A' for Active; 'I' for Inactive)
REMARK    1  A    between atoms: C_1  and  C_2
REMARK    2  A    between atoms: C_2  and  C_3
REMARK    3  A    between atoms: C_3  and  C_5
REMARK    4  A    between atoms: C_10  and  N_11
REMARK    5  A    between atoms: N_11  and  S_12
REMARK    6  A    between atoms: S_12  and  C_15
REMARK    7  A    between atoms: C_18  and  O_19
REMARK    8  A    between atoms: O_19  and  C_20
REMARK    9  A    between atoms: C_20  and  C_22
REMARK   10  A    between atoms: C_22  and  C_23
REMARK   11  A    between atoms: C_22  and  C_24
REMARK   12  A    between atoms: C_22  and  C_25
REMARK                            x       y       z     vdW  Elec       q    Type
REMARK                         _______ _______ _______ _____ _____    ______ ____
ROOT
ATOM      1  S   UNL     1       2.757   7.030  18.401  0.00  0.00    +0.000 S 
ATOM      2  O   UNL     1       3.929   7.583  17.762  0.00  0.00    +0.000 OA
ATOM      3  O   UNL     1       1.898   6.085  17.722  0.00  0.00    +0.000 OA
ENDROOT
BRANCH   1   4
ATOM      4  C   UNL     1       1.748   8.372  18.984  0.00  0.00    +0.000 A 
ATOM      5  C   UNL     1       1.512   9.489  18.168  0.00  0.00    +0.000 A 
ATOM      6  C   UNL     1       0.937  10.631  18.725  0.00  0.00    +0.000 A 
ATOM      7  C   UNL     1       0.616  10.639  20.083  0.00  0.00    +0.000 A 
ATOM      8  C   UNL     1       0.849   9.519  20.886  0.00  0.00    +0.000 A 
ATOM      9  C   UNL     1       1.363   8.361  20.325  0.00  0.00    +0.000 A 
BRANCH   7  10
ATOM     10  O   UNL     1       0.178  11.843  20.653  0.00  0.00    +0.000 OA
BRANCH  10  11
ATOM     11  C   UNL     1      -1.199  11.993  20.780  0.00  0.00    +0.000 C 
ATOM     12  O   UNL     1      -2.022  11.784  19.894  0.00  0.00    +0.000 OA
BRANCH  11  13
ATOM     13  C   UNL     1      -1.593  12.403  22.197  0.00  0.00    +0.000 C 
ATOM     14  C   UNL     1      -0.765  13.572  22.746  0.00  0.00    +0.000 C 
ATOM     15  C   UNL     1      -3.075  12.799  22.159  0.00  0.00    +0.000 C 
ATOM     16  C   UNL     1      -1.398  11.177  23.102  0.00  0.00    +0.000 C 
ENDBRANCH  11  13
ENDBRANCH  10  11
ENDBRANCH   7  10
ENDBRANCH   1   4
BRANCH   1  17
ATOM     17  N   UNL     1       3.241   6.268  19.847  0.00  0.00    +0.000 N 
ATOM     18  H   UNL     1       4.059   6.699  20.260  0.00  0.00    +0.000 HD
BRANCH  17  24
ATOM     19  C   UNL     1       3.588   3.823  19.334  0.00  0.00    +0.000 A 
ATOM     20  C   UNL     1       3.036   2.527  19.444  0.00  0.00    +0.000 A 
ATOM     21  C   UNL     1       1.898   2.275  20.211  0.00  0.00    +0.000 A 
ATOM     22  C   UNL     1       1.296   3.311  20.907  0.00  0.00    +0.000 A 
ATOM     23  C   UNL     1       1.824   4.598  20.821  0.00  0.00    +0.000 A 
ATOM     24  C   UNL     1       2.951   4.879  20.027  0.00  0.00    +0.000 A 
BRANCH  19  25
ATOM     25  C   UNL     1       4.755   3.907  18.382  0.00  0.00    +0.000 C 
ATOM     26  O   UNL     1       5.885   4.035  18.861  0.00  0.00    +0.000 OA
BRANCH  25  28
ATOM     27  C   UNL     1       5.885   3.972  16.123  0.00  0.00    +0.000 C 
ATOM     28  C   UNL     1       4.560   3.903  16.878  0.00  0.00    +0.000 C 
ENDBRANCH  25  28
ENDBRANCH  19  25
ENDBRANCH  17  24
ENDBRANCH   1  17
TORSDOF 8
ENDMDL
MODEL 8
REMARK VINA RESULT:      -7.2      3.096      9.038
REMARK  Name = 
REMARK  12 active torsions:
REMARK  status: ('A' for Active; 'I' for Inactive)
REMARK    1  A    between atoms: C_1  and  C_2
REMARK    2  A    between atoms: C_2  and  C_3
REMARK    3  A    between atoms: C_3  and  C_5
REMARK    4  A    between atoms: C_10  and  N_11
REMARK    5  A    between atoms: N_11  and  S_12
REMARK    6  A    between atoms: S_12  and  C_15
REMARK    7  A    between atoms: C_18  and  O_19
REMARK    8  A    between atoms: O_19  and  C_20
REMARK    9  A    between atoms: C_20  and  C_22
REMARK   10  A    between atoms: C_22  and  C_23
REMARK   11  A    between atoms: C_22  and  C_24
REMARK   12  A    between atoms: C_22  and  C_25
REMARK                            x       y       z     vdW  Elec       q    Type
REMARK                         _______ _______ _______ _____ _____    ______ ____
ROOT
ATOM      1  S   UNL     1       0.513  10.225  19.761  0.00  0.00    +0.000 S 
ATOM      2  O   UNL     1       1.292  11.233  20.442  0.00  0.00    +0.000 OA
ATOM      3  O   UNL     1      -0.662   9.637  20.367  0.00  0.00    +0.000 OA
ENDROOT
BRANCH   1   4
ATOM      4  C   UNL     1       1.601   8.907  19.275  0.00  0.00    +0.000 A 
ATOM      5  C   UNL     1       2.070   8.823  17.954  0.00  0.00    +0.000 A 
ATOM      6  C   UNL     1       2.709   7.659  17.530  0.00  0.00    +0.000 A 
ATOM      7  C   UNL     1       2.862   6.601  18.427  0.00  0.00    +0.000 A 
ATOM      8  C   UNL     1       2.398   6.696  19.741  0.00  0.00    +0.000 A 
ATOM      9  C   UNL     1       1.817   7.872  20.185  0.00  0.00    +0.000 A 
BRANCH   7  10
ATOM     10  O   UNL     1       3.373   5.389  17.938  0.00  0.00    +0.000 OA
BRANCH  10  11
ATOM     11  C   UNL     1       2.520   4.294  18.011  0.00  0.00    +0.000 C 
ATOM     12  O   UNL     1       1.426   4.207  17.463  0.00  0.00    +0.000 OA
BRANCH  11  13
ATOM     13  C   UNL     1       3.133   3.155  18.824  0.00  0.00    +0.000 C 
ATOM     14  C   UNL     1       2.390   2.877  20.137  0.00  0.00    +0.000 C 
ATOM     15  C   UNL     1       3.099   1.900  17.942  0.00  0.00    +0.000 C 
ATOM     16  C   UNL     1       4.586   3.542  19.136  0.00  0.00    +0.000 C 
ENDBRANCH  11  13
ENDBRANCH  10  11
ENDBRANCH   7  10
ENDBRANCH   1   4
BRANCH   1  17
ATOM     17  N   UNL     1      -0.000  10.860  18.265  0.00  0.00    +0.000 N 
ATOM     18  H   UNL     1       0.653  11.532  17.882  0.00  0.00    +0.000 HD
BRANCH  17  24
ATOM     19  C   UNL     1      -2.315  11.780  18.659  0.00  0.00    +0.000 A 
ATOM     20  C   UNL     1      -3.697  11.573  18.442  0.00  0.00    +0.000 A 
ATOM     21  C   UNL     1      -4.165  10.570  17.594  0.00  0.00    +0.000 A 
ATOM     22  C   UNL     1      -3.262   9.761  16.922  0.00  0.00    +0.000 A 
ATOM     23  C   UNL     1      -1.894   9.949  17.113  0.00  0.00    +0.000 A 
ATOM     24  C   UNL     1      -1.403  10.933  17.989  0.00  0.00    +0.000 A 
BRANCH  19  25
ATOM     25  C   UNL     1      -2.016  12.845  19.683  0.00  0.00    +0.000 C 
ATOM     26  O   UNL     1      -1.074  13.612  19.464  0.00  0.00    +0.000 OA
BRANCH  25  28
ATOM     27  C   UNL     1      -2.641  14.312  21.644  0.00  0.00    +0.000 C 
ATOM     28  C   UNL     1      -2.793  12.945  20.982  0.00  0.00    +0.000 C 
ENDBRANCH  25  28
ENDBRANCH  19  25
ENDBRANCH  17  24
ENDBRANCH   1  17
TORSDOF 8
ENDMDL
MODEL 9
REMARK VINA RESULT:      -7.2      2.182      3.682
REMARK  Name = 
REMARK  12 active torsions:
REMARK  status: ('A' for Active; 'I' for Inactive)
REMARK    1  A    between atoms: C_1  and  C_2
REMARK    2  A    between atoms: C_2  and  C_3
REMARK    3  A    between atoms: C_3  and  C_5
REMARK    4  A    between atoms: C_10  and  N_11
REMARK    5  A    between atoms: N_11  and  S_12
REMARK    6  A    between atoms: S_12  and  C_15
REMARK    7  A    between atoms: C_18  and  O_19
REMARK    8  A    between atoms: O_19  and  C_20
REMARK    9  A    between atoms: C_20  and  C_22
REMARK   10  A    between atoms: C_22  and  C_23
REMARK   11  A    between atoms: C_22  and  C_24
REMARK   12  A    between atoms: C_22  and  C_25
REMARK                            x       y       z     vdW  Elec       q    Type
REMARK                         _______ _______ _______ _____ _____    ______ ____
ROOT
ATOM      1  S   UNL     1       4.045   3.064  18.660  0.00  0.00    +0.000 S 
ATOM      2  O   UNL     1       3.176   2.127  17.986  0.00  0.00    +0.000 OA
ATOM      3  O   UNL     1       4.716   2.723  19.896  0.00  0.00    +0.000 OA
ENDROOT
BRANCH   1   4
ATOM      4  C   UNL     1       3.147   4.576  18.920  0.00  0.00    +0.000 A 
ATOM      5  C   UNL     1       2.865   5.429  17.842  0.00  0.00    +0.000 A 
ATOM      6  C   UNL     1       2.390   6.715  18.096  0.00  0.00    +0.000 A 
ATOM      7  C   UNL     1       2.211   7.126  19.417  0.00  0.00    +0.000 A 
ATOM      8  C   UNL     1       2.487   6.267  20.484  0.00  0.00    +0.000 A 
ATOM      9  C   UNL     1       2.903   4.969  20.236  0.00  0.00    +0.000 A 
BRANCH   7  10
ATOM     10  O   UNL     1       1.874   8.467  19.652  0.00  0.00    +0.000 OA
BRANCH  10  11
ATOM     11  C   UNL     1       1.520   9.213  18.533  0.00  0.00    +0.000 C 
ATOM     12  O   UNL     1       2.068   9.152  17.436  0.00  0.00    +0.000 OA
BRANCH  11  13
ATOM     13  C   UNL     1       0.308  10.100  18.806  0.00  0.00    +0.000 C 
ATOM     14  C   UNL     1      -0.350   9.830  20.166  0.00  0.00    +0.000 C 
ATOM     15  C   UNL     1       0.790  11.556  18.751  0.00  0.00    +0.000 C 
ATOM     16  C   UNL     1      -0.714   9.840  17.689  0.00  0.00    +0.000 C 
ENDBRANCH  11  13
ENDBRANCH  10  11
ENDBRANCH   7  10
ENDBRANCH   1   4
BRANCH   1  17
ATOM     17  N   UNL     1       5.272   3.538  17.576  0.00  0.00    +0.000 N 
ATOM     18  H   UNL     1       5.698   2.751  17.101  0.00  0.00    +0.000 HD
BRANCH  17  24
ATOM     19  C   UNL     1       6.172   5.798  16.913  0.00  0.00    +0.000 A 
ATOM     20  C   UNL     1       7.106   6.812  17.229  0.00  0.00    +0.000 A 
ATOM     21  C   UNL     1       7.842   6.790  18.413  0.00  0.00    +0.000 A 
ATOM     22  C   UNL     1       7.647   5.764  19.324  0.00  0.00    +0.000 A 
ATOM     23  C   UNL     1       6.727   4.756  19.041  0.00  0.00    +0.000 A 
ATOM     24  C   UNL     1       5.999   4.742  17.838  0.00  0.00    +0.000 A 
BRANCH  19  25
ATOM     25  C   UNL     1       5.553   5.949  15.547  0.00  0.00    +0.000 C 
ATOM     26  O   UNL     1       5.034   7.032  15.262  0.00  0.00    +0.000 OA
BRANCH  25  28
ATOM     27  C   UNL     1       6.888   4.278  14.201  0.00  0.00    +0.000 C 
ATOM     28  C   UNL     1       5.498   4.796  14.563  0.00  0.00    +0.000 C 
ENDBRANCH  25  28
ENDBRANCH  19  25
ENDBRANCH  17  24
ENDBRANCH   1  17
TORSDOF 8
ENDMDL
