MODEL 1
REMARK VINA RESULT:      -7.3      0.000      0.000
REMARK  Name = 
REMARK  12 active torsions:
REMARK  status: ('A' for Active; 'I' for Inactive)
REMARK    1  A    between atoms: C_1  and  C_2
REMARK    2  A    between atoms: C_2  and  O_3
REMARK    3  A    between atoms: O_3  and  C_4
REMARK    4  A    between atoms: C_4  and  C_6
REMARK    5  A    between atoms: C_6  and  C_7
REMARK    6  A    between atoms: C_7  and  C_8
REMARK    7  A    between atoms: C_7  and  C_18
REMARK    8  A    between atoms: C_12  and  O_13
REMARK    9  A    between atoms: O_13  and  C_14
REMARK   10  A    between atoms: C_15  and  O_16
REMARK   11  A    between atoms: O_16  and  C_17
REMARK   12  A    between atoms: C_19  and  C_20
REMARK                            x       y       z     vdW  Elec       q    Type
REMARK                         _______ _______ _______ _____ _____    ______ ____
ROOT
ATOM      1  C   UNL     1       4.157   4.845  18.946  0.00  0.00    +0.000 C 
ENDROOT
BRANCH   1   2
ATOM      2  C   UNL     1       3.561   3.470  18.715  0.00  0.00    +0.000 A 
ATOM      3  C   UNL     1       3.814   2.277  19.295  0.00  0.00    +0.000 A 
ATOM      4  C   UNL     1       4.823   1.959  20.343  0.00  0.00    +0.000 C 
ATOM      5  N   UNL     1       3.049   1.238  18.770  0.00  0.00    +0.000 N 
ATOM      6  N   UNL     1       2.441   1.742  17.637  0.00  0.00    +0.000 N 
ATOM      7  C   UNL     1       2.610   3.114  17.615  0.00  0.00    +0.000 A 
ATOM      8  O   UNL     1       2.093   3.867  16.809  0.00  0.00    +0.000 OA
ATOM      9  H   UNL     1       3.582   0.378  18.630  0.00  0.00    +0.000 HD
ATOM     10  H   UNL     1       1.628   1.307  17.222  0.00  0.00    +0.000 HD
ENDBRANCH   1   2
BRANCH   1  11
ATOM     11  C   UNL     1       3.169   6.042  18.917  0.00  0.00    +0.000 A 
ATOM     12  C   UNL     1       3.269   6.972  17.867  0.00  0.00    +0.000 A 
ATOM     13  C   UNL     1       2.660   8.211  17.948  0.00  0.00    +0.000 A 
ATOM     14  C   UNL     1       1.913   8.544  19.072  0.00  0.00    +0.000 A 
ATOM     15  C   UNL     1       1.660   7.601  20.075  0.00  0.00    +0.000 A 
ATOM     16  C   UNL     1       2.280   6.326  19.997  0.00  0.00    +0.000 A 
BRANCH  15  17
ATOM     17  O   UNL     1       0.868   7.923  21.150  0.00  0.00    +0.000 OA
ATOM     18  C   UNL     1       1.340   8.965  22.004  0.00  0.00    +0.000 C 
ENDBRANCH  15  17
BRANCH  16  19
ATOM     19  O   UNL     1       2.081   5.269  20.858  0.00  0.00    +0.000 OA
ATOM     20  C   UNL     1       0.985   4.386  20.648  0.00  0.00    +0.000 C 
ENDBRANCH  16  19
ENDBRANCH   1  11
BRANCH   1  21
ATOM     21  C   UNL     1       5.408   5.169  18.081  0.00  0.00    +0.000 C 
BRANCH  21  22
ATOM     22  C   UNL     1       6.727   5.412  18.820  0.00  0.00    +0.000 C 
ATOM     23  O   UNL     1       6.942   5.214  20.005  0.00  0.00    +0.000 OA
BRANCH  22  24
ATOM     24  O   UNL     1       7.673   5.832  17.926  0.00  0.00    +0.000 OA
BRANCH  24  26
ATOM     25  C   UNL     1       7.804   8.281  17.714  0.00  0.00    +0.000 C 
ATOM     26  C   UNL     1       7.325   6.966  17.112  0.00  0.00    +0.000 C 
ENDBRANCH  24  26
ENDBRANCH  22  24
ENDBRANCH  21  22
ENDBRANCH   1  21
TORSDOF 8
ENDMDL
MODEL 2
REMARK VINA RESULT:      -7.2      1.193      1.423
REMARK  Name = 
REMARK  12 active torsions:
REMARK  status: ('A' for Active; 'I' for Inactive)
REMARK    1  A    between atoms: C_1  and  C_2
REMARK    2  A    between atoms: C_2  and  O_3
REMARK    3  A    between atoms: O_3  and  C_4
REMARK    4  A    between atoms: C_4  and  C_6
REMARK    5  A    between atoms: C_6  and  C_7
REMARK    6  A    between atoms: C_7  and  C_8
REMARK    7  A    between atoms: C_7  and  C_18
REMARK    8  A    between atoms: C_12  and  O_13
REMARK    9  A    between atoms: O_13  and  C_14
REMARK   10  A    between atoms: C_15  and  O_16
REMARK   11  A    between atoms: O_16  and  C_17
REMARK   12  A    between atoms: C_19  and  C_20
REMARK                            x       y       z     vdW  Elec       q    Type
REMARK                         _______ _______ _______ _____ _____    ______ ____
ROOT
ATOM      1  C   UNL     1       4.169   4.860  18.543  0.00  0.00    +0.000 C 
ENDROOT
BRANCH   1   2
ATOM      2  C   UNL     1       3.534   3.484  18.483  0.00  0.00    +0.000 A 
ATOM      3  C   UNL     1       3.769   2.360  19.194  0.00  0.00    +0.000 A 
ATOM      4  C   UNL     1       4.791   2.138  20.255  0.00  0.00    +0.000 C 
ATOM      5  N   UNL     1       2.969   1.288  18.807  0.00  0.00    +0.000 N 
ATOM      6  N   UNL     1       2.351   1.674  17.633  0.00  0.00    +0.000 N 
ATOM      7  C   UNL     1       2.553   3.029  17.448  0.00  0.00    +0.000 A 
ATOM      8  O   UNL     1       2.039   3.697  16.569  0.00  0.00    +0.000 OA
ATOM      9  H   UNL     1       3.478   0.403  18.759  0.00  0.00    +0.000 HD
ATOM     10  H   UNL     1       1.519   1.215  17.285  0.00  0.00    +0.000 HD
ENDBRANCH   1   2
BRANCH   1  11
ATOM     11  C   UNL     1       3.198   6.065  18.667  0.00  0.00    +0.000 A 
ATOM     12  C   UNL     1       3.184   7.027  17.641  0.00  0.00    +0.000 A 
ATOM     13  C   UNL     1       2.604   8.268  17.830  0.00  0.00    +0.000 A 
ATOM     14  C   UNL     1       1.999   8.571  19.045  0.00  0.00    +0.000 A 
ATOM     15  C   UNL     1       1.856   7.600  20.042  0.00  0.00    +0.000 A 
ATOM     16  C   UNL     1       2.447   6.322  19.854  0.00  0.00    +0.000 A 
BRANCH  15  17
ATOM     17  O   UNL     1       1.201   7.894  21.213  0.00  0.00    +0.000 OA
ATOM     18  C   UNL     1       0.196   8.907  21.147  0.00  0.00    +0.000 C 
ENDBRANCH  15  17
BRANCH  16  19
ATOM     19  O   UNL     1       2.340   5.241  20.700  0.00  0.00    +0.000 OA
ATOM     20  C   UNL     1       1.159   4.447  20.681  0.00  0.00    +0.000 C 
ENDBRANCH  16  19
ENDBRANCH   1  11
BRANCH   1  21
ATOM     21  C   UNL     1       5.225   5.141  17.437  0.00  0.00    +0.000 C 
BRANCH  21  22
ATOM     22  C   UNL     1       6.669   4.720  17.723  0.00  0.00    +0.000 C 
ATOM     23  O   UNL     1       7.157   4.503  18.820  0.00  0.00    +0.000 OA
BRANCH  22  24
ATOM     24  O   UNL     1       7.333   4.553  16.539  0.00  0.00    +0.000 OA
BRANCH  24  26
ATOM     25  C   UNL     1       6.861   4.782  14.134  0.00  0.00    +0.000 C 
ATOM     26  C   UNL     1       6.556   4.052  15.436  0.00  0.00    +0.000 C 
ENDBRANCH  24  26
ENDBRANCH  22  24
ENDBRANCH  21  22
ENDBRANCH   1  21
TORSDOF 8
ENDMDL
MODEL 3
REMARK VINA RESULT:      -7.1      1.411      2.186
REMARK  Name = 
REMARK  12 active torsions:
REMARK  status: ('A' for Active; 'I' for Inactive)
REMARK    1  A    between atoms: C_1  and  C_2
REMARK    2  A    between atoms: C_2  and  O_3
REMARK    3  A    between atoms: O_3  and  C_4
REMARK    4  A    between atoms: C_4  and  C_6
REMARK    5  A    between atoms: C_6  and  C_7
REMARK    6  A    between atoms: C_7  and  C_8
REMARK    7  A    between atoms: C_7  and  C_18
REMARK    8  A    between atoms: C_12  and  O_13
REMARK    9  A    between atoms: O_13  and  C_14
REMARK   10  A    between atoms: C_15  and  O_16
REMARK   11  A    between atoms: O_16  and  C_17
REMARK   12  A    between atoms: C_19  and  C_20
REMARK                            x       y       z     vdW  Elec       q    Type
REMARK                         _______ _______ _______ _____ _____    ______ ____
ROOT
ATOM      1  C   UNL     1       4.299   5.104  18.625  0.00  0.00    +0.000 C 
ENDROOT
BRANCH   1   2
ATOM      2  C   UNL     1       3.760   3.693  18.497  0.00  0.00    +0.000 A 
ATOM      3  C   UNL     1       2.699   3.200  17.822  0.00  0.00    +0.000 A 
ATOM      4  C   UNL     1       1.696   3.944  17.012  0.00  0.00    +0.000 C 
ATOM      5  N   UNL     1       2.534   1.826  17.985  0.00  0.00    +0.000 N 
ATOM      6  N   UNL     1       3.394   1.454  19.001  0.00  0.00    +0.000 N 
ATOM      7  C   UNL     1       4.248   2.507  19.270  0.00  0.00    +0.000 A 
ATOM      8  O   UNL     1       5.197   2.458  20.031  0.00  0.00    +0.000 OA
ATOM      9  H   UNL     1       1.560   1.551  18.118  0.00  0.00    +0.000 HD
ATOM     10  H   UNL     1       3.683   0.495  19.138  0.00  0.00    +0.000 HD
ENDBRANCH   1   2
BRANCH   1  11
ATOM     11  C   UNL     1       3.247   6.240  18.732  0.00  0.00    +0.000 A 
ATOM     12  C   UNL     1       3.191   7.206  17.710  0.00  0.00    +0.000 A 
ATOM     13  C   UNL     1       2.524   8.403  17.892  0.00  0.00    +0.000 A 
ATOM     14  C   UNL     1       1.872   8.657  19.094  0.00  0.00    +0.000 A 
ATOM     15  C   UNL     1       1.772   7.672  20.082  0.00  0.00    +0.000 A 
ATOM     16  C   UNL     1       2.452   6.438  19.901  0.00  0.00    +0.000 A 
BRANCH  15  17
ATOM     17  O   UNL     1       1.071   7.913  21.238  0.00  0.00    +0.000 OA
ATOM     18  C   UNL     1       0.832   9.282  21.568  0.00  0.00    +0.000 C 
ENDBRANCH  15  17
BRANCH  16  19
ATOM     19  O   UNL     1       2.398   5.347  20.739  0.00  0.00    +0.000 OA
ATOM     20  C   UNL     1       1.249   4.507  20.729  0.00  0.00    +0.000 C 
ENDBRANCH  16  19
ENDBRANCH   1  11
BRANCH   1  21
ATOM     21  C   UNL     1       5.386   5.485  17.580  0.00  0.00    +0.000 C 
BRANCH  21  22
ATOM     22  C   UNL     1       6.755   4.813  17.716  0.00  0.00    +0.000 C 
ATOM     23  O   UNL     1       7.418   4.716  18.736  0.00  0.00    +0.000 OA
BRANCH  22  24
ATOM     24  O   UNL     1       7.108   4.263  16.515  0.00  0.00    +0.000 OA
BRANCH  24  26
ATOM     25  C   UNL     1       6.302   4.328  14.189  0.00  0.00    +0.000 C 
ATOM     26  C   UNL     1       6.029   3.913  15.630  0.00  0.00    +0.000 C 
ENDBRANCH  24  26
ENDBRANCH  22  24
ENDBRANCH  21  22
ENDBRANCH   1  21
TORSDOF 8
ENDMDL
MODEL 4
REMARK VINA RESULT:      -7.1      2.525      4.975
REMARK  Name = 
REMARK  12 active torsions:
REMARK  status: ('A' for Active; 'I' for Inactive)
REMARK    1  A    between atoms: C_1  and  C_2
REMARK    2  A    between atoms: C_2  and  O_3
REMARK    3  A    between atoms: O_3  and  C_4
REMARK    4  A    between atoms: C_4  and  C_6
REMARK    5  A    between atoms: C_6  and  C_7
REMARK    6  A    between atoms: C_7  and  C_8
REMARK    7  A    between atoms: C_7  and  C_18
REMARK    8  A    between atoms: C_12  and  O_13
REMARK    9  A    between atoms: O_13  and  C_14
REMARK   10  A    between atoms: C_15  and  O_16
REMARK   11  A    between atoms: O_16  and  C_17
REMARK   12  A    between atoms: C_19  and  C_20
REMARK                            x       y       z     vdW  Elec       q    Type
REMARK                         _______ _______ _______ _____ _____    ______ ____
ROOT
ATOM      1  C   UNL     1       4.284   4.447  17.938  0.00  0.00    +0.000 C 
ENDROOT
BRANCH   1   2
ATOM      2  C   UNL     1       5.768   4.514  17.640  0.00  0.00    +0.000 A 
ATOM      3  C   UNL     1       6.467   4.244  16.515  0.00  0.00    +0.000 A 
ATOM      4  C   UNL     1       5.953   3.745  15.210  0.00  0.00    +0.000 C 
ATOM      5  N   UNL     1       7.841   4.415  16.669  0.00  0.00    +0.000 N 
ATOM      6  N   UNL     1       8.060   4.578  18.023  0.00  0.00    +0.000 N 
ATOM      7  C   UNL     1       6.843   4.769  18.651  0.00  0.00    +0.000 A 
ATOM      8  O   UNL     1       6.702   5.058  19.825  0.00  0.00    +0.000 OA
ATOM      9  H   UNL     1       8.389   3.675  16.226  0.00  0.00    +0.000 HD
ATOM     10  H   UNL     1       8.909   4.990  18.387  0.00  0.00    +0.000 HD
ENDBRANCH   1   2
BRANCH   1  11
ATOM     11  C   UNL     1       3.640   5.727  18.538  0.00  0.00    +0.000 A 
ATOM     12  C   UNL     1       3.031   5.645  19.803  0.00  0.00    +0.000 A 
ATOM     13  C   UNL     1       2.169   6.631  20.248  0.00  0.00    +0.000 A 
ATOM     14  C   UNL     1       1.911   7.738  19.447  0.00  0.00    +0.000 A 
ATOM     15  C   UNL     1       2.604   7.938  18.248  0.00  0.00    +0.000 A 
ATOM     16  C   UNL     1       3.493   6.932  17.787  0.00  0.00    +0.000 A 
BRANCH  15  17
ATOM     17  O   UNL     1       2.387   9.068  17.498  0.00  0.00    +0.000 OA
ATOM     18  C   UNL     1       1.661  10.125  18.128  0.00  0.00    +0.000 C 
ENDBRANCH  15  17
BRANCH  16  19
ATOM     19  O   UNL     1       4.299   7.004  16.672  0.00  0.00    +0.000 OA
ATOM     20  C   UNL     1       5.568   7.642  16.760  0.00  0.00    +0.000 C 
ENDBRANCH  16  19
ENDBRANCH   1  11
BRANCH   1  21
ATOM     21  C   UNL     1       3.835   3.198  18.750  0.00  0.00    +0.000 C 
BRANCH  21  22
ATOM     22  C   UNL     1       2.577   2.468  18.274  0.00  0.00    +0.000 C 
ATOM     23  O   UNL     1       2.190   2.366  17.120  0.00  0.00    +0.000 OA
BRANCH  22  24
ATOM     24  O   UNL     1       1.967   1.875  19.345  0.00  0.00    +0.000 OA
BRANCH  24  26
ATOM     25  C   UNL     1       1.491   2.737  21.601  0.00  0.00    +0.000 C 
ATOM     26  C   UNL     1       1.098   2.711  20.129  0.00  0.00    +0.000 C 
ENDBRANCH  24  26
ENDBRANCH  22  24
ENDBRANCH  21  22
ENDBRANCH   1  21
TORSDOF 8
ENDMDL
MODEL 5
REMARK VINA RESULT:      -7.1      1.091      1.666
REMARK  Name = 
REMARK  12 active torsions:
REMARK  status: ('A' for Active; 'I' for Inactive)
REMARK    1  A    between atoms: C_1  and  C_2
REMARK    2  A    between atoms: C_2  and  O_3
REMARK    3  A    between atoms: O_3  and  C_4
REMARK    4  A    between atoms: C_4  and  C_6
REMARK    5  A    between atoms: C_6  and  C_7
REMARK    6  A    between atoms: C_7  and  C_8
REMARK    7  A    between atoms: C_7  and  C_18
REMARK    8  A    between atoms: C_12  and  O_13
REMARK    9  A    between atoms: O_13  and  C_14
REMARK   10  A    between atoms: C_15  and  O_16
REMARK   11  A    between atoms: O_16  and  C_17
REMARK   12  A    between atoms: C_19  and  C_20
REMARK                            x       y       z     vdW  Elec       q    Type
REMARK                         _______ _______ _______ _____ _____    ______ ____
ROOT
ATOM      1  C   UNL     1       4.102   5.008  18.874  0.00  0.00    +0.000 C 
ENDROOT
BRANCH   1   2
ATOM      2  C   UNL     1       3.533   3.640  18.554  0.00  0.00    +0.000 A 
ATOM      3  C   UNL     1       2.443   3.268  17.848  0.00  0.00    +0.000 A 
ATOM      4  C   UNL     1       1.429   4.140  17.194  0.00  0.00    +0.000 C 
ATOM      5  N   UNL     1       2.259   1.888  17.810  0.00  0.00    +0.000 N 
ATOM      6  N   UNL     1       3.142   1.356  18.729  0.00  0.00    +0.000 N 
ATOM      7  C   UNL     1       4.023   2.345  19.124  0.00  0.00    +0.000 A 
ATOM      8  O   UNL     1       4.994   2.169  19.837  0.00  0.00    +0.000 OA
ATOM      9  H   UNL     1       1.284   1.609  17.932  0.00  0.00    +0.000 HD
ATOM     10  H   UNL     1       3.418   0.383  18.711  0.00  0.00    +0.000 HD
ENDBRANCH   1   2
BRANCH   1  11
ATOM     11  C   UNL     1       3.092   6.186  18.912  0.00  0.00    +0.000 A 
ATOM     12  C   UNL     1       3.077   7.096  17.840  0.00  0.00    +0.000 A 
ATOM     13  C   UNL     1       2.454   8.326  17.953  0.00  0.00    +0.000 A 
ATOM     14  C   UNL     1       1.806   8.668  19.135  0.00  0.00    +0.000 A 
ATOM     15  C   UNL     1       1.665   7.741  20.174  0.00  0.00    +0.000 A 
ATOM     16  C   UNL     1       2.300   6.476  20.064  0.00  0.00    +0.000 A 
BRANCH  15  17
ATOM     17  O   UNL     1       0.968   8.070  21.311  0.00  0.00    +0.000 OA
ATOM     18  C   UNL     1      -0.082   9.028  21.164  0.00  0.00    +0.000 C 
ENDBRANCH  15  17
BRANCH  16  19
ATOM     19  O   UNL     1       2.202   5.434  20.959  0.00  0.00    +0.000 OA
ATOM     20  C   UNL     1       1.120   4.515  20.855  0.00  0.00    +0.000 C 
ENDBRANCH  16  19
ENDBRANCH   1  11
BRANCH   1  21
ATOM     21  C   UNL     1       5.351   5.408  18.038  0.00  0.00    +0.000 C 
BRANCH  21  22
ATOM     22  C   UNL     1       6.677   5.562  18.788  0.00  0.00    +0.000 C 
ATOM     23  O   UNL     1       6.921   5.169  19.918  0.00  0.00    +0.000 OA
BRANCH  22  24
ATOM     24  O   UNL     1       7.593   6.158  17.967  0.00  0.00    +0.000 OA
BRANCH  24  26
ATOM     25  C   UNL     1       7.821   8.590  17.658  0.00  0.00    +0.000 C 
ATOM     26  C   UNL     1       8.212   7.358  18.465  0.00  0.00    +0.000 C 
ENDBRANCH  24  26
ENDBRANCH  22  24
ENDBRANCH  21  22
ENDBRANCH   1  21
TORSDOF 8
ENDMDL
MODEL 6
REMARK VINA RESULT:      -7.1      1.594      2.450
REMARK  Name = 
REMARK  12 active torsions:
REMARK  status: ('A' for Active; 'I' for Inactive)
REMARK    1  A    between atoms: C_1  and  C_2
REMARK    2  A    between atoms: C_2  and  O_3
REMARK    3  A    between atoms: O_3  and  C_4
REMARK    4  A    between atoms: C_4  and  C_6
REMARK    5  A    between atoms: C_6  and  C_7
REMARK    6  A    between atoms: C_7  and  C_8
REMARK    7  A    between atoms: C_7  and  C_18
REMARK    8  A    between atoms: C_12  and  O_13
REMARK    9  A    between atoms: O_13  and  C_14
REMARK   10  A    between atoms: C_15  and  O_16
REMARK   11  A    between atoms: O_16  and  C_17
REMARK   12  A    between atoms: C_19  and  C_20
REMARK                            x       y       z     vdW  Elec       q    Type
REMARK                         _______ _______ _______ _____ _____    ______ ____
ROOT
ATOM      1  C   UNL     1       4.124   6.204  18.169  0.00  0.00    +0.000 C 
ENDROOT
BRANCH   1   2
ATOM      2  C   UNL     1       3.899   4.705  18.149  0.00  0.00    +0.000 A 
ATOM      3  C   UNL     1       2.826   3.967  17.786  0.00  0.00    +0.000 A 
ATOM      4  C   UNL     1       1.495   4.445  17.322  0.00  0.00    +0.000 C 
ATOM      5  N   UNL     1       3.025   2.597  17.941  0.00  0.00    +0.000 N 
ATOM      6  N   UNL     1       4.198   2.457  18.657  0.00  0.00    +0.000 N 
ATOM      7  C   UNL     1       4.837   3.682  18.709  0.00  0.00    +0.000 A 
ATOM      8  O   UNL     1       5.949   3.868  19.167  0.00  0.00    +0.000 OA
ATOM      9  H   UNL     1       2.215   2.116  18.335  0.00  0.00    +0.000 HD
ATOM     10  H   UNL     1       4.720   1.591  18.672  0.00  0.00    +0.000 HD
ENDBRANCH   1   2
BRANCH   1  11
ATOM     11  C   UNL     1       2.900   7.084  18.539  0.00  0.00    +0.000 A 
ATOM     12  C   UNL     1       2.465   8.054  17.619  0.00  0.00    +0.000 A 
ATOM     13  C   UNL     1       1.612   9.073  18.003  0.00  0.00    +0.000 A 
ATOM     14  C   UNL     1       1.153   9.135  19.314  0.00  0.00    +0.000 A 
ATOM     15  C   UNL     1       1.437   8.113  20.226  0.00  0.00    +0.000 A 
ATOM     16  C   UNL     1       2.309   7.061  19.839  0.00  0.00    +0.000 A 
BRANCH  15  17
ATOM     17  O   UNL     1       0.924   8.154  21.500  0.00  0.00    +0.000 OA
ATOM     18  C   UNL     1       1.266   9.292  22.292  0.00  0.00    +0.000 C 
ENDBRANCH  15  17
BRANCH  16  19
ATOM     19  O   UNL     1       2.632   5.952  20.588  0.00  0.00    +0.000 OA
ATOM     20  C   UNL     1       1.627   4.992  20.894  0.00  0.00    +0.000 C 
ENDBRANCH  16  19
ENDBRANCH   1  11
BRANCH   1  21
ATOM     21  C   UNL     1       4.824   6.776  16.903  0.00  0.00    +0.000 C 
BRANCH  21  22
ATOM     22  C   UNL     1       6.329   6.533  16.764  0.00  0.00    +0.000 C 
ATOM     23  O   UNL     1       7.173   6.690  17.632  0.00  0.00    +0.000 OA
BRANCH  22  24
ATOM     24  O   UNL     1       6.593   6.038  15.517  0.00  0.00    +0.000 OA
BRANCH  24  26
ATOM     25  C   UNL     1       5.913   3.702  15.136  0.00  0.00    +0.000 C 
ATOM     26  C   UNL     1       7.044   4.673  15.454  0.00  0.00    +0.000 C 
ENDBRANCH  24  26
ENDBRANCH  22  24
ENDBRANCH  21  22
ENDBRANCH   1  21
TORSDOF 8
ENDMDL
MODEL 7
REMARK VINA RESULT:      -7.0      2.585      4.901
REMARK  Name = 
REMARK  12 active torsions:
REMARK  status: ('A' for Active; 'I' for Inactive)
REMARK    1  A    between atoms: C_1  and  C_2
REMARK    2  A    between atoms: C_2  and  O_3
REMARK    3  A    between atoms: O_3  and  C_4
REMARK    4  A    between atoms: C_4  and  C_6
REMARK    5  A    between atoms: C_6  and  C_7
REMARK    6  A    between atoms: C_7  and  C_8
REMARK    7  A    between atoms: C_7  and  C_18
REMARK    8  A    between atoms: C_12  and  O_13
REMARK    9  A    between atoms: O_13  and  C_14
REMARK   10  A    between atoms: C_15  and  O_16
REMARK   11  A    between atoms: O_16  and  C_17
REMARK   12  A    between atoms: C_19  and  C_20
REMARK                            x       y       z     vdW  Elec       q    Type
REMARK                         _______ _______ _______ _____ _____    ______ ____
ROOT
ATOM      1  C   UNL     1       4.445   5.554  18.339  0.00  0.00    +0.000 C 
ENDROOT
BRANCH   1   2
ATOM      2  C   UNL     1       5.805   5.100  17.848  0.00  0.00    +0.000 A 
ATOM      3  C   UNL     1       6.204   4.604  16.656  0.00  0.00    +0.000 A 
ATOM      4  C   UNL     1       5.374   4.315  15.454  0.00  0.00    +0.000 C 
ATOM      5  N   UNL     1       7.560   4.285  16.621  0.00  0.00    +0.000 N 
ATOM      6  N   UNL     1       8.007   4.362  17.926  0.00  0.00    +0.000 N 
ATOM      7  C   UNL     1       7.031   4.965  18.696  0.00  0.00    +0.000 A 
ATOM      8  O   UNL     1       7.162   5.284  19.864  0.00  0.00    +0.000 OA
ATOM      9  H   UNL     1       7.753   3.401  16.147  0.00  0.00    +0.000 HD
ATOM     10  H   UNL     1       8.988   4.453  18.155  0.00  0.00    +0.000 HD
ENDBRANCH   1   2
BRANCH   1  11
ATOM     11  C   UNL     1       3.318   4.486  18.343  0.00  0.00    +0.000 A 
ATOM     12  C   UNL     1       2.328   4.547  17.346  0.00  0.00    +0.000 A 
ATOM     13  C   UNL     1       1.139   3.852  17.474  0.00  0.00    +0.000 A 
ATOM     14  C   UNL     1       0.919   3.055  18.592  0.00  0.00    +0.000 A 
ATOM     15  C   UNL     1       1.930   2.843  19.536  0.00  0.00    +0.000 A 
ATOM     16  C   UNL     1       3.154   3.552  19.411  0.00  0.00    +0.000 A 
BRANCH  15  17
ATOM     17  O   UNL     1       1.722   2.003  20.603  0.00  0.00    +0.000 OA
ATOM     18  C   UNL     1       1.389   2.619  21.848  0.00  0.00    +0.000 C 
ENDBRANCH  15  17
BRANCH  16  19
ATOM     19  O   UNL     1       4.267   3.405  20.209  0.00  0.00    +0.000 OA
ATOM     20  C   UNL     1       4.895   2.133  20.316  0.00  0.00    +0.000 C 
ENDBRANCH  16  19
ENDBRANCH   1  11
BRANCH   1  21
ATOM     21  C   UNL     1       3.924   6.871  17.697  0.00  0.00    +0.000 C 
BRANCH  21  22
ATOM     22  C   UNL     1       2.752   7.573  18.390  0.00  0.00    +0.000 C 
ATOM     23  O   UNL     1       2.426   7.456  19.560  0.00  0.00    +0.000 OA
BRANCH  22  24
ATOM     24  O   UNL     1       2.148   8.422  17.504  0.00  0.00    +0.000 OA
BRANCH  24  26
ATOM     25  C   UNL     1       0.358   9.945  18.237  0.00  0.00    +0.000 C 
ATOM     26  C   UNL     1       1.848   9.743  17.989  0.00  0.00    +0.000 C 
ENDBRANCH  24  26
ENDBRANCH  22  24
ENDBRANCH  21  22
ENDBRANCH   1  21
TORSDOF 8
ENDMDL
MODEL 8
REMARK VINA RESULT:      -7.0      1.135      1.889
REMARK  Name = 
REMARK  12 active torsions:
REMARK  status: ('A' for Active; 'I' for Inactive)
REMARK    1  A    between atoms: C_1  and  C_2
REMARK    2  A    between atoms: C_2  and  O_3
REMARK    3  A    between atoms: O_3  and  C_4
REMARK    4  A    between atoms: C_4  and  C_6
REMARK    5  A    between atoms: C_6  and  C_7
REMARK    6  A    between atoms: C_7  and  C_8
REMARK    7  A    between atoms: C_7  and  C_18
REMARK    8  A    between atoms: C_12  and  O_13
REMARK    9  A    between atoms: O_13  and  C_14
REMARK   10  A    between atoms: C_15  and  O_16
REMARK   11  A    between atoms: O_16  and  C_17
REMARK   12  A    between atoms: C_19  and  C_20
REMARK                            x       y       z     vdW  Elec       q    Type
REMARK                         _______ _______ _______ _____ _____    ______ ____
ROOT
ATOM      1  C   UNL     1       4.125   5.030  18.564  0.00  0.00    +0.000 C 
ENDROOT
BRANCH   1   2
ATOM      2  C   UNL     1       3.533   3.641  18.432  0.00  0.00    +0.000 A 
ATOM      3  C   UNL     1       2.417   3.200  17.813  0.00  0.00    +0.000 A 
ATOM      4  C   UNL     1       1.389   3.998  17.089  0.00  0.00    +0.000 C 
ATOM      5  N   UNL     1       2.218   1.828  17.949  0.00  0.00    +0.000 N 
ATOM      6  N   UNL     1       3.127   1.400  18.898  0.00  0.00    +0.000 N 
ATOM      7  C   UNL     1       4.030   2.419  19.140  0.00  0.00    +0.000 A 
ATOM      8  O   UNL     1       5.022   2.319  19.838  0.00  0.00    +0.000 OA
ATOM      9  H   UNL     1       1.245   1.579  18.136  0.00  0.00    +0.000 HD
ATOM     10  H   UNL     1       3.393   0.429  18.991  0.00  0.00    +0.000 HD
ENDBRANCH   1   2
BRANCH   1  11
ATOM     11  C   UNL     1       3.117   6.199  18.733  0.00  0.00    +0.000 A 
ATOM     12  C   UNL     1       3.061   7.190  17.737  0.00  0.00    +0.000 A 
ATOM     13  C   UNL     1       2.442   8.405  17.971  0.00  0.00    +0.000 A 
ATOM     14  C   UNL     1       1.841   8.651  19.200  0.00  0.00    +0.000 A 
ATOM     15  C   UNL     1       1.740   7.646  20.168  0.00  0.00    +0.000 A 
ATOM     16  C   UNL     1       2.370   6.395  19.934  0.00  0.00    +0.000 A 
BRANCH  15  17
ATOM     17  O   UNL     1       1.087   7.883  21.353  0.00  0.00    +0.000 OA
ATOM     18  C   UNL     1       1.295   9.161  21.954  0.00  0.00    +0.000 C 
ENDBRANCH  15  17
BRANCH  16  19
ATOM     19  O   UNL     1       2.307   5.285  20.748  0.00  0.00    +0.000 OA
ATOM     20  C   UNL     1       1.135   4.477  20.747  0.00  0.00    +0.000 C 
ENDBRANCH  16  19
ENDBRANCH   1  11
BRANCH   1  21
ATOM     21  C   UNL     1       5.182   5.395  17.482  0.00  0.00    +0.000 C 
BRANCH  21  22
ATOM     22  C   UNL     1       6.582   4.797  17.641  0.00  0.00    +0.000 C 
ATOM     23  O   UNL     1       7.286   4.350  16.749  0.00  0.00    +0.000 OA
BRANCH  22  24
ATOM     24  O   UNL     1       6.969   4.896  18.949  0.00  0.00    +0.000 OA
BRANCH  24  26
ATOM     25  C   UNL     1       7.952   7.083  18.389  0.00  0.00    +0.000 C 
ATOM     26  C   UNL     1       8.040   5.815  19.230  0.00  0.00    +0.000 C 
ENDBRANCH  24  26
ENDBRANCH  22  24
ENDBRANCH  21  22
ENDBRANCH   1  21
TORSDOF 8
ENDMDL
MODEL 9
REMARK VINA RESULT:      -6.9      2.642      3.778
REMARK  Name = 
REMARK  12 active torsions:
REMARK  status: ('A' for Active; 'I' for Inactive)
REMARK    1  A    between atoms: C_1  and  C_2
REMARK    2  A    between atoms: C_2  and  O_3
REMARK    3  A    between atoms: O_3  and  C_4
REMARK    4  A    between atoms: C_4  and  C_6
REMARK    5  A    between atoms: C_6  and  C_7
REMARK    6  A    between atoms: C_7  and  C_8
REMARK    7  A    between atoms: C_7  and  C_18
REMARK    8  A    between atoms: C_12  and  O_13
REMARK    9  A    between atoms: O_13  and  C_14
REMARK   10  A    between atoms: C_15  and  O_16
REMARK   11  A    between atoms: O_16  and  C_17
REMARK   12  A    between atoms: C_19  and  C_20
REMARK                            x       y       z     vdW  Elec       q    Type
REMARK                         _______ _______ _______ _____ _____    ______ ____
ROOT
ATOM      1  C   UNL     1       4.973   4.868  18.269  0.00  0.00    +0.000 C 
ENDROOT
BRANCH   1   2
ATOM      2  C   UNL     1       5.080   5.418  16.861  0.00  0.00    +0.000 A 
ATOM      3  C   UNL     1       5.529   4.861  15.715  0.00  0.00    +0.000 A 
ATOM      4  C   UNL     1       6.108   3.504  15.517  0.00  0.00    +0.000 C 
ATOM      5  N   UNL     1       5.476   5.727  14.625  0.00  0.00    +0.000 N 
ATOM      6  N   UNL     1       5.196   6.978  15.141  0.00  0.00    +0.000 N 
ATOM      7  C   UNL     1       4.825   6.840  16.466  0.00  0.00    +0.000 A 
ATOM      8  O   UNL     1       4.406   7.740  17.170  0.00  0.00    +0.000 OA
ATOM      9  H   UNL     1       6.306   5.678  14.032  0.00  0.00    +0.000 HD
ATOM     10  H   UNL     1       4.831   7.728  14.569  0.00  0.00    +0.000 HD
ENDBRANCH   1   2
BRANCH   1  11
ATOM     11  C   UNL     1       3.581   4.966  18.947  0.00  0.00    +0.000 A 
ATOM     12  C   UNL     1       3.100   6.235  19.318  0.00  0.00    +0.000 A 
ATOM     13  C   UNL     1       2.045   6.371  20.202  0.00  0.00    +0.000 A 
ATOM     14  C   UNL     1       1.426   5.239  20.721  0.00  0.00    +0.000 A 
ATOM     15  C   UNL     1       1.768   3.959  20.270  0.00  0.00    +0.000 A 
ATOM     16  C   UNL     1       2.848   3.812  19.360  0.00  0.00    +0.000 A 
BRANCH  15  17
ATOM     17  O   UNL     1       1.105   2.854  20.743  0.00  0.00    +0.000 OA
ATOM     18  C   UNL     1       1.538   2.337  22.002  0.00  0.00    +0.000 C 
ENDBRANCH  15  17
BRANCH  16  19
ATOM     19  O   UNL     1       3.264   2.639  18.770  0.00  0.00    +0.000 OA
ATOM     20  C   UNL     1       2.569   2.138  17.634  0.00  0.00    +0.000 C 
ENDBRANCH  16  19
ENDBRANCH   1  11
BRANCH   1  21
ATOM     21  C   UNL     1       6.076   5.362  19.248  0.00  0.00    +0.000 C 
BRANCH  21  22
ATOM     22  C   UNL     1       7.518   5.372  18.733  0.00  0.00    +0.000 C 
ATOM     23  O   UNL     1       8.117   4.432  18.236  0.00  0.00    +0.000 OA
BRANCH  22  24
ATOM     24  O   UNL     1       8.029   6.635  18.850  0.00  0.00    +0.000 OA
BRANCH  24  26
ATOM     25  C   UNL     1       8.168   8.954  18.034  0.00  0.00    +0.000 C 
ATOM     26  C   UNL     1       7.880   7.494  17.706  0.00  0.00    +0.000 C 
ENDBRANCH  24  26
ENDBRANCH  22  24
ENDBRANCH  21  22
ENDBRANCH   1  21
TORSDOF 8
ENDMDL
