MODEL 1
REMARK VINA RESULT:      -7.8      0.000      0.000
REMARK  Name = 
REMARK  9 active torsions:
REMARK  status: ('A' for Active; 'I' for Inactive)
REMARK    1  A    between atoms: C_1  and  O_2
REMARK    2  A    between atoms: O_2  and  N_3
REMARK    3  A    between atoms: C_4  and  C_5
REMARK    4  A    between atoms: C_4  and  C_9
REMARK    5  A    between atoms: C_5  and  O_7
REMARK    6  A    between atoms: O_7  and  C_8
REMARK    7  A    between atoms: C_14  and  C_15
REMARK    8  A    between atoms: C_15  and  S_16
REMARK    9  A    between atoms: S_16  and  C_17
REMARK                            x       y       z     vdW  Elec       q    Type
REMARK                         _______ _______ _______ _____ _____    ______ ____
ROOT
ATOM      1  C   UNL     1       4.029   4.355  17.471  0.00  0.00    +0.000 A 
ATOM      2  C   UNL     1       3.806   2.978  17.265  0.00  0.00    +0.000 A 
ATOM      3  C   UNL     1       2.659   2.357  17.749  0.00  0.00    +0.000 A 
ATOM      4  C   UNL     1       1.712   3.114  18.428  0.00  0.00    +0.000 A 
ATOM      5  C   UNL     1       1.908   4.485  18.632  0.00  0.00    +0.000 A 
ATOM      6  C   UNL     1       3.066   5.148  18.177  0.00  0.00    +0.000 A 
ENDROOT
BRANCH   1   8
ATOM      7  N   UNL     1       6.488   4.848  17.420  0.00  0.00    +0.000 NA
ATOM      8  C   UNL     1       5.306   4.860  16.871  0.00  0.00    +0.000 C 
BRANCH   7  10
ATOM      9  C   UNL     1       6.908   5.502  19.592  0.00  0.00    +0.000 C 
ATOM     10  O   UNL     1       6.416   4.467  18.755  0.00  0.00    +0.000 OA
ENDBRANCH   7  10
BRANCH   8  11
ATOM     11  C   UNL     1       5.192   5.550  15.483  0.00  0.00    +0.000 C 
ATOM     12  O   UNL     1       5.284   6.757  15.337  0.00  0.00    +0.000 OA
BRANCH  11  13
ATOM     13  O   UNL     1       5.109   4.623  14.494  0.00  0.00    +0.000 OA
ATOM     14  C   UNL     1       6.362   4.132  14.028  0.00  0.00    +0.000 C 
ENDBRANCH  11  13
ENDBRANCH   8  11
ENDBRANCH   1   8
BRANCH   6  15
ATOM     15  C   UNL     1       3.266   6.648  18.412  0.00  0.00    +0.000 C 
BRANCH  15  16
ATOM     16  S   UNL     1       2.233   7.907  17.607  0.00  0.00    +0.000 S 
BRANCH  16  17
ATOM     17  C   UNL     1       1.681   9.000  18.846  0.00  0.00    +0.000 A 
ATOM     18  C   UNL     1       1.365  10.266  18.575  0.00  0.00    +0.000 A 
ATOM     19  C   UNL     1       1.243  11.282  19.628  0.00  0.00    +0.000 A 
ATOM     20  O   UNL     1       1.611  12.431  19.422  0.00  0.00    +0.000 OA
ATOM     21  C   UNL     1       0.590  10.897  20.880  0.00  0.00    +0.000 A 
ATOM     22  C   UNL     1      -0.093  11.882  21.613  0.00  0.00    +0.000 A 
ATOM     23  C   UNL     1      -0.868  11.509  22.698  0.00  0.00    +0.000 A 
ATOM     24  C   UNL     1      -0.963  10.159  23.048  0.00  0.00    +0.000 A 
ATOM     25  C   UNL     1      -0.226   9.191  22.351  0.00  0.00    +0.000 A 
ATOM     26  C   UNL     1       0.571   9.558  21.267  0.00  0.00    +0.000 A 
ATOM     27  S   UNL     1       1.626   8.355  20.474  0.00  0.00    +0.000 S 
ENDBRANCH  16  17
ENDBRANCH  15  16
ENDBRANCH   6  15
TORSDOF 7
ENDMDL
MODEL 2
REMARK VINA RESULT:      -7.5      1.388      1.565
REMARK  Name = 
REMARK  9 active torsions:
REMARK  status: ('A' for Active; 'I' for Inactive)
REMARK    1  A    between atoms: C_1  and  O_2
REMARK    2  A    between atoms: O_2  and  N_3
REMARK    3  A    between atoms: C_4  and  C_5
REMARK    4  A    between atoms: C_4  and  C_9
REMARK    5  A    between atoms: C_5  and  O_7
REMARK    6  A    between atoms: O_7  and  C_8
REMARK    7  A    between atoms: C_14  and  C_15
REMARK    8  A    between atoms: C_15  and  S_16
REMARK    9  A    between atoms: S_16  and  C_17
REMARK                            x       y       z     vdW  Elec       q    Type
REMARK                         _______ _______ _______ _____ _____    ______ ____
ROOT
ATOM      1  C   UNL     1       4.085   4.113  19.305  0.00  0.00    +0.000 A 
ATOM      2  C   UNL     1       3.871   2.837  19.865  0.00  0.00    +0.000 A 
ATOM      3  C   UNL     1       2.888   2.630  20.826  0.00  0.00    +0.000 A 
ATOM      4  C   UNL     1       2.093   3.698  21.225  0.00  0.00    +0.000 A 
ATOM      5  C   UNL     1       2.280   4.972  20.672  0.00  0.00    +0.000 A 
ATOM      6  C   UNL     1       3.280   5.227  19.711  0.00  0.00    +0.000 A 
ENDROOT
BRANCH   1   8
ATOM      7  N   UNL     1       6.418   4.488  18.464  0.00  0.00    +0.000 NA
ATOM      8  C   UNL     1       5.174   4.151  18.276  0.00  0.00    +0.000 C 
BRANCH   7  10
ATOM      9  C   UNL     1       7.805   5.771  19.787  0.00  0.00    +0.000 C 
ATOM     10  O   UNL     1       6.609   5.007  19.739  0.00  0.00    +0.000 OA
ENDBRANCH   7  10
BRANCH   8  11
ATOM     11  C   UNL     1       4.750   3.842  16.812  0.00  0.00    +0.000 C 
ATOM     12  O   UNL     1       3.584   3.770  16.464  0.00  0.00    +0.000 OA
BRANCH  11  13
ATOM     13  O   UNL     1       5.838   3.799  15.999  0.00  0.00    +0.000 OA
ATOM     14  C   UNL     1       5.591   4.177  14.648  0.00  0.00    +0.000 C 
ENDBRANCH  11  13
ENDBRANCH   8  11
ENDBRANCH   1   8
BRANCH   6  15
ATOM     15  C   UNL     1       3.473   6.626  19.121  0.00  0.00    +0.000 C 
BRANCH  15  16
ATOM     16  S   UNL     1       2.159   7.491  18.211  0.00  0.00    +0.000 S 
BRANCH  16  17
ATOM     17  C   UNL     1       1.571   8.773  19.233  0.00  0.00    +0.000 A 
ATOM     18  C   UNL     1       1.232   9.964  18.741  0.00  0.00    +0.000 A 
ATOM     19  C   UNL     1       1.078  11.146  19.598  0.00  0.00    +0.000 A 
ATOM     20  O   UNL     1       1.424  12.249  19.195  0.00  0.00    +0.000 OA
ATOM     21  C   UNL     1       0.419  10.973  20.893  0.00  0.00    +0.000 A 
ATOM     22  C   UNL     1      -0.292  12.056  21.436  0.00  0.00    +0.000 A 
ATOM     23  C   UNL     1      -1.071  11.864  22.564  0.00  0.00    +0.000 A 
ATOM     24  C   UNL     1      -1.142  10.594  23.146  0.00  0.00    +0.000 A 
ATOM     25  C   UNL     1      -0.377   9.536  22.636  0.00  0.00    +0.000 A 
ATOM     26  C   UNL     1       0.424   9.723  21.510  0.00  0.00    +0.000 A 
ATOM     27  S   UNL     1       1.512   8.423  20.950  0.00  0.00    +0.000 S 
ENDBRANCH  16  17
ENDBRANCH  15  16
ENDBRANCH   6  15
TORSDOF 7
ENDMDL
MODEL 3
REMARK VINA RESULT:      -7.4      1.370      1.840
REMARK  Name = 
REMARK  9 active torsions:
REMARK  status: ('A' for Active; 'I' for Inactive)
REMARK    1  A    between atoms: C_1  and  O_2
REMARK    2  A    between atoms: O_2  and  N_3
REMARK    3  A    between atoms: C_4  and  C_5
REMARK    4  A    between atoms: C_4  and  C_9
REMARK    5  A    between atoms: C_5  and  O_7
REMARK    6  A    between atoms: O_7  and  C_8
REMARK    7  A    between atoms: C_14  and  C_15
REMARK    8  A    between atoms: C_15  and  S_16
REMARK    9  A    between atoms: S_16  and  C_17
REMARK                            x       y       z     vdW  Elec       q    Type
REMARK                         _______ _______ _______ _____ _____    ______ ____
ROOT
ATOM      1  C   UNL     1       4.143   4.451  17.756  0.00  0.00    +0.000 A 
ATOM      2  C   UNL     1       3.971   3.097  17.403  0.00  0.00    +0.000 A 
ATOM      3  C   UNL     1       2.871   2.373  17.850  0.00  0.00    +0.000 A 
ATOM      4  C   UNL     1       1.918   3.004  18.641  0.00  0.00    +0.000 A 
ATOM      5  C   UNL     1       2.063   4.352  18.992  0.00  0.00    +0.000 A 
ATOM      6  C   UNL     1       3.174   5.115  18.578  0.00  0.00    +0.000 A 
ENDROOT
BRANCH   1   8
ATOM      7  N   UNL     1       6.516   5.262  17.777  0.00  0.00    +0.000 NA
ATOM      8  C   UNL     1       5.374   5.079  17.177  0.00  0.00    +0.000 C 
BRANCH   7  10
ATOM      9  C   UNL     1       7.580   5.422  19.817  0.00  0.00    +0.000 C 
ATOM     10  O   UNL     1       6.423   4.967  19.132  0.00  0.00    +0.000 OA
ENDBRANCH   7  10
BRANCH   8  11
ATOM     11  C   UNL     1       5.246   5.651  15.736  0.00  0.00    +0.000 C 
ATOM     12  O   UNL     1       5.193   6.846  15.504  0.00  0.00    +0.000 OA
BRANCH  11  13
ATOM     13  O   UNL     1       5.331   4.654  14.817  0.00  0.00    +0.000 OA
ATOM     14  C   UNL     1       6.644   4.408  14.322  0.00  0.00    +0.000 C 
ENDBRANCH  11  13
ENDBRANCH   8  11
ENDBRANCH   1   8
BRANCH   6  15
ATOM     15  C   UNL     1       3.319   6.586  18.975  0.00  0.00    +0.000 C 
BRANCH  15  16
ATOM     16  S   UNL     1       2.517   7.929  18.050  0.00  0.00    +0.000 S 
BRANCH  16  17
ATOM     17  C   UNL     1       1.514   8.808  19.169  0.00  0.00    +0.000 A 
ATOM     18  C   UNL     1       1.195   8.314  20.365  0.00  0.00    +0.000 A 
ATOM     19  C   UNL     1       0.090   8.857  21.165  0.00  0.00    +0.000 A 
ATOM     20  O   UNL     1      -0.610   8.110  21.836  0.00  0.00    +0.000 OA
ATOM     21  C   UNL     1      -0.080  10.310  21.201  0.00  0.00    +0.000 A 
ATOM     22  C   UNL     1      -0.642  10.893  22.350  0.00  0.00    +0.000 A 
ATOM     23  C   UNL     1      -0.646  12.270  22.483  0.00  0.00    +0.000 A 
ATOM     24  C   UNL     1      -0.088  13.063  21.475  0.00  0.00    +0.000 A 
ATOM     25  C   UNL     1       0.411  12.476  20.304  0.00  0.00    +0.000 A 
ATOM     26  C   UNL     1       0.404  11.090  20.152  0.00  0.00    +0.000 A 
ATOM     27  S   UNL     1       0.897  10.349  18.604  0.00  0.00    +0.000 S 
ENDBRANCH  16  17
ENDBRANCH  15  16
ENDBRANCH   6  15
TORSDOF 7
ENDMDL
MODEL 4
REMARK VINA RESULT:      -7.3      0.826      2.278
REMARK  Name = 
REMARK  9 active torsions:
REMARK  status: ('A' for Active; 'I' for Inactive)
REMARK    1  A    between atoms: C_1  and  O_2
REMARK    2  A    between atoms: O_2  and  N_3
REMARK    3  A    between atoms: C_4  and  C_5
REMARK    4  A    between atoms: C_4  and  C_9
REMARK    5  A    between atoms: C_5  and  O_7
REMARK    6  A    between atoms: O_7  and  C_8
REMARK    7  A    between atoms: C_14  and  C_15
REMARK    8  A    between atoms: C_15  and  S_16
REMARK    9  A    between atoms: S_16  and  C_17
REMARK                            x       y       z     vdW  Elec       q    Type
REMARK                         _______ _______ _______ _____ _____    ______ ____
ROOT
ATOM      1  C   UNL     1       3.919   4.076  17.953  0.00  0.00    +0.000 A 
ATOM      2  C   UNL     1       3.676   2.716  17.672  0.00  0.00    +0.000 A 
ATOM      3  C   UNL     1       2.418   2.157  17.867  0.00  0.00    +0.000 A 
ATOM      4  C   UNL     1       1.381   2.960  18.328  0.00  0.00    +0.000 A 
ATOM      5  C   UNL     1       1.598   4.316  18.601  0.00  0.00    +0.000 A 
ATOM      6  C   UNL     1       2.863   4.916  18.437  0.00  0.00    +0.000 A 
ENDROOT
BRANCH   1   8
ATOM      7  N   UNL     1       5.875   4.680  16.504  0.00  0.00    +0.000 NA
ATOM      8  C   UNL     1       5.325   4.513  17.673  0.00  0.00    +0.000 C 
BRANCH   7  10
ATOM      9  C   UNL     1       5.722   4.254  14.243  0.00  0.00    +0.000 C 
ATOM     10  O   UNL     1       5.045   4.217  15.490  0.00  0.00    +0.000 OA
ENDBRANCH   7  10
BRANCH   8  11
ATOM     11  C   UNL     1       6.248   4.702  18.910  0.00  0.00    +0.000 C 
ATOM     12  O   UNL     1       5.876   4.484  20.050  0.00  0.00    +0.000 OA
BRANCH  11  13
ATOM     13  O   UNL     1       7.513   5.007  18.519  0.00  0.00    +0.000 OA
ATOM     14  C   UNL     1       7.870   6.378  18.662  0.00  0.00    +0.000 C 
ENDBRANCH  11  13
ENDBRANCH   8  11
ENDBRANCH   1   8
BRANCH   6  15
ATOM     15  C   UNL     1       3.084   6.400  18.744  0.00  0.00    +0.000 C 
BRANCH  15  16
ATOM     16  S   UNL     1       2.238   7.722  17.828  0.00  0.00    +0.000 S 
BRANCH  16  17
ATOM     17  C   UNL     1       1.654   8.876  18.993  0.00  0.00    +0.000 A 
ATOM     18  C   UNL     1       1.280  10.105  18.638  0.00  0.00    +0.000 A 
ATOM     19  C   UNL     1       1.127  11.188  19.617  0.00  0.00    +0.000 A 
ATOM     20  O   UNL     1       1.441  12.334  19.324  0.00  0.00    +0.000 OA
ATOM     21  C   UNL     1       0.507  10.866  20.903  0.00  0.00    +0.000 A 
ATOM     22  C   UNL     1      -0.210  11.871  21.575  0.00  0.00    +0.000 A 
ATOM     23  C   UNL     1      -0.954  11.545  22.695  0.00  0.00    +0.000 A 
ATOM     24  C   UNL     1      -0.987  10.220  23.142  0.00  0.00    +0.000 A 
ATOM     25  C   UNL     1      -0.216   9.237  22.505  0.00  0.00    +0.000 A 
ATOM     26  C   UNL     1       0.551   9.559  21.385  0.00  0.00    +0.000 A 
ATOM     27  S   UNL     1       1.648   8.348  20.664  0.00  0.00    +0.000 S 
ENDBRANCH  16  17
ENDBRANCH  15  16
ENDBRANCH   6  15
TORSDOF 7
ENDMDL
MODEL 5
REMARK VINA RESULT:      -7.3      1.684      2.964
REMARK  Name = 
REMARK  9 active torsions:
REMARK  status: ('A' for Active; 'I' for Inactive)
REMARK    1  A    between atoms: C_1  and  O_2
REMARK    2  A    between atoms: O_2  and  N_3
REMARK    3  A    between atoms: C_4  and  C_5
REMARK    4  A    between atoms: C_4  and  C_9
REMARK    5  A    between atoms: C_5  and  O_7
REMARK    6  A    between atoms: O_7  and  C_8
REMARK    7  A    between atoms: C_14  and  C_15
REMARK    8  A    between atoms: C_15  and  S_16
REMARK    9  A    between atoms: S_16  and  C_17
REMARK                            x       y       z     vdW  Elec       q    Type
REMARK                         _______ _______ _______ _____ _____    ______ ____
ROOT
ATOM      1  C   UNL     1       4.291   5.277  17.525  0.00  0.00    +0.000 A 
ATOM      2  C   UNL     1       4.119   3.914  17.204  0.00  0.00    +0.000 A 
ATOM      3  C   UNL     1       2.870   3.309  17.294  0.00  0.00    +0.000 A 
ATOM      4  C   UNL     1       1.774   4.067  17.687  0.00  0.00    +0.000 A 
ATOM      5  C   UNL     1       1.920   5.425  17.997  0.00  0.00    +0.000 A 
ATOM      6  C   UNL     1       3.172   6.071  17.940  0.00  0.00    +0.000 A 
ENDROOT
BRANCH   1   8
ATOM      7  N   UNL     1       6.260   6.174  16.257  0.00  0.00    +0.000 NA
ATOM      8  C   UNL     1       5.697   5.767  17.359  0.00  0.00    +0.000 C 
BRANCH   7  10
ATOM      9  C   UNL     1       6.044   4.965  14.305  0.00  0.00    +0.000 C 
ATOM     10  O   UNL     1       5.445   5.928  15.158  0.00  0.00    +0.000 OA
ENDBRANCH   7  10
BRANCH   8  11
ATOM     11  C   UNL     1       6.605   5.699  18.620  0.00  0.00    +0.000 C 
ATOM     12  O   UNL     1       6.222   5.244  19.684  0.00  0.00    +0.000 OA
BRANCH  11  13
ATOM     13  O   UNL     1       7.871   6.088  18.318  0.00  0.00    +0.000 OA
ATOM     14  C   UNL     1       8.134   7.474  18.513  0.00  0.00    +0.000 C 
ENDBRANCH  11  13
ENDBRANCH   8  11
ENDBRANCH   1   8
BRANCH   6  15
ATOM     15  C   UNL     1       3.316   7.556  18.286  0.00  0.00    +0.000 C 
BRANCH  15  16
ATOM     16  S   UNL     1       2.161   8.817  17.672  0.00  0.00    +0.000 S 
BRANCH  16  17
ATOM     17  C   UNL     1       1.191   9.340  19.020  0.00  0.00    +0.000 A 
ATOM     18  C   UNL     1       1.244   8.727  20.203  0.00  0.00    +0.000 A 
ATOM     19  C   UNL     1       0.206   8.913  21.225  0.00  0.00    +0.000 A 
ATOM     20  O   UNL     1      -0.136   7.975  21.934  0.00  0.00    +0.000 OA
ATOM     21  C   UNL     1      -0.328  10.261  21.423  0.00  0.00    +0.000 A 
ATOM     22  C   UNL     1      -0.796  10.619  22.698  0.00  0.00    +0.000 A 
ATOM     23  C   UNL     1      -1.134  11.936  22.955  0.00  0.00    +0.000 A 
ATOM     24  C   UNL     1      -1.002  12.893  21.945  0.00  0.00    +0.000 A 
ATOM     25  C   UNL     1      -0.598  12.515  20.657  0.00  0.00    +0.000 A 
ATOM     26  C   UNL     1      -0.271  11.187  20.383  0.00  0.00    +0.000 A 
ATOM     27  S   UNL     1       0.099  10.675  18.712  0.00  0.00    +0.000 S 
ENDBRANCH  16  17
ENDBRANCH  15  16
ENDBRANCH   6  15
TORSDOF 7
ENDMDL
MODEL 6
REMARK VINA RESULT:      -7.0      1.869      2.433
REMARK  Name = 
REMARK  9 active torsions:
REMARK  status: ('A' for Active; 'I' for Inactive)
REMARK    1  A    between atoms: C_1  and  O_2
REMARK    2  A    between atoms: O_2  and  N_3
REMARK    3  A    between atoms: C_4  and  C_5
REMARK    4  A    between atoms: C_4  and  C_9
REMARK    5  A    between atoms: C_5  and  O_7
REMARK    6  A    between atoms: O_7  and  C_8
REMARK    7  A    between atoms: C_14  and  C_15
REMARK    8  A    between atoms: C_15  and  S_16
REMARK    9  A    between atoms: S_16  and  C_17
REMARK                            x       y       z     vdW  Elec       q    Type
REMARK                         _______ _______ _______ _____ _____    ______ ____
ROOT
ATOM      1  C   UNL     1       3.966   4.151  19.331  0.00  0.00    +0.000 A 
ATOM      2  C   UNL     1       3.691   2.852  19.806  0.00  0.00    +0.000 A 
ATOM      3  C   UNL     1       2.738   2.637  20.796  0.00  0.00    +0.000 A 
ATOM      4  C   UNL     1       2.034   3.720  21.309  0.00  0.00    +0.000 A 
ATOM      5  C   UNL     1       2.283   5.017  20.842  0.00  0.00    +0.000 A 
ATOM      6  C   UNL     1       3.255   5.281  19.855  0.00  0.00    +0.000 A 
ENDROOT
BRANCH   1   8
ATOM      7  N   UNL     1       6.281   4.434  18.409  0.00  0.00    +0.000 NA
ATOM      8  C   UNL     1       5.009   4.197  18.256  0.00  0.00    +0.000 C 
BRANCH   7  10
ATOM      9  C   UNL     1       7.659   5.739  19.720  0.00  0.00    +0.000 C 
ATOM     10  O   UNL     1       6.562   4.838  19.709  0.00  0.00    +0.000 OA
ENDBRANCH   7  10
BRANCH   8  11
ATOM     11  C   UNL     1       4.503   4.032  16.795  0.00  0.00    +0.000 C 
ATOM     12  O   UNL     1       3.481   3.429  16.516  0.00  0.00    +0.000 OA
BRANCH  11  13
ATOM     13  O   UNL     1       5.276   4.748  15.938  0.00  0.00    +0.000 OA
ATOM     14  C   UNL     1       5.893   3.983  14.908  0.00  0.00    +0.000 C 
ENDBRANCH  11  13
ENDBRANCH   8  11
ENDBRANCH   1   8
BRANCH   6  15
ATOM     15  C   UNL     1       3.517   6.705  19.359  0.00  0.00    +0.000 C 
BRANCH  15  16
ATOM     16  S   UNL     1       2.355   7.590  18.278  0.00  0.00    +0.000 S 
BRANCH  16  17
ATOM     17  C   UNL     1       1.458   8.702  19.274  0.00  0.00    +0.000 A 
ATOM     18  C   UNL     1       1.193   8.442  20.554  0.00  0.00    +0.000 A 
ATOM     19  C   UNL     1       0.162   9.172  21.302  0.00  0.00    +0.000 A 
ATOM     20  O   UNL     1      -0.526   8.591  22.131  0.00  0.00    +0.000 OA
ATOM     21  C   UNL     1       0.053  10.616  21.088  0.00  0.00    +0.000 A 
ATOM     22  C   UNL     1      -0.414  11.419  22.142  0.00  0.00    +0.000 A 
ATOM     23  C   UNL     1      -0.353  12.797  22.028  0.00  0.00    +0.000 A 
ATOM     24  C   UNL     1       0.174  13.371  20.867  0.00  0.00    +0.000 A 
ATOM     25  C   UNL     1       0.576  12.563  19.795  0.00  0.00    +0.000 A 
ATOM     26  C   UNL     1       0.504  11.174  19.893  0.00  0.00    +0.000 A 
ATOM     27  S   UNL     1       0.871  10.149  18.477  0.00  0.00    +0.000 S 
ENDBRANCH  16  17
ENDBRANCH  15  16
ENDBRANCH   6  15
TORSDOF 7
ENDMDL
MODEL 7
REMARK VINA RESULT:      -7.0      1.743      3.040
REMARK  Name = 
REMARK  9 active torsions:
REMARK  status: ('A' for Active; 'I' for Inactive)
REMARK    1  A    between atoms: C_1  and  O_2
REMARK    2  A    between atoms: O_2  and  N_3
REMARK    3  A    between atoms: C_4  and  C_5
REMARK    4  A    between atoms: C_4  and  C_9
REMARK    5  A    between atoms: C_5  and  O_7
REMARK    6  A    between atoms: O_7  and  C_8
REMARK    7  A    between atoms: C_14  and  C_15
REMARK    8  A    between atoms: C_15  and  S_16
REMARK    9  A    between atoms: S_16  and  C_17
REMARK                            x       y       z     vdW  Elec       q    Type
REMARK                         _______ _______ _______ _____ _____    ______ ____
ROOT
ATOM      1  C   UNL     1       5.303   4.658  17.044  0.00  0.00    +0.000 A 
ATOM      2  C   UNL     1       5.905   3.710  16.191  0.00  0.00    +0.000 A 
ATOM      3  C   UNL     1       6.098   3.982  14.841  0.00  0.00    +0.000 A 
ATOM      4  C   UNL     1       5.708   5.216  14.333  0.00  0.00    +0.000 A 
ATOM      5  C   UNL     1       5.121   6.176  15.167  0.00  0.00    +0.000 A 
ATOM      6  C   UNL     1       4.888   5.932  16.536  0.00  0.00    +0.000 A 
ENDROOT
BRANCH   1   8
ATOM      7  N   UNL     1       6.111   4.251  19.383  0.00  0.00    +0.000 NA
ATOM      8  C   UNL     1       5.186   4.205  18.468  0.00  0.00    +0.000 C 
BRANCH   7  10
ATOM      9  C   UNL     1       7.735   5.887  19.318  0.00  0.00    +0.000 C 
ATOM     10  O   UNL     1       7.337   4.612  18.838  0.00  0.00    +0.000 OA
ENDBRANCH   7  10
BRANCH   8  11
ATOM     11  C   UNL     1       3.844   3.529  18.869  0.00  0.00    +0.000 C 
ATOM     12  O   UNL     1       3.482   3.419  20.028  0.00  0.00    +0.000 OA
BRANCH  11  13
ATOM     13  O   UNL     1       3.117   3.217  17.764  0.00  0.00    +0.000 OA
ATOM     14  C   UNL     1       2.378   2.003  17.858  0.00  0.00    +0.000 C 
ENDBRANCH  11  13
ENDBRANCH   8  11
ENDBRANCH   1   8
BRANCH   6  15
ATOM     15  C   UNL     1       4.241   6.992  17.432  0.00  0.00    +0.000 C 
BRANCH  15  16
ATOM     16  S   UNL     1       2.569   6.800  18.118  0.00  0.00    +0.000 S 
BRANCH  16  17
ATOM     17  C   UNL     1       2.037   8.371  18.647  0.00  0.00    +0.000 A 
ATOM     18  C   UNL     1       2.068   9.432  17.840  0.00  0.00    +0.000 A 
ATOM     19  C   UNL     1       1.967  10.804  18.352  0.00  0.00    +0.000 A 
ATOM     20  O   UNL     1       2.612  11.705  17.832  0.00  0.00    +0.000 OA
ATOM     21  C   UNL     1       1.010  11.066  19.428  0.00  0.00    +0.000 A 
ATOM     22  C   UNL     1       0.429  12.342  19.516  0.00  0.00    +0.000 A 
ATOM     23  C   UNL     1      -0.608  12.559  20.407  0.00  0.00    +0.000 A 
ATOM     24  C   UNL     1      -1.066  11.505  21.204  0.00  0.00    +0.000 A 
ATOM     25  C   UNL     1      -0.437  10.253  21.156  0.00  0.00    +0.000 A 
ATOM     26  C   UNL     1       0.621  10.029  20.274  0.00  0.00    +0.000 A 
ATOM     27  S   UNL     1       1.520   8.487  20.318  0.00  0.00    +0.000 S 
ENDBRANCH  16  17
ENDBRANCH  15  16
ENDBRANCH   6  15
TORSDOF 7
ENDMDL
MODEL 8
REMARK VINA RESULT:      -7.0      3.583      8.472
REMARK  Name = 
REMARK  9 active torsions:
REMARK  status: ('A' for Active; 'I' for Inactive)
REMARK    1  A    between atoms: C_1  and  O_2
REMARK    2  A    between atoms: O_2  and  N_3
REMARK    3  A    between atoms: C_4  and  C_5
REMARK    4  A    between atoms: C_4  and  C_9
REMARK    5  A    between atoms: C_5  and  O_7
REMARK    6  A    between atoms: O_7  and  C_8
REMARK    7  A    between atoms: C_14  and  C_15
REMARK    8  A    between atoms: C_15  and  S_16
REMARK    9  A    between atoms: S_16  and  C_17
REMARK                            x       y       z     vdW  Elec       q    Type
REMARK                         _______ _______ _______ _____ _____    ______ ____
ROOT
ATOM      1  C   UNL     1      -0.104  11.273  19.380  0.00  0.00    +0.000 A 
ATOM      2  C   UNL     1      -1.214  12.049  18.986  0.00  0.00    +0.000 A 
ATOM      3  C   UNL     1      -2.033  11.649  17.936  0.00  0.00    +0.000 A 
ATOM      4  C   UNL     1      -1.762  10.454  17.280  0.00  0.00    +0.000 A 
ATOM      5  C   UNL     1      -0.672   9.662  17.664  0.00  0.00    +0.000 A 
ATOM      6  C   UNL     1       0.195  10.042  18.708  0.00  0.00    +0.000 A 
ENDROOT
BRANCH   1   8
ATOM      7  N   UNL     1       0.459  11.610  21.800  0.00  0.00    +0.000 NA
ATOM      8  C   UNL     1       0.659  11.846  20.535  0.00  0.00    +0.000 C 
BRANCH   7  10
ATOM      9  C   UNL     1      -0.681  10.236  23.260  0.00  0.00    +0.000 C 
ATOM     10  O   UNL     1      -0.707  10.878  21.994  0.00  0.00    +0.000 OA
ENDBRANCH   7  10
BRANCH   8  11
ATOM     11  C   UNL     1       1.748  12.901  20.188  0.00  0.00    +0.000 C 
ATOM     12  O   UNL     1       2.090  13.143  19.044  0.00  0.00    +0.000 OA
BRANCH  11  13
ATOM     13  O   UNL     1       2.139  13.568  21.305  0.00  0.00    +0.000 OA
ATOM     14  C   UNL     1       3.480  14.049  21.275  0.00  0.00    +0.000 C 
ENDBRANCH  11  13
ENDBRANCH   8  11
ENDBRANCH   1   8
BRANCH   6  15
ATOM     15  C   UNL     1       1.384   9.166  19.112  0.00  0.00    +0.000 C 
BRANCH  15  16
ATOM     16  S   UNL     1       1.431   8.249  20.679  0.00  0.00    +0.000 S 
BRANCH  16  17
ATOM     17  C   UNL     1       1.904   6.613  20.314  0.00  0.00    +0.000 A 
ATOM     18  C   UNL     1       1.457   5.578  21.025  0.00  0.00    +0.000 A 
ATOM     19  C   UNL     1       2.100   4.259  20.970  0.00  0.00    +0.000 A 
ATOM     20  O   UNL     1       2.179   3.569  21.978  0.00  0.00    +0.000 OA
ATOM     21  C   UNL     1       2.551   3.769  19.667  0.00  0.00    +0.000 A 
ATOM     22  C   UNL     1       2.573   2.383  19.440  0.00  0.00    +0.000 A 
ATOM     23  C   UNL     1       2.819   1.904  18.165  0.00  0.00    +0.000 A 
ATOM     24  C   UNL     1       3.038   2.807  17.119  0.00  0.00    +0.000 A 
ATOM     25  C   UNL     1       3.079   4.185  17.368  0.00  0.00    +0.000 A 
ATOM     26  C   UNL     1       2.849   4.677  18.653  0.00  0.00    +0.000 A 
ATOM     27  S   UNL     1       3.049   6.417  19.002  0.00  0.00    +0.000 S 
ENDBRANCH  16  17
ENDBRANCH  15  16
ENDBRANCH   6  15
TORSDOF 7
ENDMDL
MODEL 9
REMARK VINA RESULT:      -6.9      1.996      3.244
REMARK  Name = 
REMARK  9 active torsions:
REMARK  status: ('A' for Active; 'I' for Inactive)
REMARK    1  A    between atoms: C_1  and  O_2
REMARK    2  A    between atoms: O_2  and  N_3
REMARK    3  A    between atoms: C_4  and  C_5
REMARK    4  A    between atoms: C_4  and  C_9
REMARK    5  A    between atoms: C_5  and  O_7
REMARK    6  A    between atoms: O_7  and  C_8
REMARK    7  A    between atoms: C_14  and  C_15
REMARK    8  A    between atoms: C_15  and  S_16
REMARK    9  A    between atoms: S_16  and  C_17
REMARK                            x       y       z     vdW  Elec       q    Type
REMARK                         _______ _______ _______ _____ _____    ______ ____
ROOT
ATOM      1  C   UNL     1       3.963   4.530  17.669  0.00  0.00    +0.000 A 
ATOM      2  C   UNL     1       4.716   3.640  16.875  0.00  0.00    +0.000 A 
ATOM      3  C   UNL     1       5.613   4.112  15.923  0.00  0.00    +0.000 A 
ATOM      4  C   UNL     1       5.783   5.482  15.769  0.00  0.00    +0.000 A 
ATOM      5  C   UNL     1       5.055   6.384  16.557  0.00  0.00    +0.000 A 
ATOM      6  C   UNL     1       4.120   5.947  17.517  0.00  0.00    +0.000 A 
ENDROOT
BRANCH   1   8
ATOM      7  N   UNL     1       3.412   3.155  19.692  0.00  0.00    +0.000 NA
ATOM      8  C   UNL     1       3.057   3.852  18.650  0.00  0.00    +0.000 C 
BRANCH   7  10
ATOM      9  C   UNL     1       5.098   1.797  20.489  0.00  0.00    +0.000 C 
ATOM     10  O   UNL     1       4.785   2.939  19.706  0.00  0.00    +0.000 OA
ENDBRANCH   7  10
BRANCH   8  11
ATOM     11  C   UNL     1       1.534   3.913  18.341  0.00  0.00    +0.000 C 
ATOM     12  O   UNL     1       1.095   3.987  17.206  0.00  0.00    +0.000 OA
BRANCH  11  13
ATOM     13  O   UNL     1       0.808   3.747  19.477  0.00  0.00    +0.000 OA
ATOM     14  C   UNL     1       1.096   4.681  20.513  0.00  0.00    +0.000 C 
ENDBRANCH  11  13
ENDBRANCH   8  11
ENDBRANCH   1   8
BRANCH   6  15
ATOM     15  C   UNL     1       3.330   6.946  18.367  0.00  0.00    +0.000 C 
BRANCH  15  16
ATOM     16  S   UNL     1       1.979   7.952  17.685  0.00  0.00    +0.000 S 
BRANCH  16  17
ATOM     17  C   UNL     1       1.482   9.070  18.924  0.00  0.00    +0.000 A 
ATOM     18  C   UNL     1       1.171  10.335  18.645  0.00  0.00    +0.000 A 
ATOM     19  C   UNL     1       1.096  11.368  19.685  0.00  0.00    +0.000 A 
ATOM     20  O   UNL     1       1.469  12.510  19.449  0.00  0.00    +0.000 OA
ATOM     21  C   UNL     1       0.482  11.010  20.964  0.00  0.00    +0.000 A 
ATOM     22  C   UNL     1      -0.165  12.013  21.705  0.00  0.00    +0.000 A 
ATOM     23  C   UNL     1      -0.906  11.666  22.821  0.00  0.00    +0.000 A 
ATOM     24  C   UNL     1      -1.005  10.322  23.194  0.00  0.00    +0.000 A 
ATOM     25  C   UNL     1      -0.302   9.336  22.488  0.00  0.00    +0.000 A 
ATOM     26  C   UNL     1       0.461   9.677  21.372  0.00  0.00    +0.000 A 
ATOM     27  S   UNL     1       1.475   8.450  20.563  0.00  0.00    +0.000 S 
ENDBRANCH  16  17
ENDBRANCH  15  16
ENDBRANCH   6  15
TORSDOF 7
ENDMDL
