MODEL 1
REMARK VINA RESULT:      -7.8      0.000      0.000
REMARK  Name = 
REMARK  8 active torsions:
REMARK  status: ('A' for Active; 'I' for Inactive)
REMARK    1  A    between atoms: C_1  and  O_2
REMARK    2  A    between atoms: O_2  and  C_3
REMARK    3  A    between atoms: C_6  and  O_7
REMARK    4  A    between atoms: O_7  and  C_8
REMARK    5  A    between atoms: C_9  and  C_10
REMARK    6  A    between atoms: C_10  and  C_11
REMARK    7  A    between atoms: C_11  and  C_12
REMARK    8  A    between atoms: C_23  and  C_24
REMARK                            x       y       z     vdW  Elec       q    Type
REMARK                         _______ _______ _______ _____ _____    ______ ____
ROOT
ATOM      1  C   UNL     1       1.145   9.578  19.014  0.00  0.00    +0.000 A 
ATOM      2  C   UNL     1       1.007  10.890  18.592  0.00  0.00    +0.000 A 
ATOM      3  N   UNL     1       0.578  11.905  19.363  0.00  0.00    +0.000 NA
ATOM      4  C   UNL     1       0.198  11.672  20.608  0.00  0.00    +0.000 A 
ATOM      5  N   UNL     1      -0.232  12.745  21.253  0.00  0.00    +0.000 NA
ATOM      6  C   UNL     1      -0.667  12.595  22.492  0.00  0.00    +0.000 A 
ATOM      7  N   UNL     1      -1.099  13.727  23.154  0.00  0.00    +0.000 N 
ATOM      8  N   UNL     1      -0.696  11.447  23.148  0.00  0.00    +0.000 NA
ATOM      9  C   UNL     1      -0.272  10.366  22.481  0.00  0.00    +0.000 A 
ATOM     10  N   UNL     1      -0.424   9.194  23.227  0.00  0.00    +0.000 N 
ATOM     11  C   UNL     1       0.242  10.391  21.167  0.00  0.00    +0.000 A 
ATOM     12  C   UNL     1       0.778   9.314  20.352  0.00  0.00    +0.000 A 
ATOM     13  C   UNL     1       0.952   7.909  20.877  0.00  0.00    +0.000 C 
ATOM     14  H   UNL     1      -0.690  14.545  22.726  0.00  0.00    +0.000 HD
ATOM     15  H   UNL     1      -0.980  13.615  24.150  0.00  0.00    +0.000 HD
ATOM     16  H   UNL     1      -0.840   9.468  24.114  0.00  0.00    +0.000 HD
ATOM     17  H   UNL     1      -1.021   8.534  22.742  0.00  0.00    +0.000 HD
ENDROOT
BRANCH   1  18
ATOM     18  C   UNL     1       1.558   8.497  18.028  0.00  0.00    +0.000 C 
BRANCH  18  19
ATOM     19  C   UNL     1       3.031   8.059  18.113  0.00  0.00    +0.000 C 
BRANCH  19  24
ATOM     20  C   UNL     1       2.286   4.345  17.731  0.00  0.00    +0.000 A 
ATOM     21  C   UNL     1       3.503   3.854  17.269  0.00  0.00    +0.000 A 
ATOM     22  C   UNL     1       4.593   4.710  17.090  0.00  0.00    +0.000 A 
ATOM     23  C   UNL     1       4.482   6.074  17.380  0.00  0.00    +0.000 A 
ATOM     24  C   UNL     1       3.253   6.587  17.829  0.00  0.00    +0.000 A 
ATOM     25  C   UNL     1       2.166   5.707  18.005  0.00  0.00    +0.000 A 
BRANCH  20  27
ATOM     26  C   UNL     1       1.598   2.283  18.686  0.00  0.00    +0.000 C 
ATOM     27  O   UNL     1       1.297   3.411  17.871  0.00  0.00    +0.000 OA
ENDBRANCH  20  27
BRANCH  23  28
ATOM     28  O   UNL     1       5.507   6.968  17.211  0.00  0.00    +0.000 OA
ATOM     29  C   UNL     1       6.822   6.422  17.278  0.00  0.00    +0.000 C 
ENDBRANCH  23  28
ENDBRANCH  19  24
ENDBRANCH  18  19
ENDBRANCH   1  18
TORSDOF 5
ENDMDL
MODEL 2
REMARK VINA RESULT:      -7.7      4.624      8.064
REMARK  Name = 
REMARK  8 active torsions:
REMARK  status: ('A' for Active; 'I' for Inactive)
REMARK    1  A    between atoms: C_1  and  O_2
REMARK    2  A    between atoms: O_2  and  C_3
REMARK    3  A    between atoms: C_6  and  O_7
REMARK    4  A    between atoms: O_7  and  C_8
REMARK    5  A    between atoms: C_9  and  C_10
REMARK    6  A    between atoms: C_10  and  C_11
REMARK    7  A    between atoms: C_11  and  C_12
REMARK    8  A    between atoms: C_23  and  C_24
REMARK                            x       y       z     vdW  Elec       q    Type
REMARK                         _______ _______ _______ _____ _____    ______ ____
ROOT
ATOM      1  C   UNL     1       2.757   7.087  18.433  0.00  0.00    +0.000 A 
ATOM      2  C   UNL     1       3.499   6.579  17.380  0.00  0.00    +0.000 A 
ATOM      3  N   UNL     1       3.866   5.292  17.246  0.00  0.00    +0.000 NA
ATOM      4  C   UNL     1       3.565   4.419  18.194  0.00  0.00    +0.000 A 
ATOM      5  N   UNL     1       4.006   3.194  17.962  0.00  0.00    +0.000 NA
ATOM      6  C   UNL     1       3.783   2.267  18.876  0.00  0.00    +0.000 A 
ATOM      7  N   UNL     1       4.238   0.990  18.612  0.00  0.00    +0.000 N 
ATOM      8  N   UNL     1       3.134   2.468  20.011  0.00  0.00    +0.000 NA
ATOM      9  C   UNL     1       2.703   3.715  20.242  0.00  0.00    +0.000 A 
ATOM     10  N   UNL     1       2.110   3.842  21.501  0.00  0.00    +0.000 N 
ATOM     11  C   UNL     1       2.852   4.789  19.339  0.00  0.00    +0.000 A 
ATOM     12  C   UNL     1       2.394   6.164  19.439  0.00  0.00    +0.000 A 
ATOM     13  C   UNL     1       1.546   6.655  20.587  0.00  0.00    +0.000 C 
ATOM     14  H   UNL     1       4.358   0.876  17.616  0.00  0.00    +0.000 HD
ATOM     15  H   UNL     1       3.669   0.310  19.093  0.00  0.00    +0.000 HD
ATOM     16  H   UNL     1       2.165   2.926  21.941  0.00  0.00    +0.000 HD
ATOM     17  H   UNL     1       2.596   4.535  22.058  0.00  0.00    +0.000 HD
ENDROOT
BRANCH   1  18
ATOM     18  C   UNL     1       2.474   8.579  18.521  0.00  0.00    +0.000 C 
BRANCH  18  19
ATOM     19  C   UNL     1       1.224   9.055  17.762  0.00  0.00    +0.000 C 
BRANCH  19  24
ATOM     20  C   UNL     1       0.177  11.549  20.441  0.00  0.00    +0.000 A 
ATOM     21  C   UNL     1      -1.129  11.846  20.062  0.00  0.00    +0.000 A 
ATOM     22  C   UNL     1      -1.702  11.232  18.945  0.00  0.00    +0.000 A 
ATOM     23  C   UNL     1      -0.977  10.302  18.193  0.00  0.00    +0.000 A 
ATOM     24  C   UNL     1       0.350  10.008  18.553  0.00  0.00    +0.000 A 
ATOM     25  C   UNL     1       0.909  10.635  19.684  0.00  0.00    +0.000 A 
BRANCH  20  27
ATOM     26  C   UNL     1       0.690  13.628  21.467  0.00  0.00    +0.000 C 
ATOM     27  O   UNL     1       0.624  12.208  21.552  0.00  0.00    +0.000 OA
ENDBRANCH  20  27
BRANCH  23  28
ATOM     28  O   UNL     1      -1.474   9.678  17.079  0.00  0.00    +0.000 OA
ATOM     29  C   UNL     1      -2.398  10.441  16.304  0.00  0.00    +0.000 C 
ENDBRANCH  23  28
ENDBRANCH  19  24
ENDBRANCH  18  19
ENDBRANCH   1  18
TORSDOF 5
ENDMDL
MODEL 3
REMARK VINA RESULT:      -7.6      4.734      7.067
REMARK  Name = 
REMARK  8 active torsions:
REMARK  status: ('A' for Active; 'I' for Inactive)
REMARK    1  A    between atoms: C_1  and  O_2
REMARK    2  A    between atoms: O_2  and  C_3
REMARK    3  A    between atoms: C_6  and  O_7
REMARK    4  A    between atoms: O_7  and  C_8
REMARK    5  A    between atoms: C_9  and  C_10
REMARK    6  A    between atoms: C_10  and  C_11
REMARK    7  A    between atoms: C_11  and  C_12
REMARK    8  A    between atoms: C_23  and  C_24
REMARK                            x       y       z     vdW  Elec       q    Type
REMARK                         _______ _______ _______ _____ _____    ______ ____
ROOT
ATOM      1  C   UNL     1       4.404   4.939  17.025  0.00  0.00    +0.000 A 
ATOM      2  C   UNL     1       4.500   3.573  17.232  0.00  0.00    +0.000 A 
ATOM      3  N   UNL     1       3.916   2.904  18.242  0.00  0.00    +0.000 NA
ATOM      4  C   UNL     1       3.234   3.565  19.162  0.00  0.00    +0.000 A 
ATOM      5  N   UNL     1       2.734   2.801  20.119  0.00  0.00    +0.000 NA
ATOM      6  C   UNL     1       2.069   3.384  21.101  0.00  0.00    +0.000 A 
ATOM      7  N   UNL     1       1.543   2.571  22.084  0.00  0.00    +0.000 N 
ATOM      8  N   UNL     1       1.851   4.686  21.195  0.00  0.00    +0.000 NA
ATOM      9  C   UNL     1       2.373   5.452  20.228  0.00  0.00    +0.000 A 
ATOM     10  N   UNL     1       2.164   6.813  20.464  0.00  0.00    +0.000 N 
ATOM     11  C   UNL     1       3.080   4.955  19.112  0.00  0.00    +0.000 A 
ATOM     12  C   UNL     1       3.649   5.659  17.976  0.00  0.00    +0.000 A 
ATOM     13  C   UNL     1       3.474   7.145  17.773  0.00  0.00    +0.000 C 
ATOM     14  H   UNL     1       1.439   1.633  21.725  0.00  0.00    +0.000 HD
ATOM     15  H   UNL     1       0.730   3.003  22.497  0.00  0.00    +0.000 HD
ATOM     16  H   UNL     1       1.659   6.879  21.344  0.00  0.00    +0.000 HD
ATOM     17  H   UNL     1       3.047   7.307  20.521  0.00  0.00    +0.000 HD
ENDROOT
BRANCH   1  18
ATOM     18  C   UNL     1       5.179   5.598  15.894  0.00  0.00    +0.000 C 
BRANCH  18  19
ATOM     19  C   UNL     1       6.499   4.907  15.513  0.00  0.00    +0.000 C 
BRANCH  19  24
ATOM     20  C   UNL     1       5.612   3.317  12.170  0.00  0.00    +0.000 A 
ATOM     21  C   UNL     1       6.613   3.812  11.342  0.00  0.00    +0.000 A 
ATOM     22  C   UNL     1       7.605   4.654  11.850  0.00  0.00    +0.000 A 
ATOM     23  C   UNL     1       7.614   5.007  13.204  0.00  0.00    +0.000 A 
ATOM     24  C   UNL     1       6.596   4.530  14.048  0.00  0.00    +0.000 A 
ATOM     25  C   UNL     1       5.606   3.680  13.516  0.00  0.00    +0.000 A 
BRANCH  20  27
ATOM     26  C   UNL     1       3.623   3.138  10.885  0.00  0.00    +0.000 C 
ATOM     27  O   UNL     1       4.702   2.499  11.558  0.00  0.00    +0.000 OA
ENDBRANCH  20  27
BRANCH  23  28
ATOM     28  O   UNL     1       8.547   5.841  13.762  0.00  0.00    +0.000 OA
ATOM     29  C   UNL     1       9.625   6.222  12.909  0.00  0.00    +0.000 C 
ENDBRANCH  23  28
ENDBRANCH  19  24
ENDBRANCH  18  19
ENDBRANCH   1  18
TORSDOF 5
ENDMDL
MODEL 4
REMARK VINA RESULT:      -7.6      1.488      3.514
REMARK  Name = 
REMARK  8 active torsions:
REMARK  status: ('A' for Active; 'I' for Inactive)
REMARK    1  A    between atoms: C_1  and  O_2
REMARK    2  A    between atoms: O_2  and  C_3
REMARK    3  A    between atoms: C_6  and  O_7
REMARK    4  A    between atoms: O_7  and  C_8
REMARK    5  A    between atoms: C_9  and  C_10
REMARK    6  A    between atoms: C_10  and  C_11
REMARK    7  A    between atoms: C_11  and  C_12
REMARK    8  A    between atoms: C_23  and  C_24
REMARK                            x       y       z     vdW  Elec       q    Type
REMARK                         _______ _______ _______ _____ _____    ______ ____
ROOT
ATOM      1  C   UNL     1       1.525   8.435  20.308  0.00  0.00    +0.000 A 
ATOM      2  C   UNL     1       1.419   8.505  21.687  0.00  0.00    +0.000 A 
ATOM      3  N   UNL     1       0.844   9.514  22.365  0.00  0.00    +0.000 NA
ATOM      4  C   UNL     1       0.377  10.566  21.711  0.00  0.00    +0.000 A 
ATOM      5  N   UNL     1      -0.137  11.504  22.490  0.00  0.00    +0.000 NA
ATOM      6  C   UNL     1      -0.591  12.607  21.921  0.00  0.00    +0.000 A 
ATOM      7  N   UNL     1      -1.136  13.569  22.747  0.00  0.00    +0.000 N 
ATOM      8  N   UNL     1      -0.584  12.842  20.620  0.00  0.00    +0.000 NA
ATOM      9  C   UNL     1      -0.048  11.892  19.842  0.00  0.00    +0.000 A 
ATOM     10  N   UNL     1      -0.008  12.273  18.498  0.00  0.00    +0.000 N 
ATOM     11  C   UNL     1       0.447  10.659  20.317  0.00  0.00    +0.000 A 
ATOM     12  C   UNL     1       1.001   9.531  19.588  0.00  0.00    +0.000 A 
ATOM     13  C   UNL     1       1.049   9.485  18.080  0.00  0.00    +0.000 C 
ATOM     14  H   UNL     1      -1.429  13.142  23.614  0.00  0.00    +0.000 HD
ATOM     15  H   UNL     1      -1.821  14.114  22.243  0.00  0.00    +0.000 HD
ATOM     16  H   UNL     1      -0.401  13.210  18.451  0.00  0.00    +0.000 HD
ATOM     17  H   UNL     1       0.944  12.267  18.152  0.00  0.00    +0.000 HD
ENDROOT
BRANCH   1  18
ATOM     18  C   UNL     1       2.274   7.283  19.656  0.00  0.00    +0.000 C 
BRANCH  18  19
ATOM     19  C   UNL     1       1.984   5.893  20.248  0.00  0.00    +0.000 C 
BRANCH  19  24
ATOM     20  C   UNL     1       3.516   3.964  17.346  0.00  0.00    +0.000 A 
ATOM     21  C   UNL     1       2.962   2.699  17.518  0.00  0.00    +0.000 A 
ATOM     22  C   UNL     1       2.069   2.450  18.563  0.00  0.00    +0.000 A 
ATOM     23  C   UNL     1       1.709   3.469  19.450  0.00  0.00    +0.000 A 
ATOM     24  C   UNL     1       2.276   4.747  19.300  0.00  0.00    +0.000 A 
ATOM     25  C   UNL     1       3.173   4.979  18.238  0.00  0.00    +0.000 A 
BRANCH  20  27
ATOM     26  C   UNL     1       5.152   5.274  16.230  0.00  0.00    +0.000 C 
ATOM     27  O   UNL     1       4.371   4.085  16.286  0.00  0.00    +0.000 OA
ENDBRANCH  20  27
BRANCH  23  28
ATOM     28  O   UNL     1       0.853   3.287  20.505  0.00  0.00    +0.000 OA
ATOM     29  C   UNL     1       1.407   2.637  21.646  0.00  0.00    +0.000 C 
ENDBRANCH  23  28
ENDBRANCH  19  24
ENDBRANCH  18  19
ENDBRANCH   1  18
TORSDOF 5
ENDMDL
MODEL 5
REMARK VINA RESULT:      -7.5      1.405      3.388
REMARK  Name = 
REMARK  8 active torsions:
REMARK  status: ('A' for Active; 'I' for Inactive)
REMARK    1  A    between atoms: C_1  and  O_2
REMARK    2  A    between atoms: O_2  and  C_3
REMARK    3  A    between atoms: C_6  and  O_7
REMARK    4  A    between atoms: O_7  and  C_8
REMARK    5  A    between atoms: C_9  and  C_10
REMARK    6  A    between atoms: C_10  and  C_11
REMARK    7  A    between atoms: C_11  and  C_12
REMARK    8  A    between atoms: C_23  and  C_24
REMARK                            x       y       z     vdW  Elec       q    Type
REMARK                         _______ _______ _______ _____ _____    ______ ____
ROOT
ATOM      1  C   UNL     1       1.947   8.135  19.256  0.00  0.00    +0.000 A 
ATOM      2  C   UNL     1       1.858   8.778  18.032  0.00  0.00    +0.000 A 
ATOM      3  N   UNL     1       1.193   9.925  17.812  0.00  0.00    +0.000 NA
ATOM      4  C   UNL     1       0.512  10.492  18.795  0.00  0.00    +0.000 A 
ATOM      5  N   UNL     1      -0.124  11.598  18.446  0.00  0.00    +0.000 NA
ATOM      6  C   UNL     1      -0.860  12.209  19.358  0.00  0.00    +0.000 A 
ATOM      7  N   UNL     1      -1.507  13.369  18.982  0.00  0.00    +0.000 N 
ATOM      8  N   UNL     1      -1.001  11.802  20.609  0.00  0.00    +0.000 NA
ATOM      9  C   UNL     1      -0.364  10.674  20.948  0.00  0.00    +0.000 A 
ATOM     10  N   UNL     1      -0.646  10.283  22.259  0.00  0.00    +0.000 N 
ATOM     11  C   UNL     1       0.474   9.941  20.080  0.00  0.00    +0.000 A 
ATOM     12  C   UNL     1       1.258   8.743  20.328  0.00  0.00    +0.000 A 
ATOM     13  C   UNL     1       1.359   8.109  21.694  0.00  0.00    +0.000 C 
ATOM     14  H   UNL     1      -1.041  13.767  18.179  0.00  0.00    +0.000 HD
ATOM     15  H   UNL     1      -1.646  13.966  19.783  0.00  0.00    +0.000 HD
ATOM     16  H   UNL     1      -1.292  10.974  22.634  0.00  0.00    +0.000 HD
ATOM     17  H   UNL     1      -1.061   9.359  22.277  0.00  0.00    +0.000 HD
ENDROOT
BRANCH   1  18
ATOM     18  C   UNL     1       2.658   6.795  19.366  0.00  0.00    +0.000 C 
BRANCH  18  19
ATOM     19  C   UNL     1       2.439   5.837  18.183  0.00  0.00    +0.000 C 
BRANCH  19  24
ATOM     20  C   UNL     1       5.927   6.116  16.684  0.00  0.00    +0.000 A 
ATOM     21  C   UNL     1       6.152   4.818  16.236  0.00  0.00    +0.000 A 
ATOM     22  C   UNL     1       5.174   3.833  16.393  0.00  0.00    +0.000 A 
ATOM     23  C   UNL     1       3.949   4.135  16.995  0.00  0.00    +0.000 A 
ATOM     24  C   UNL     1       3.716   5.438  17.470  0.00  0.00    +0.000 A 
ATOM     25  C   UNL     1       4.714   6.418  17.301  0.00  0.00    +0.000 A 
BRANCH  20  27
ATOM     26  C   UNL     1       7.558   7.562  17.627  0.00  0.00    +0.000 C 
ATOM     27  O   UNL     1       6.956   6.992  16.469  0.00  0.00    +0.000 OA
ENDBRANCH  20  27
BRANCH  23  28
ATOM     28  O   UNL     1       2.955   3.212  17.194  0.00  0.00    +0.000 OA
ATOM     29  C   UNL     1       3.302   2.099  18.016  0.00  0.00    +0.000 C 
ENDBRANCH  23  28
ENDBRANCH  19  24
ENDBRANCH  18  19
ENDBRANCH   1  18
TORSDOF 5
ENDMDL
MODEL 6
REMARK VINA RESULT:      -7.5      1.264      1.390
REMARK  Name = 
REMARK  8 active torsions:
REMARK  status: ('A' for Active; 'I' for Inactive)
REMARK    1  A    between atoms: C_1  and  O_2
REMARK    2  A    between atoms: O_2  and  C_3
REMARK    3  A    between atoms: C_6  and  O_7
REMARK    4  A    between atoms: O_7  and  C_8
REMARK    5  A    between atoms: C_9  and  C_10
REMARK    6  A    between atoms: C_10  and  C_11
REMARK    7  A    between atoms: C_11  and  C_12
REMARK    8  A    between atoms: C_23  and  C_24
REMARK                            x       y       z     vdW  Elec       q    Type
REMARK                         _______ _______ _______ _____ _____    ______ ____
ROOT
ATOM      1  C   UNL     1       1.194   9.057  19.524  0.00  0.00    +0.000 A 
ATOM      2  C   UNL     1       0.750   9.694  18.377  0.00  0.00    +0.000 A 
ATOM      3  N   UNL     1      -0.105  10.732  18.355  0.00  0.00    +0.000 NA
ATOM      4  C   UNL     1      -0.631  11.177  19.485  0.00  0.00    +0.000 A 
ATOM      5  N   UNL     1      -1.480  12.179  19.330  0.00  0.00    +0.000 NA
ATOM      6  C   UNL     1      -2.080  12.660  20.404  0.00  0.00    +0.000 A 
ATOM      7  N   UNL     1      -2.953  13.715  20.226  0.00  0.00    +0.000 N 
ATOM      8  N   UNL     1      -1.886  12.221  21.637  0.00  0.00    +0.000 NA
ATOM      9  C   UNL     1      -1.035  11.197  21.781  0.00  0.00    +0.000 A 
ATOM     10  N   UNL     1      -0.967  10.752  23.103  0.00  0.00    +0.000 N 
ATOM     11  C   UNL     1      -0.310  10.610  20.723  0.00  0.00    +0.000 A 
ATOM     12  C   UNL     1       0.674   9.540  20.744  0.00  0.00    +0.000 A 
ATOM     13  C   UNL     1       1.159   8.911  22.027  0.00  0.00    +0.000 C 
ATOM     14  H   UNL     1      -2.735  14.190  19.361  0.00  0.00    +0.000 HD
ATOM     15  H   UNL     1      -3.000  14.274  21.064  0.00  0.00    +0.000 HD
ATOM     16  H   UNL     1      -1.609  11.332  23.637  0.00  0.00    +0.000 HD
ATOM     17  H   UNL     1      -1.231   9.775  23.167  0.00  0.00    +0.000 HD
ENDROOT
BRANCH   1  18
ATOM     18  C   UNL     1       2.097   7.838  19.420  0.00  0.00    +0.000 C 
BRANCH  18  19
ATOM     19  C   UNL     1       2.766   7.631  18.050  0.00  0.00    +0.000 C 
BRANCH  19  24
ATOM     20  C   UNL     1       2.367   3.863  17.684  0.00  0.00    +0.000 A 
ATOM     21  C   UNL     1       3.602   3.493  17.161  0.00  0.00    +0.000 A 
ATOM     22  C   UNL     1       4.594   4.451  16.933  0.00  0.00    +0.000 A 
ATOM     23  C   UNL     1       4.366   5.797  17.236  0.00  0.00    +0.000 A 
ATOM     24  C   UNL     1       3.116   6.188  17.747  0.00  0.00    +0.000 A 
ATOM     25  C   UNL     1       2.130   5.207  17.971  0.00  0.00    +0.000 A 
BRANCH  20  27
ATOM     26  C   UNL     1       0.988   2.650  19.189  0.00  0.00    +0.000 C 
ATOM     27  O   UNL     1       1.482   2.837  17.867  0.00  0.00    +0.000 OA
ENDBRANCH  20  27
BRANCH  23  28
ATOM     28  O   UNL     1       5.289   6.787  17.021  0.00  0.00    +0.000 OA
ATOM     29  C   UNL     1       6.608   6.514  17.490  0.00  0.00    +0.000 C 
ENDBRANCH  23  28
ENDBRANCH  19  24
ENDBRANCH  18  19
ENDBRANCH   1  18
TORSDOF 5
ENDMDL
MODEL 7
REMARK VINA RESULT:      -7.5      4.662      7.893
REMARK  Name = 
REMARK  8 active torsions:
REMARK  status: ('A' for Active; 'I' for Inactive)
REMARK    1  A    between atoms: C_1  and  O_2
REMARK    2  A    between atoms: O_2  and  C_3
REMARK    3  A    between atoms: C_6  and  O_7
REMARK    4  A    between atoms: O_7  and  C_8
REMARK    5  A    between atoms: C_9  and  C_10
REMARK    6  A    between atoms: C_10  and  C_11
REMARK    7  A    between atoms: C_11  and  C_12
REMARK    8  A    between atoms: C_23  and  C_24
REMARK                            x       y       z     vdW  Elec       q    Type
REMARK                         _______ _______ _______ _____ _____    ______ ____
ROOT
ATOM      1  C   UNL     1       2.705   7.027  18.592  0.00  0.00    +0.000 A 
ATOM      2  C   UNL     1       3.420   6.553  17.505  0.00  0.00    +0.000 A 
ATOM      3  N   UNL     1       3.788   5.272  17.324  0.00  0.00    +0.000 NA
ATOM      4  C   UNL     1       3.516   4.371  18.254  0.00  0.00    +0.000 A 
ATOM      5  N   UNL     1       3.955   3.155  17.976  0.00  0.00    +0.000 NA
ATOM      6  C   UNL     1       3.760   2.201  18.869  0.00  0.00    +0.000 A 
ATOM      7  N   UNL     1       4.212   0.935  18.556  0.00  0.00    +0.000 N 
ATOM      8  N   UNL     1       3.141   2.367  20.026  0.00  0.00    +0.000 NA
ATOM      9  C   UNL     1       2.713   3.605  20.304  0.00  0.00    +0.000 A 
ATOM     10  N   UNL     1       2.154   3.693  21.582  0.00  0.00    +0.000 N 
ATOM     11  C   UNL     1       2.833   4.705  19.429  0.00  0.00    +0.000 A 
ATOM     12  C   UNL     1       2.373   6.075  19.580  0.00  0.00    +0.000 A 
ATOM     13  C   UNL     1       1.555   6.529  20.764  0.00  0.00    +0.000 C 
ATOM     14  H   UNL     1       4.306   0.849  17.554  0.00  0.00    +0.000 HD
ATOM     15  H   UNL     1       3.659   0.239  19.033  0.00  0.00    +0.000 HD
ATOM     16  H   UNL     1       2.224   2.766  21.993  0.00  0.00    +0.000 HD
ATOM     17  H   UNL     1       2.652   4.373  22.145  0.00  0.00    +0.000 HD
ENDROOT
BRANCH   1  18
ATOM     18  C   UNL     1       2.419   8.515  18.730  0.00  0.00    +0.000 C 
BRANCH  18  19
ATOM     19  C   UNL     1       1.101   8.991  18.096  0.00  0.00    +0.000 C 
BRANCH  19  24
ATOM     20  C   UNL     1      -0.135  10.660  21.286  0.00  0.00    +0.000 A 
ATOM     21  C   UNL     1      -1.206  11.416  20.818  0.00  0.00    +0.000 A 
ATOM     22  C   UNL     1      -1.561  11.385  19.468  0.00  0.00    +0.000 A 
ATOM     23  C   UNL     1      -0.852  10.589  18.563  0.00  0.00    +0.000 A 
ATOM     24  C   UNL     1       0.245   9.837  19.017  0.00  0.00    +0.000 A 
ATOM     25  C   UNL     1       0.586   9.879  20.384  0.00  0.00    +0.000 A 
BRANCH  20  27
ATOM     26  C   UNL     1       0.122   9.555  23.372  0.00  0.00    +0.000 C 
ATOM     27  O   UNL     1       0.112  10.768  22.627  0.00  0.00    +0.000 OA
ENDBRANCH  20  27
BRANCH  23  28
ATOM     28  O   UNL     1      -1.138  10.528  17.224  0.00  0.00    +0.000 OA
ATOM     29  C   UNL     1      -2.521  10.427  16.891  0.00  0.00    +0.000 C 
ENDBRANCH  23  28
ENDBRANCH  19  24
ENDBRANCH  18  19
ENDBRANCH   1  18
TORSDOF 5
ENDMDL
MODEL 8
REMARK VINA RESULT:      -7.5      2.051      3.503
REMARK  Name = 
REMARK  8 active torsions:
REMARK  status: ('A' for Active; 'I' for Inactive)
REMARK    1  A    between atoms: C_1  and  O_2
REMARK    2  A    between atoms: O_2  and  C_3
REMARK    3  A    between atoms: C_6  and  O_7
REMARK    4  A    between atoms: O_7  and  C_8
REMARK    5  A    between atoms: C_9  and  C_10
REMARK    6  A    between atoms: C_10  and  C_11
REMARK    7  A    between atoms: C_11  and  C_12
REMARK    8  A    between atoms: C_23  and  C_24
REMARK                            x       y       z     vdW  Elec       q    Type
REMARK                         _______ _______ _______ _____ _____    ______ ____
ROOT
ATOM      1  C   UNL     1       2.175   7.601  19.177  0.00  0.00    +0.000 A 
ATOM      2  C   UNL     1       1.855   6.994  20.380  0.00  0.00    +0.000 A 
ATOM      3  N   UNL     1       1.103   7.550  21.347  0.00  0.00    +0.000 NA
ATOM      4  C   UNL     1       0.659   8.789  21.206  0.00  0.00    +0.000 A 
ATOM      5  N   UNL     1      -0.042   9.234  22.236  0.00  0.00    +0.000 NA
ATOM      6  C   UNL     1      -0.492  10.475  22.195  0.00  0.00    +0.000 A 
ATOM      7  N   UNL     1      -1.232  10.919  23.272  0.00  0.00    +0.000 N 
ATOM      8  N   UNL     1      -0.304  11.312  21.188  0.00  0.00    +0.000 NA
ATOM      9  C   UNL     1       0.418  10.856  20.157  0.00  0.00    +0.000 A 
ATOM     10  N   UNL     1       0.632  11.841  19.188  0.00  0.00    +0.000 N 
ATOM     11  C   UNL     1       0.933   9.546  20.062  0.00  0.00    +0.000 A 
ATOM     12  C   UNL     1       1.680   8.910  18.990  0.00  0.00    +0.000 A 
ATOM     13  C   UNL     1       1.962   9.600  17.678  0.00  0.00    +0.000 C 
ATOM     14  H   UNL     1      -1.618  10.126  23.764  0.00  0.00    +0.000 HD
ATOM     15  H   UNL     1      -1.873  11.642  22.981  0.00  0.00    +0.000 HD
ATOM     16  H   UNL     1       0.177  12.684  19.528  0.00  0.00    +0.000 HD
ATOM     17  H   UNL     1       1.624  12.000  19.052  0.00  0.00    +0.000 HD
ENDROOT
BRANCH   1  18
ATOM     18  C   UNL     1       3.105   6.907  18.194  0.00  0.00    +0.000 C 
BRANCH  18  19
ATOM     19  C   UNL     1       4.069   5.880  18.814  0.00  0.00    +0.000 C 
BRANCH  19  24
ATOM     20  C   UNL     1       5.669   4.773  15.543  0.00  0.00    +0.000 A 
ATOM     21  C   UNL     1       6.963   4.462  15.948  0.00  0.00    +0.000 A 
ATOM     22  C   UNL     1       7.339   4.587  17.288  0.00  0.00    +0.000 A 
ATOM     23  C   UNL     1       6.418   5.017  18.248  0.00  0.00    +0.000 A 
ATOM     24  C   UNL     1       5.112   5.354  17.850  0.00  0.00    +0.000 A 
ATOM     25  C   UNL     1       4.752   5.219  16.494  0.00  0.00    +0.000 A 
BRANCH  20  27
ATOM     26  C   UNL     1       6.285   3.718  13.507  0.00  0.00    +0.000 C 
ATOM     27  O   UNL     1       5.421   4.605  14.209  0.00  0.00    +0.000 OA
ENDBRANCH  20  27
BRANCH  23  28
ATOM     28  O   UNL     1       6.726   5.177  19.574  0.00  0.00    +0.000 OA
ATOM     29  C   UNL     1       8.037   5.667  19.849  0.00  0.00    +0.000 C 
ENDBRANCH  23  28
ENDBRANCH  19  24
ENDBRANCH  18  19
ENDBRANCH   1  18
TORSDOF 5
ENDMDL
MODEL 9
REMARK VINA RESULT:      -7.5      1.289      1.310
REMARK  Name = 
REMARK  8 active torsions:
REMARK  status: ('A' for Active; 'I' for Inactive)
REMARK    1  A    between atoms: C_1  and  O_2
REMARK    2  A    between atoms: O_2  and  C_3
REMARK    3  A    between atoms: C_6  and  O_7
REMARK    4  A    between atoms: O_7  and  C_8
REMARK    5  A    between atoms: C_9  and  C_10
REMARK    6  A    between atoms: C_10  and  C_11
REMARK    7  A    between atoms: C_11  and  C_12
REMARK    8  A    between atoms: C_23  and  C_24
REMARK                            x       y       z     vdW  Elec       q    Type
REMARK                         _______ _______ _______ _____ _____    ______ ____
ROOT
ATOM      1  C   UNL     1       1.437   9.134  18.983  0.00  0.00    +0.000 A 
ATOM      2  C   UNL     1       1.425  10.408  18.441  0.00  0.00    +0.000 A 
ATOM      3  N   UNL     1       1.038  11.519  19.092  0.00  0.00    +0.000 NA
ATOM      4  C   UNL     1       0.576  11.431  20.329  0.00  0.00    +0.000 A 
ATOM      5  N   UNL     1       0.200  12.587  20.851  0.00  0.00    +0.000 NA
ATOM      6  C   UNL     1      -0.310  12.585  22.070  0.00  0.00    +0.000 A 
ATOM      7  N   UNL     1      -0.685  13.801  22.604  0.00  0.00    +0.000 N 
ATOM      8  N   UNL     1      -0.463  11.507  22.821  0.00  0.00    +0.000 NA
ATOM      9  C   UNL     1      -0.092  10.340  22.278  0.00  0.00    +0.000 A 
ATOM     10  N   UNL     1      -0.374   9.257  23.114  0.00  0.00    +0.000 N 
ATOM     11  C   UNL     1       0.490  10.206  21.000  0.00  0.00    +0.000 A 
ATOM     12  C   UNL     1       0.982   9.022  20.315  0.00  0.00    +0.000 A 
ATOM     13  C   UNL     1       1.017   7.663  20.971  0.00  0.00    +0.000 C 
ATOM     14  H   UNL     1      -0.191  14.543  22.130  0.00  0.00    +0.000 HD
ATOM     15  H   UNL     1      -0.627  13.772  23.611  0.00  0.00    +0.000 HD
ATOM     16  H   UNL     1      -0.812   9.642  23.948  0.00  0.00    +0.000 HD
ATOM     17  H   UNL     1      -0.995   8.601  22.655  0.00  0.00    +0.000 HD
ENDROOT
BRANCH   1  18
ATOM     18  C   UNL     1       1.815   7.939  18.122  0.00  0.00    +0.000 C 
BRANCH  18  19
ATOM     19  C   UNL     1       3.324   7.671  17.997  0.00  0.00    +0.000 C 
BRANCH  19  24
ATOM     20  C   UNL     1       3.483   4.140  19.410  0.00  0.00    +0.000 A 
ATOM     21  C   UNL     1       4.264   3.486  18.462  0.00  0.00    +0.000 A 
ATOM     22  C   UNL     1       4.770   4.178  17.358  0.00  0.00    +0.000 A 
ATOM     23  C   UNL     1       4.508   5.541  17.191  0.00  0.00    +0.000 A 
ATOM     24  C   UNL     1       3.703   6.210  18.131  0.00  0.00    +0.000 A 
ATOM     25  C   UNL     1       3.204   5.495  19.238  0.00  0.00    +0.000 A 
BRANCH  20  27
ATOM     26  C   UNL     1       2.121   3.952  21.346  0.00  0.00    +0.000 C 
ATOM     27  O   UNL     1       3.051   3.359  20.446  0.00  0.00    +0.000 OA
ENDBRANCH  20  27
BRANCH  23  28
ATOM     28  O   UNL     1       4.959   6.273  16.124  0.00  0.00    +0.000 OA
ATOM     29  C   UNL     1       5.602   5.529  15.091  0.00  0.00    +0.000 C 
ENDBRANCH  23  28
ENDBRANCH  19  24
ENDBRANCH  18  19
ENDBRANCH   1  18
TORSDOF 5
ENDMDL
