MODEL 1
REMARK VINA RESULT:      -8.1      0.000      0.000
REMARK  Name = 
REMARK  10 active torsions:
REMARK  status: ('A' for Active; 'I' for Inactive)
REMARK    1  A    between atoms: C_1  and  C_2
REMARK    2  A    between atoms: C_2  and  C_3
REMARK    3  A    between atoms: C_2  and  C_4
REMARK    4  A    between atoms: C_7  and  O_8
REMARK    5  A    between atoms: O_8  and  C_9
REMARK    6  A    between atoms: C_9  and  C_10
REMARK    7  A    between atoms: C_9  and  C_21
REMARK    8  A    between atoms: C_10  and  C_11
REMARK    9  A    between atoms: C_16  and  C_17
REMARK   10  A    between atoms: C_21  and  O_23
REMARK                            x       y       z     vdW  Elec       q    Type
REMARK                         _______ _______ _______ _____ _____    ______ ____
ROOT
ATOM      1  C   UNL     1       6.446   5.963  17.425  0.00  0.00    +0.000 C 
ENDROOT
BRANCH   1   2
ATOM      2  C   UNL     1       7.469   7.033  17.820  0.00  0.00    +0.000 C 
ATOM      3  O   UNL     1       7.684   8.058  17.189  0.00  0.00    +0.000 OA
BRANCH   2   4
ATOM      4  O   UNL     1       8.190   6.692  18.919  0.00  0.00    +0.000 OA
ATOM      5  H   UNL     1       7.779   5.922  19.368  0.00  0.00    +0.000 HD
ENDBRANCH   2   4
ENDBRANCH   1   2
BRANCH   1   6
ATOM      6  O   UNL     1       7.160   4.901  16.773  0.00  0.00    +0.000 OA
BRANCH   6  10
ATOM      7  C   UNL     1       5.947   3.751  12.946  0.00  0.00    +0.000 A 
ATOM      8  C   UNL     1       7.115   4.513  13.087  0.00  0.00    +0.000 A 
ATOM      9  C   UNL     1       7.552   4.929  14.348  0.00  0.00    +0.000 A 
ATOM     10  C   UNL     1       6.824   4.592  15.484  0.00  0.00    +0.000 A 
ATOM     11  C   UNL     1       5.641   3.863  15.349  0.00  0.00    +0.000 A 
ATOM     12  C   UNL     1       5.195   3.460  14.091  0.00  0.00    +0.000 A 
BRANCH   7  14
ATOM     13  C   UNL     1       6.073   1.754  11.442  0.00  0.00    +0.000 C 
ATOM     14  C   UNL     1       5.569   3.194  11.585  0.00  0.00    +0.000 C 
ATOM     15  C   UNL     1       4.067   3.283  11.318  0.00  0.00    +0.000 C 
ENDBRANCH   7  14
ENDBRANCH   6  10
ENDBRANCH   1   6
BRANCH   1  16
ATOM     16  C   UNL     1       5.619   5.505  18.652  0.00  0.00    +0.000 C 
BRANCH  16  17
ATOM     17  C   UNL     1       4.303   4.811  18.346  0.00  0.00    +0.000 A 
ATOM     18  C   UNL     1       4.315   3.401  18.252  0.00  0.00    +0.000 A 
ATOM     19  C   UNL     1       3.152   2.654  18.085  0.00  0.00    +0.000 A 
ATOM     20  C   UNL     1       1.937   3.304  17.973  0.00  0.00    +0.000 A 
ATOM     21  C   UNL     1       1.903   4.697  17.986  0.00  0.00    +0.000 A 
ATOM     22  C   UNL     1       3.072   5.477  18.147  0.00  0.00    +0.000 A 
BRANCH  22  23
ATOM     23  C   UNL     1       2.864   6.979  18.043  0.00  0.00    +0.000 C 
ATOM     24  F   UNL     1       1.649   7.397  17.600  0.00  0.00    +0.000 F 
ATOM     25  F   UNL     1       3.005   7.576  19.266  0.00  0.00    +0.000 F 
ATOM     26  F   UNL     1       3.785   7.581  17.242  0.00  0.00    +0.000 F 
ENDBRANCH  22  23
ENDBRANCH  16  17
ENDBRANCH   1  16
TORSDOF 8
ENDMDL
MODEL 2
REMARK VINA RESULT:      -8.0      0.144      1.013
REMARK  Name = 
REMARK  10 active torsions:
REMARK  status: ('A' for Active; 'I' for Inactive)
REMARK    1  A    between atoms: C_1  and  C_2
REMARK    2  A    between atoms: C_2  and  C_3
REMARK    3  A    between atoms: C_2  and  C_4
REMARK    4  A    between atoms: C_7  and  O_8
REMARK    5  A    between atoms: O_8  and  C_9
REMARK    6  A    between atoms: C_9  and  C_10
REMARK    7  A    between atoms: C_9  and  C_21
REMARK    8  A    between atoms: C_10  and  C_11
REMARK    9  A    between atoms: C_16  and  C_17
REMARK   10  A    between atoms: C_21  and  O_23
REMARK                            x       y       z     vdW  Elec       q    Type
REMARK                         _______ _______ _______ _____ _____    ______ ____
ROOT
ATOM      1  C   UNL     1       6.448   5.921  17.511  0.00  0.00    +0.000 C 
ENDROOT
BRANCH   1   2
ATOM      2  C   UNL     1       7.504   6.956  17.914  0.00  0.00    +0.000 C 
ATOM      3  O   UNL     1       8.251   6.850  18.877  0.00  0.00    +0.000 OA
BRANCH   2   4
ATOM      4  O   UNL     1       7.479   8.066  17.133  0.00  0.00    +0.000 OA
ATOM      5  H   UNL     1       6.817   8.705  17.474  0.00  0.00    +0.000 HD
ENDBRANCH   2   4
ENDBRANCH   1   2
BRANCH   1   6
ATOM      6  O   UNL     1       7.129   4.839  16.858  0.00  0.00    +0.000 OA
BRANCH   6  10
ATOM      7  C   UNL     1       5.946   3.739  13.006  0.00  0.00    +0.000 A 
ATOM      8  C   UNL     1       7.046   4.595  13.161  0.00  0.00    +0.000 A 
ATOM      9  C   UNL     1       7.470   4.997  14.430  0.00  0.00    +0.000 A 
ATOM     10  C   UNL     1       6.796   4.552  15.563  0.00  0.00    +0.000 A 
ATOM     11  C   UNL     1       5.678   3.729  15.417  0.00  0.00    +0.000 A 
ATOM     12  C   UNL     1       5.244   3.338  14.151  0.00  0.00    +0.000 A 
BRANCH   7  14
ATOM     13  C   UNL     1       6.097   1.768  11.472  0.00  0.00    +0.000 C 
ATOM     14  C   UNL     1       5.591   3.206  11.631  0.00  0.00    +0.000 C 
ATOM     15  C   UNL     1       4.094   3.300  11.339  0.00  0.00    +0.000 C 
ENDBRANCH   7  14
ENDBRANCH   6  10
ENDBRANCH   1   6
BRANCH   1  16
ATOM     16  C   UNL     1       5.602   5.487  18.733  0.00  0.00    +0.000 C 
BRANCH  16  17
ATOM     17  C   UNL     1       4.274   4.818  18.419  0.00  0.00    +0.000 A 
ATOM     18  C   UNL     1       4.271   3.413  18.268  0.00  0.00    +0.000 A 
ATOM     19  C   UNL     1       3.099   2.683  18.088  0.00  0.00    +0.000 A 
ATOM     20  C   UNL     1       1.889   3.348  18.022  0.00  0.00    +0.000 A 
ATOM     21  C   UNL     1       1.868   4.739  18.092  0.00  0.00    +0.000 A 
ATOM     22  C   UNL     1       3.047   5.502  18.266  0.00  0.00    +0.000 A 
BRANCH  22  23
ATOM     23  C   UNL     1       2.851   7.008  18.227  0.00  0.00    +0.000 C 
ATOM     24  F   UNL     1       3.786   7.727  17.551  0.00  0.00    +0.000 F 
ATOM     25  F   UNL     1       1.668   7.330  17.621  0.00  0.00    +0.000 F 
ATOM     26  F   UNL     1       2.778   7.560  19.470  0.00  0.00    +0.000 F 
ENDBRANCH  22  23
ENDBRANCH  16  17
ENDBRANCH   1  16
TORSDOF 8
ENDMDL
MODEL 3
REMARK VINA RESULT:      -7.8      3.473      7.191
REMARK  Name = 
REMARK  10 active torsions:
REMARK  status: ('A' for Active; 'I' for Inactive)
REMARK    1  A    between atoms: C_1  and  C_2
REMARK    2  A    between atoms: C_2  and  C_3
REMARK    3  A    between atoms: C_2  and  C_4
REMARK    4  A    between atoms: C_7  and  O_8
REMARK    5  A    between atoms: O_8  and  C_9
REMARK    6  A    between atoms: C_9  and  C_10
REMARK    7  A    between atoms: C_9  and  C_21
REMARK    8  A    between atoms: C_10  and  C_11
REMARK    9  A    between atoms: C_16  and  C_17
REMARK   10  A    between atoms: C_21  and  O_23
REMARK                            x       y       z     vdW  Elec       q    Type
REMARK                         _______ _______ _______ _____ _____    ______ ____
ROOT
ATOM      1  C   UNL     1       3.197   5.093  18.338  0.00  0.00    +0.000 C 
ENDROOT
BRANCH   1   2
ATOM      2  C   UNL     1       1.943   4.236  18.531  0.00  0.00    +0.000 C 
ATOM      3  O   UNL     1       1.673   3.616  19.550  0.00  0.00    +0.000 OA
BRANCH   2   4
ATOM      4  O   UNL     1       1.179   4.160  17.412  0.00  0.00    +0.000 OA
ATOM      5  H   UNL     1       0.856   5.053  17.161  0.00  0.00    +0.000 HD
ENDBRANCH   2   4
ENDBRANCH   1   2
BRANCH   1   6
ATOM      6  O   UNL     1       3.208   6.085  19.375  0.00  0.00    +0.000 OA
BRANCH   6  10
ATOM      7  C   UNL     1       0.909   9.553  19.010  0.00  0.00    +0.000 A 
ATOM      8  C   UNL     1       1.621   9.089  17.894  0.00  0.00    +0.000 A 
ATOM      9  C   UNL     1       2.410   7.939  17.974  0.00  0.00    +0.000 A 
ATOM     10  C   UNL     1       2.504   7.240  19.174  0.00  0.00    +0.000 A 
ATOM     11  C   UNL     1       1.828   7.715  20.299  0.00  0.00    +0.000 A 
ATOM     12  C   UNL     1       1.050   8.871  20.225  0.00  0.00    +0.000 A 
BRANCH   7  14
ATOM     13  C   UNL     1      -1.227  10.330  17.963  0.00  0.00    +0.000 C 
ATOM     14  C   UNL     1      -0.049  10.721  18.862  0.00  0.00    +0.000 C 
ATOM     15  C   UNL     1      -0.535  11.248  20.211  0.00  0.00    +0.000 C 
ENDBRANCH   7  14
ENDBRANCH   6  10
ENDBRANCH   1   6
BRANCH   1  16
ATOM     16  C   UNL     1       4.471   4.213  18.295  0.00  0.00    +0.000 C 
BRANCH  16  17
ATOM     17  C   UNL     1       5.392   4.430  17.107  0.00  0.00    +0.000 A 
ATOM     18  C   UNL     1       4.966   3.937  15.853  0.00  0.00    +0.000 A 
ATOM     19  C   UNL     1       5.675   4.174  14.678  0.00  0.00    +0.000 A 
ATOM     20  C   UNL     1       6.857   4.888  14.730  0.00  0.00    +0.000 A 
ATOM     21  C   UNL     1       7.340   5.322  15.962  0.00  0.00    +0.000 A 
ATOM     22  C   UNL     1       6.642   5.087  17.170  0.00  0.00    +0.000 A 
BRANCH  22  23
ATOM     23  C   UNL     1       7.359   5.546  18.428  0.00  0.00    +0.000 C 
ATOM     24  F   UNL     1       6.604   5.659  19.553  0.00  0.00    +0.000 F 
ATOM     25  F   UNL     1       8.353   4.671  18.770  0.00  0.00    +0.000 F 
ATOM     26  F   UNL     1       7.979   6.748  18.269  0.00  0.00    +0.000 F 
ENDBRANCH  22  23
ENDBRANCH  16  17
ENDBRANCH   1  16
TORSDOF 8
ENDMDL
MODEL 4
REMARK VINA RESULT:      -7.8      2.046      2.627
REMARK  Name = 
REMARK  10 active torsions:
REMARK  status: ('A' for Active; 'I' for Inactive)
REMARK    1  A    between atoms: C_1  and  C_2
REMARK    2  A    between atoms: C_2  and  C_3
REMARK    3  A    between atoms: C_2  and  C_4
REMARK    4  A    between atoms: C_7  and  O_8
REMARK    5  A    between atoms: O_8  and  C_9
REMARK    6  A    between atoms: C_9  and  C_10
REMARK    7  A    between atoms: C_9  and  C_21
REMARK    8  A    between atoms: C_10  and  C_11
REMARK    9  A    between atoms: C_16  and  C_17
REMARK   10  A    between atoms: C_21  and  O_23
REMARK                            x       y       z     vdW  Elec       q    Type
REMARK                         _______ _______ _______ _____ _____    ______ ____
ROOT
ATOM      1  C   UNL     1       6.819   5.722  17.043  0.00  0.00    +0.000 C 
ENDROOT
BRANCH   1   2
ATOM      2  C   UNL     1       7.666   6.697  17.867  0.00  0.00    +0.000 C 
ATOM      3  O   UNL     1       8.112   6.462  18.981  0.00  0.00    +0.000 OA
BRANCH   2   4
ATOM      4  O   UNL     1       7.813   7.906  17.266  0.00  0.00    +0.000 OA
ATOM      5  H   UNL     1       8.533   8.413  17.699  0.00  0.00    +0.000 HD
ENDBRANCH   2   4
ENDBRANCH   1   2
BRANCH   1   6
ATOM      6  O   UNL     1       7.696   5.057  16.121  0.00  0.00    +0.000 OA
BRANCH   6  10
ATOM      7  C   UNL     1       5.977   3.650  12.585  0.00  0.00    +0.000 A 
ATOM      8  C   UNL     1       7.145   4.422  12.512  0.00  0.00    +0.000 A 
ATOM      9  C   UNL     1       7.748   4.922  13.669  0.00  0.00    +0.000 A 
ATOM     10  C   UNL     1       7.188   4.661  14.915  0.00  0.00    +0.000 A 
ATOM     11  C   UNL     1       6.005   3.923  14.995  0.00  0.00    +0.000 A 
ATOM     12  C   UNL     1       5.394   3.436  13.840  0.00  0.00    +0.000 A 
BRANCH   7  14
ATOM     13  C   UNL     1       5.878   1.543  11.238  0.00  0.00    +0.000 C 
ATOM     14  C   UNL     1       5.420   3.003  11.330  0.00  0.00    +0.000 C 
ATOM     15  C   UNL     1       3.898   3.111  11.247  0.00  0.00    +0.000 C 
ENDBRANCH   7  14
ENDBRANCH   6  10
ENDBRANCH   1   6
BRANCH   1  16
ATOM     16  C   UNL     1       6.026   4.761  17.962  0.00  0.00    +0.000 C 
BRANCH  16  17
ATOM     17  C   UNL     1       4.560   5.100  18.174  0.00  0.00    +0.000 A 
ATOM     18  C   UNL     1       4.183   6.457  18.076  0.00  0.00    +0.000 A 
ATOM     19  C   UNL     1       2.855   6.871  18.142  0.00  0.00    +0.000 A 
ATOM     20  C   UNL     1       1.861   5.932  18.343  0.00  0.00    +0.000 A 
ATOM     21  C   UNL     1       2.209   4.595  18.520  0.00  0.00    +0.000 A 
ATOM     22  C   UNL     1       3.551   4.152  18.464  0.00  0.00    +0.000 A 
BRANCH  22  23
ATOM     23  C   UNL     1       3.758   2.678  18.770  0.00  0.00    +0.000 C 
ATOM     24  F   UNL     1       2.679   1.996  19.238  0.00  0.00    +0.000 F 
ATOM     25  F   UNL     1       4.133   1.995  17.646  0.00  0.00    +0.000 F 
ATOM     26  F   UNL     1       4.757   2.465  19.670  0.00  0.00    +0.000 F 
ENDBRANCH  22  23
ENDBRANCH  16  17
ENDBRANCH   1  16
TORSDOF 8
ENDMDL
MODEL 5
REMARK VINA RESULT:      -7.8      2.914      4.123
REMARK  Name = 
REMARK  10 active torsions:
REMARK  status: ('A' for Active; 'I' for Inactive)
REMARK    1  A    between atoms: C_1  and  C_2
REMARK    2  A    between atoms: C_2  and  C_3
REMARK    3  A    between atoms: C_2  and  C_4
REMARK    4  A    between atoms: C_7  and  O_8
REMARK    5  A    between atoms: O_8  and  C_9
REMARK    6  A    between atoms: C_9  and  C_10
REMARK    7  A    between atoms: C_9  and  C_21
REMARK    8  A    between atoms: C_10  and  C_11
REMARK    9  A    between atoms: C_16  and  C_17
REMARK   10  A    between atoms: C_21  and  O_23
REMARK                            x       y       z     vdW  Elec       q    Type
REMARK                         _______ _______ _______ _____ _____    ______ ____
ROOT
ATOM      1  C   UNL     1       2.719   6.816  18.276  0.00  0.00    +0.000 C 
ENDROOT
BRANCH   1   2
ATOM      2  C   UNL     1       2.146   8.214  18.528  0.00  0.00    +0.000 C 
ATOM      3  O   UNL     1       1.613   8.571  19.569  0.00  0.00    +0.000 OA
BRANCH   2   4
ATOM      4  O   UNL     1       2.212   9.016  17.434  0.00  0.00    +0.000 OA
ATOM      5  H   UNL     1       1.351   9.019  16.964  0.00  0.00    +0.000 HD
ENDBRANCH   2   4
ENDBRANCH   1   2
BRANCH   1   6
ATOM      6  O   UNL     1       4.148   6.909  18.375  0.00  0.00    +0.000 OA
BRANCH   6  10
ATOM      7  C   UNL     1       6.281   5.089  15.280  0.00  0.00    +0.000 A 
ATOM      8  C   UNL     1       6.469   4.634  16.593  0.00  0.00    +0.000 A 
ATOM      9  C   UNL     1       5.783   5.221  17.660  0.00  0.00    +0.000 A 
ATOM     10  C   UNL     1       4.905   6.275  17.429  0.00  0.00    +0.000 A 
ATOM     11  C   UNL     1       4.739   6.757  16.130  0.00  0.00    +0.000 A 
ATOM     12  C   UNL     1       5.433   6.183  15.065  0.00  0.00    +0.000 A 
BRANCH   7  14
ATOM     13  C   UNL     1       5.855   3.680  13.255  0.00  0.00    +0.000 C 
ATOM     14  C   UNL     1       6.927   4.347  14.124  0.00  0.00    +0.000 C 
ATOM     15  C   UNL     1       7.834   5.249  13.288  0.00  0.00    +0.000 C 
ENDBRANCH   7  14
ENDBRANCH   6  10
ENDBRANCH   1   6
BRANCH   1  16
ATOM     16  C   UNL     1       2.087   5.776  19.234  0.00  0.00    +0.000 C 
BRANCH  16  17
ATOM     17  C   UNL     1       2.294   4.317  18.863  0.00  0.00    +0.000 A 
ATOM     18  C   UNL     1       2.377   3.998  17.490  0.00  0.00    +0.000 A 
ATOM     19  C   UNL     1       2.674   2.715  17.037  0.00  0.00    +0.000 A 
ATOM     20  C   UNL     1       2.865   1.699  17.954  0.00  0.00    +0.000 A 
ATOM     21  C   UNL     1       2.715   1.967  19.313  0.00  0.00    +0.000 A 
ATOM     22  C   UNL     1       2.407   3.261  19.796  0.00  0.00    +0.000 A 
BRANCH  22  23
ATOM     23  C   UNL     1       2.188   3.353  21.296  0.00  0.00    +0.000 C 
ATOM     24  F   UNL     1       2.502   4.536  21.887  0.00  0.00    +0.000 F 
ATOM     25  F   UNL     1       0.871   3.154  21.610  0.00  0.00    +0.000 F 
ATOM     26  F   UNL     1       2.868   2.395  21.985  0.00  0.00    +0.000 F 
ENDBRANCH  22  23
ENDBRANCH  16  17
ENDBRANCH   1  16
TORSDOF 8
ENDMDL
MODEL 6
REMARK VINA RESULT:      -7.7      0.949      1.481
REMARK  Name = 
REMARK  10 active torsions:
REMARK  status: ('A' for Active; 'I' for Inactive)
REMARK    1  A    between atoms: C_1  and  C_2
REMARK    2  A    between atoms: C_2  and  C_3
REMARK    3  A    between atoms: C_2  and  C_4
REMARK    4  A    between atoms: C_7  and  O_8
REMARK    5  A    between atoms: O_8  and  C_9
REMARK    6  A    between atoms: C_9  and  C_10
REMARK    7  A    between atoms: C_9  and  C_21
REMARK    8  A    between atoms: C_10  and  C_11
REMARK    9  A    between atoms: C_16  and  C_17
REMARK   10  A    between atoms: C_21  and  O_23
REMARK                            x       y       z     vdW  Elec       q    Type
REMARK                         _______ _______ _______ _____ _____    ______ ____
ROOT
ATOM      1  C   UNL     1       6.339   5.522  18.533  0.00  0.00    +0.000 C 
ENDROOT
BRANCH   1   2
ATOM      2  C   UNL     1       7.565   6.121  19.229  0.00  0.00    +0.000 C 
ATOM      3  O   UNL     1       8.255   7.021  18.772  0.00  0.00    +0.000 OA
BRANCH   2   4
ATOM      4  O   UNL     1       7.871   5.490  20.392  0.00  0.00    +0.000 OA
ATOM      5  H   UNL     1       7.776   6.109  21.148  0.00  0.00    +0.000 HD
ENDBRANCH   2   4
ENDBRANCH   1   2
BRANCH   1   6
ATOM      6  O   UNL     1       6.760   4.318  17.873  0.00  0.00    +0.000 OA
BRANCH   6  10
ATOM      7  C   UNL     1       6.325   3.901  13.740  0.00  0.00    +0.000 A 
ATOM      8  C   UNL     1       7.315   4.760  14.235  0.00  0.00    +0.000 A 
ATOM      9  C   UNL     1       7.490   4.938  15.610  0.00  0.00    +0.000 A 
ATOM     10  C   UNL     1       6.671   4.263  16.510  0.00  0.00    +0.000 A 
ATOM     11  C   UNL     1       5.658   3.432  16.025  0.00  0.00    +0.000 A 
ATOM     12  C   UNL     1       5.473   3.265  14.653  0.00  0.00    +0.000 A 
BRANCH   7  14
ATOM     13  C   UNL     1       4.783   3.588  11.793  0.00  0.00    +0.000 C 
ATOM     14  C   UNL     1       6.246   3.617  12.251  0.00  0.00    +0.000 C 
ATOM     15  C   UNL     1       7.064   4.608  11.426  0.00  0.00    +0.000 C 
ENDBRANCH   7  14
ENDBRANCH   6  10
ENDBRANCH   1   6
BRANCH   1  16
ATOM     16  C   UNL     1       5.176   5.317  19.534  0.00  0.00    +0.000 C 
BRANCH  16  17
ATOM     17  C   UNL     1       3.914   4.687  18.970  0.00  0.00    +0.000 A 
ATOM     18  C   UNL     1       3.812   3.279  19.012  0.00  0.00    +0.000 A 
ATOM     19  C   UNL     1       2.659   2.601  18.624  0.00  0.00    +0.000 A 
ATOM     20  C   UNL     1       1.577   3.318  18.150  0.00  0.00    +0.000 A 
ATOM     21  C   UNL     1       1.675   4.702  18.025  0.00  0.00    +0.000 A 
ATOM     22  C   UNL     1       2.839   5.412  18.406  0.00  0.00    +0.000 A 
BRANCH  22  23
ATOM     23  C   UNL     1       2.808   6.903  18.116  0.00  0.00    +0.000 C 
ATOM     24  F   UNL     1       3.802   7.392  17.328  0.00  0.00    +0.000 F 
ATOM     25  F   UNL     1       1.655   7.249  17.466  0.00  0.00    +0.000 F 
ATOM     26  F   UNL     1       2.820   7.657  19.249  0.00  0.00    +0.000 F 
ENDBRANCH  22  23
ENDBRANCH  16  17
ENDBRANCH   1  16
TORSDOF 8
ENDMDL
MODEL 7
REMARK VINA RESULT:      -7.6      2.165      2.610
REMARK  Name = 
REMARK  10 active torsions:
REMARK  status: ('A' for Active; 'I' for Inactive)
REMARK    1  A    between atoms: C_1  and  C_2
REMARK    2  A    between atoms: C_2  and  C_3
REMARK    3  A    between atoms: C_2  and  C_4
REMARK    4  A    between atoms: C_7  and  O_8
REMARK    5  A    between atoms: O_8  and  C_9
REMARK    6  A    between atoms: C_9  and  C_10
REMARK    7  A    between atoms: C_9  and  C_21
REMARK    8  A    between atoms: C_10  and  C_11
REMARK    9  A    between atoms: C_16  and  C_17
REMARK   10  A    between atoms: C_21  and  O_23
REMARK                            x       y       z     vdW  Elec       q    Type
REMARK                         _______ _______ _______ _____ _____    ______ ____
ROOT
ATOM      1  C   UNL     1       6.596   5.675  18.153  0.00  0.00    +0.000 C 
ENDROOT
BRANCH   1   2
ATOM      2  C   UNL     1       7.735   6.521  18.729  0.00  0.00    +0.000 C 
ATOM      3  O   UNL     1       8.123   7.581  18.259  0.00  0.00    +0.000 OA
BRANCH   2   4
ATOM      4  O   UNL     1       8.346   5.931  19.789  0.00  0.00    +0.000 OA
ATOM      5  H   UNL     1       9.268   5.688  19.556  0.00  0.00    +0.000 HD
ENDBRANCH   2   4
ENDBRANCH   1   2
BRANCH   1   6
ATOM      6  O   UNL     1       7.188   4.587  17.427  0.00  0.00    +0.000 OA
BRANCH   6  10
ATOM      7  C   UNL     1       6.067   3.935  13.457  0.00  0.00    +0.000 A 
ATOM      8  C   UNL     1       7.190   4.730  13.724  0.00  0.00    +0.000 A 
ATOM      9  C   UNL     1       7.595   4.983  15.037  0.00  0.00    +0.000 A 
ATOM     10  C   UNL     1       6.878   4.448  16.102  0.00  0.00    +0.000 A 
ATOM     11  C   UNL     1       5.737   3.685  15.847  0.00  0.00    +0.000 A 
ATOM     12  C   UNL     1       5.323   3.443  14.537  0.00  0.00    +0.000 A 
BRANCH   7  14
ATOM     13  C   UNL     1       6.451   2.267  11.631  0.00  0.00    +0.000 C 
ATOM     14  C   UNL     1       5.729   3.560  12.026  0.00  0.00    +0.000 C 
ATOM     15  C   UNL     1       4.223   3.445  11.794  0.00  0.00    +0.000 C 
ENDBRANCH   7  14
ENDBRANCH   6  10
ENDBRANCH   1   6
BRANCH   1  16
ATOM     16  C   UNL     1       5.616   5.230  19.267  0.00  0.00    +0.000 C 
BRANCH  16  17
ATOM     17  C   UNL     1       4.156   5.116  18.863  0.00  0.00    +0.000 A 
ATOM     18  C   UNL     1       3.531   6.271  18.343  0.00  0.00    +0.000 A 
ATOM     19  C   UNL     1       2.232   6.256  17.841  0.00  0.00    +0.000 A 
ATOM     20  C   UNL     1       1.505   5.081  17.875  0.00  0.00    +0.000 A 
ATOM     21  C   UNL     1       2.068   3.944  18.451  0.00  0.00    +0.000 A 
ATOM     22  C   UNL     1       3.382   3.938  18.975  0.00  0.00    +0.000 A 
BRANCH  22  23
ATOM     23  C   UNL     1       3.801   2.643  19.649  0.00  0.00    +0.000 C 
ATOM     24  F   UNL     1       3.552   2.540  20.981  0.00  0.00    +0.000 F 
ATOM     25  F   UNL     1       3.152   1.573  19.096  0.00  0.00    +0.000 F 
ATOM     26  F   UNL     1       5.128   2.375  19.493  0.00  0.00    +0.000 F 
ENDBRANCH  22  23
ENDBRANCH  16  17
ENDBRANCH   1  16
TORSDOF 8
ENDMDL
MODEL 8
REMARK VINA RESULT:      -7.6      3.335      6.957
REMARK  Name = 
REMARK  10 active torsions:
REMARK  status: ('A' for Active; 'I' for Inactive)
REMARK    1  A    between atoms: C_1  and  C_2
REMARK    2  A    between atoms: C_2  and  C_3
REMARK    3  A    between atoms: C_2  and  C_4
REMARK    4  A    between atoms: C_7  and  O_8
REMARK    5  A    between atoms: O_8  and  C_9
REMARK    6  A    between atoms: C_9  and  C_10
REMARK    7  A    between atoms: C_9  and  C_21
REMARK    8  A    between atoms: C_10  and  C_11
REMARK    9  A    between atoms: C_16  and  C_17
REMARK   10  A    between atoms: C_21  and  O_23
REMARK                            x       y       z     vdW  Elec       q    Type
REMARK                         _______ _______ _______ _____ _____    ______ ____
ROOT
ATOM      1  C   UNL     1       3.280   4.077  18.878  0.00  0.00    +0.000 C 
ENDROOT
BRANCH   1   2
ATOM      2  C   UNL     1       2.620   2.712  19.096  0.00  0.00    +0.000 C 
ATOM      3  O   UNL     1       3.094   1.643  18.738  0.00  0.00    +0.000 OA
BRANCH   2   4
ATOM      4  O   UNL     1       1.391   2.807  19.665  0.00  0.00    +0.000 OA
ATOM      5  H   UNL     1       0.743   2.266  19.163  0.00  0.00    +0.000 HD
ENDBRANCH   2   4
ENDBRANCH   1   2
BRANCH   1   6
ATOM      6  O   UNL     1       2.786   4.965  19.892  0.00  0.00    +0.000 OA
BRANCH   6  10
ATOM      7  C   UNL     1       1.580   8.867  19.021  0.00  0.00    +0.000 A 
ATOM      8  C   UNL     1       2.198   8.108  18.018  0.00  0.00    +0.000 A 
ATOM      9  C   UNL     1       2.626   6.801  18.268  0.00  0.00    +0.000 A 
ATOM     10  C   UNL     1       2.448   6.239  19.528  0.00  0.00    +0.000 A 
ATOM     11  C   UNL     1       1.866   7.000  20.543  0.00  0.00    +0.000 A 
ATOM     12  C   UNL     1       1.450   8.309  20.299  0.00  0.00    +0.000 A 
BRANCH   7  14
ATOM     13  C   UNL     1      -0.401  10.074  18.081  0.00  0.00    +0.000 C 
ATOM     14  C   UNL     1       0.998  10.229  18.688  0.00  0.00    +0.000 C 
ATOM     15  C   UNL     1       0.976  11.164  19.895  0.00  0.00    +0.000 C 
ENDBRANCH   7  14
ENDBRANCH   6  10
ENDBRANCH   1   6
BRANCH   1  16
ATOM     16  C   UNL     1       4.824   3.949  18.850  0.00  0.00    +0.000 C 
BRANCH  16  17
ATOM     17  C   UNL     1       5.503   4.357  17.554  0.00  0.00    +0.000 A 
ATOM     18  C   UNL     1       4.940   3.887  16.347  0.00  0.00    +0.000 A 
ATOM     19  C   UNL     1       5.411   4.285  15.098  0.00  0.00    +0.000 A 
ATOM     20  C   UNL     1       6.490   5.146  15.023  0.00  0.00    +0.000 A 
ATOM     21  C   UNL     1       7.114   5.566  16.195  0.00  0.00    +0.000 A 
ATOM     22  C   UNL     1       6.657   5.169  17.474  0.00  0.00    +0.000 A 
BRANCH  22  23
ATOM     23  C   UNL     1       7.510   5.644  18.639  0.00  0.00    +0.000 C 
ATOM     24  F   UNL     1       6.894   5.743  19.846  0.00  0.00    +0.000 F 
ATOM     25  F   UNL     1       8.556   4.789  18.858  0.00  0.00    +0.000 F 
ATOM     26  F   UNL     1       8.083   6.858  18.408  0.00  0.00    +0.000 F 
ENDBRANCH  22  23
ENDBRANCH  16  17
ENDBRANCH   1  16
TORSDOF 8
ENDMDL
MODEL 9
REMARK VINA RESULT:      -7.6      3.348      7.171
REMARK  Name = 
REMARK  10 active torsions:
REMARK  status: ('A' for Active; 'I' for Inactive)
REMARK    1  A    between atoms: C_1  and  C_2
REMARK    2  A    between atoms: C_2  and  C_3
REMARK    3  A    between atoms: C_2  and  C_4
REMARK    4  A    between atoms: C_7  and  O_8
REMARK    5  A    between atoms: O_8  and  C_9
REMARK    6  A    between atoms: C_9  and  C_10
REMARK    7  A    between atoms: C_9  and  C_21
REMARK    8  A    between atoms: C_10  and  C_11
REMARK    9  A    between atoms: C_16  and  C_17
REMARK   10  A    between atoms: C_21  and  O_23
REMARK                            x       y       z     vdW  Elec       q    Type
REMARK                         _______ _______ _______ _____ _____    ______ ____
ROOT
ATOM      1  C   UNL     1       3.279   4.887  17.983  0.00  0.00    +0.000 C 
ENDROOT
BRANCH   1   2
ATOM      2  C   UNL     1       1.974   4.135  18.265  0.00  0.00    +0.000 C 
ATOM      3  O   UNL     1       1.740   3.506  19.287  0.00  0.00    +0.000 OA
BRANCH   2   4
ATOM      4  O   UNL     1       1.112   4.164  17.216  0.00  0.00    +0.000 OA
ATOM      5  H   UNL     1       0.348   4.745  17.422  0.00  0.00    +0.000 HD
ENDBRANCH   2   4
ENDBRANCH   1   2
BRANCH   1   6
ATOM      6  O   UNL     1       3.484   5.816  19.058  0.00  0.00    +0.000 OA
BRANCH   6  10
ATOM      7  C   UNL     1       1.260   9.349  18.932  0.00  0.00    +0.000 A 
ATOM      8  C   UNL     1       1.263   8.590  20.110  0.00  0.00    +0.000 A 
ATOM      9  C   UNL     1       1.985   7.396  20.194  0.00  0.00    +0.000 A 
ATOM     10  C   UNL     1       2.710   6.942  19.096  0.00  0.00    +0.000 A 
ATOM     11  C   UNL     1       2.684   7.673  17.907  0.00  0.00    +0.000 A 
ATOM     12  C   UNL     1       1.953   8.858  17.818  0.00  0.00    +0.000 A 
BRANCH   7  14
ATOM     13  C   UNL     1      -0.831  10.589  18.337  0.00  0.00    +0.000 C 
ATOM     14  C   UNL     1       0.586  10.708  18.910  0.00  0.00    +0.000 C 
ATOM     15  C   UNL     1       0.572  11.373  20.286  0.00  0.00    +0.000 C 
ENDBRANCH   7  14
ENDBRANCH   6  10
ENDBRANCH   1   6
BRANCH   1  16
ATOM     16  C   UNL     1       4.454   3.900  17.770  0.00  0.00    +0.000 C 
BRANCH  16  17
ATOM     17  C   UNL     1       5.386   4.214  16.612  0.00  0.00    +0.000 A 
ATOM     18  C   UNL     1       4.958   3.854  15.315  0.00  0.00    +0.000 A 
ATOM     19  C   UNL     1       5.678   4.189  14.171  0.00  0.00    +0.000 A 
ATOM     20  C   UNL     1       6.873   4.872  14.297  0.00  0.00    +0.000 A 
ATOM     21  C   UNL     1       7.358   5.174  15.567  0.00  0.00    +0.000 A 
ATOM     22  C   UNL     1       6.648   4.837  16.744  0.00  0.00    +0.000 A 
BRANCH  22  23
ATOM     23  C   UNL     1       7.366   5.157  18.044  0.00  0.00    +0.000 C 
ATOM     24  F   UNL     1       6.627   5.084  19.183  0.00  0.00    +0.000 F 
ATOM     25  F   UNL     1       8.404   4.291  18.254  0.00  0.00    +0.000 F 
ATOM     26  F   UNL     1       7.930   6.397  18.040  0.00  0.00    +0.000 F 
ENDBRANCH  22  23
ENDBRANCH  16  17
ENDBRANCH   1  16
TORSDOF 8
ENDMDL
