MODEL 1
REMARK VINA RESULT:      -8.3      0.000      0.000
REMARK  Name = 
REMARK  7 active torsions:
REMARK  status: ('A' for Active; 'I' for Inactive)
REMARK    1  A    between atoms: C_1  and  N_2
REMARK    2  A    between atoms: C_3  and  C_5
REMARK    3  A    between atoms: C_5  and  C_6
REMARK    4  A    between atoms: C_5  and  C_7
REMARK    5  A    between atoms: C_5  and  C_8
REMARK    6  A    between atoms: C_8  and  N_9
REMARK    7  A    between atoms: N_9  and  C_10
REMARK                            x       y       z     vdW  Elec       q    Type
REMARK                         _______ _______ _______ _____ _____    ______ ____
ROOT
ATOM      1  C   UNL     1       3.505   5.906  17.664  0.00  0.00    +0.000 C 
ATOM      2  C   UNL     1       3.899   4.744  18.590  0.00  0.00    +0.000 C 
ATOM      3  C   UNL     1       2.816   4.426  19.618  0.00  0.00    +0.000 C 
ATOM      4  C   UNL     1       1.498   3.940  18.978  0.00  0.00    +0.000 C 
ATOM      5  C   UNL     1       0.512   3.508  20.054  0.00  0.00    +0.000 C 
ATOM      6  O   UNL     1       1.074   2.472  20.858  0.00  0.00    +0.000 OA
ATOM      7  C   UNL     1       2.245   2.908  21.547  0.00  0.00    +0.000 C 
ATOM      8  C   UNL     1       3.329   3.317  20.556  0.00  0.00    +0.000 C 
ATOM      9  O   UNL     1       2.604   5.584  20.446  0.00  0.00    +0.000 OA
ATOM     10  C   UNL     1       2.357   6.744  19.766  0.00  0.00    +0.000 A 
ATOM     11  C   UNL     1       1.680   7.724  20.496  0.00  0.00    +0.000 A 
ATOM     12  C   UNL     1       1.259   8.892  19.870  0.00  0.00    +0.000 A 
ATOM     13  C   UNL     1       1.508   9.073  18.512  0.00  0.00    +0.000 A 
ATOM     14  C   UNL     1       2.228   8.111  17.795  0.00  0.00    +0.000 A 
ATOM     15  C   UNL     1       2.706   6.949  18.425  0.00  0.00    +0.000 A 
ENDROOT
BRANCH   1  16
ATOM     16  N   UNL     1       4.720   6.487  17.043  0.00  0.00    +0.000 NA
ATOM     17  H   UNL     1       5.144   5.790  16.435  0.00  0.00    +0.000 HD
BRANCH  16  18
ATOM     18  C   UNL     1       5.705   6.924  18.046  0.00  0.00    +0.000 C 
BRANCH  18  19
ATOM     19  C   UNL     1       7.178   6.507  17.766  0.00  0.00    +0.000 C 
ATOM     20  C   UNL     1       7.829   5.969  19.055  0.00  0.00    +0.000 C 
ATOM     21  C   UNL     1       7.987   7.691  17.220  0.00  0.00    +0.000 C 
BRANCH  19  24
ATOM     22  C   UNL     1       7.187   4.825  14.324  0.00  0.00    +0.000 C 
ATOM     23  N   UNL     1       7.209   5.793  15.390  0.00  0.00    +0.000 N 
ATOM     24  C   UNL     1       7.121   5.385  16.705  0.00  0.00    +0.000 C 
ATOM     25  O   UNL     1       6.991   4.200  16.998  0.00  0.00    +0.000 OA
ATOM     26  H   UNL     1       7.335   6.770  15.164  0.00  0.00    +0.000 HD
ENDBRANCH  19  24
ENDBRANCH  18  19
ENDBRANCH  16  18
ENDBRANCH   1  16
TORSDOF 4
ENDMDL
MODEL 2
REMARK VINA RESULT:      -8.0      1.393      1.801
REMARK  Name = 
REMARK  7 active torsions:
REMARK  status: ('A' for Active; 'I' for Inactive)
REMARK    1  A    between atoms: C_1  and  N_2
REMARK    2  A    between atoms: C_3  and  C_5
REMARK    3  A    between atoms: C_5  and  C_6
REMARK    4  A    between atoms: C_5  and  C_7
REMARK    5  A    between atoms: C_5  and  C_8
REMARK    6  A    between atoms: C_8  and  N_9
REMARK    7  A    between atoms: N_9  and  C_10
REMARK                            x       y       z     vdW  Elec       q    Type
REMARK                         _______ _______ _______ _____ _____    ______ ____
ROOT
ATOM      1  C   UNL     1       3.819   5.931  17.793  0.00  0.00    +0.000 C 
ATOM      2  C   UNL     1       4.100   4.827  18.825  0.00  0.00    +0.000 C 
ATOM      3  C   UNL     1       2.904   4.561  19.734  0.00  0.00    +0.000 C 
ATOM      4  C   UNL     1       1.671   4.030  18.972  0.00  0.00    +0.000 C 
ATOM      5  C   UNL     1       0.564   3.653  19.946  0.00  0.00    +0.000 C 
ATOM      6  O   UNL     1       1.027   2.669  20.870  0.00  0.00    +0.000 OA
ATOM      7  C   UNL     1       2.108   3.152  21.666  0.00  0.00    +0.000 C 
ATOM      8  C   UNL     1       3.302   3.511  20.789  0.00  0.00    +0.000 C 
ATOM      9  O   UNL     1       2.595   5.763  20.462  0.00  0.00    +0.000 OA
ATOM     10  C   UNL     1       2.430   6.881  19.692  0.00  0.00    +0.000 A 
ATOM     11  C   UNL     1       1.672   7.896  20.279  0.00  0.00    +0.000 A 
ATOM     12  C   UNL     1       1.327   9.023  19.542  0.00  0.00    +0.000 A 
ATOM     13  C   UNL     1       1.736   9.127  18.214  0.00  0.00    +0.000 A 
ATOM     14  C   UNL     1       2.536   8.132  17.644  0.00  0.00    +0.000 A 
ATOM     15  C   UNL     1       2.936   7.011  18.392  0.00  0.00    +0.000 A 
ENDROOT
BRANCH   1  16
ATOM     16  N   UNL     1       5.099   6.484  17.287  0.00  0.00    +0.000 NA
ATOM     17  H   UNL     1       5.052   7.499  17.311  0.00  0.00    +0.000 HD
BRANCH  16  18
ATOM     18  C   UNL     1       5.394   6.041  15.913  0.00  0.00    +0.000 C 
BRANCH  18  19
ATOM     19  C   UNL     1       6.214   4.724  15.796  0.00  0.00    +0.000 C 
ATOM     20  C   UNL     1       5.281   3.506  15.940  0.00  0.00    +0.000 C 
ATOM     21  C   UNL     1       7.320   4.671  16.857  0.00  0.00    +0.000 C 
BRANCH  19  24
ATOM     22  C   UNL     1       6.889   3.701  12.165  0.00  0.00    +0.000 C 
ATOM     23  N   UNL     1       6.379   3.771  13.511  0.00  0.00    +0.000 N 
ATOM     24  C   UNL     1       6.849   4.727  14.387  0.00  0.00    +0.000 C 
ATOM     25  O   UNL     1       7.729   5.517  14.056  0.00  0.00    +0.000 OA
ATOM     26  H   UNL     1       5.640   3.140  13.789  0.00  0.00    +0.000 HD
ENDBRANCH  19  24
ENDBRANCH  18  19
ENDBRANCH  16  18
ENDBRANCH   1  16
TORSDOF 4
ENDMDL
MODEL 3
REMARK VINA RESULT:      -8.0      1.091      2.015
REMARK  Name = 
REMARK  7 active torsions:
REMARK  status: ('A' for Active; 'I' for Inactive)
REMARK    1  A    between atoms: C_1  and  N_2
REMARK    2  A    between atoms: C_3  and  C_5
REMARK    3  A    between atoms: C_5  and  C_6
REMARK    4  A    between atoms: C_5  and  C_7
REMARK    5  A    between atoms: C_5  and  C_8
REMARK    6  A    between atoms: C_8  and  N_9
REMARK    7  A    between atoms: N_9  and  C_10
REMARK                            x       y       z     vdW  Elec       q    Type
REMARK                         _______ _______ _______ _____ _____    ______ ____
ROOT
ATOM      1  C   UNL     1       3.434   6.118  17.597  0.00  0.00    +0.000 C 
ATOM      2  C   UNL     1       3.878   4.938  18.478  0.00  0.00    +0.000 C 
ATOM      3  C   UNL     1       2.835   4.572  19.530  0.00  0.00    +0.000 C 
ATOM      4  C   UNL     1       1.506   4.079  18.918  0.00  0.00    +0.000 C 
ATOM      5  C   UNL     1       0.562   3.599  20.012  0.00  0.00    +0.000 C 
ATOM      6  O   UNL     1       1.168   2.552  20.769  0.00  0.00    +0.000 OA
ATOM      7  C   UNL     1       2.352   2.992  21.433  0.00  0.00    +0.000 C 
ATOM      8  C   UNL     1       3.397   3.447  20.421  0.00  0.00    +0.000 C 
ATOM      9  O   UNL     1       2.628   5.702  20.396  0.00  0.00    +0.000 OA
ATOM     10  C   UNL     1       2.339   6.876  19.757  0.00  0.00    +0.000 A 
ATOM     11  C   UNL     1       1.668   7.823  20.534  0.00  0.00    +0.000 A 
ATOM     12  C   UNL     1       1.206   8.999  19.955  0.00  0.00    +0.000 A 
ATOM     13  C   UNL     1       1.409   9.222  18.595  0.00  0.00    +0.000 A 
ATOM     14  C   UNL     1       2.124   8.294  17.829  0.00  0.00    +0.000 A 
ATOM     15  C   UNL     1       2.642   7.124  18.412  0.00  0.00    +0.000 A 
ENDROOT
BRANCH   1  16
ATOM     16  N   UNL     1       4.619   6.738  16.955  0.00  0.00    +0.000 NA
ATOM     17  H   UNL     1       4.411   7.712  16.752  0.00  0.00    +0.000 HD
BRANCH  16  18
ATOM     18  C   UNL     1       5.003   6.050  15.710  0.00  0.00    +0.000 C 
BRANCH  18  19
ATOM     19  C   UNL     1       6.330   5.241  15.773  0.00  0.00    +0.000 C 
ATOM     20  C   UNL     1       7.072   5.337  14.426  0.00  0.00    +0.000 C 
ATOM     21  C   UNL     1       6.060   3.773  16.124  0.00  0.00    +0.000 C 
BRANCH  19  24
ATOM     22  C   UNL     1       8.026   5.716  19.176  0.00  0.00    +0.000 C 
ATOM     23  N   UNL     1       7.239   5.208  18.082  0.00  0.00    +0.000 N 
ATOM     24  C   UNL     1       7.186   5.890  16.884  0.00  0.00    +0.000 C 
ATOM     25  O   UNL     1       7.777   6.955  16.730  0.00  0.00    +0.000 OA
ATOM     26  H   UNL     1       6.764   4.322  18.188  0.00  0.00    +0.000 HD
ENDBRANCH  19  24
ENDBRANCH  18  19
ENDBRANCH  16  18
ENDBRANCH   1  16
TORSDOF 4
ENDMDL
MODEL 4
REMARK VINA RESULT:      -7.2      2.311      6.326
REMARK  Name = 
REMARK  7 active torsions:
REMARK  status: ('A' for Active; 'I' for Inactive)
REMARK    1  A    between atoms: C_1  and  N_2
REMARK    2  A    between atoms: C_3  and  C_5
REMARK    3  A    between atoms: C_5  and  C_6
REMARK    4  A    between atoms: C_5  and  C_7
REMARK    5  A    between atoms: C_5  and  C_8
REMARK    6  A    between atoms: C_8  and  N_9
REMARK    7  A    between atoms: N_9  and  C_10
REMARK                            x       y       z     vdW  Elec       q    Type
REMARK                         _______ _______ _______ _____ _____    ______ ____
ROOT
ATOM      1  C   UNL     1       2.803   6.184  17.707  0.00  0.00    +0.000 C 
ATOM      2  C   UNL     1       4.273   6.595  17.894  0.00  0.00    +0.000 C 
ATOM      3  C   UNL     1       5.239   5.449  17.609  0.00  0.00    +0.000 C 
ATOM      4  C   UNL     1       5.189   4.964  16.144  0.00  0.00    +0.000 C 
ATOM      5  C   UNL     1       6.268   3.921  15.891  0.00  0.00    +0.000 C 
ATOM      6  O   UNL     1       7.558   4.458  16.183  0.00  0.00    +0.000 OA
ATOM      7  C   UNL     1       7.681   4.831  17.555  0.00  0.00    +0.000 C 
ATOM      8  C   UNL     1       6.675   5.919  17.908  0.00  0.00    +0.000 C 
ATOM      9  O   UNL     1       4.972   4.373  18.528  0.00  0.00    +0.000 OA
ATOM     10  C   UNL     1       3.668   3.962  18.575  0.00  0.00    +0.000 A 
ATOM     11  C   UNL     1       3.476   2.661  19.046  0.00  0.00    +0.000 A 
ATOM     12  C   UNL     1       2.209   2.089  19.013  0.00  0.00    +0.000 A 
ATOM     13  C   UNL     1       1.138   2.817  18.500  0.00  0.00    +0.000 A 
ATOM     14  C   UNL     1       1.325   4.137  18.074  0.00  0.00    +0.000 A 
ATOM     15  C   UNL     1       2.589   4.747  18.149  0.00  0.00    +0.000 A 
ENDROOT
BRANCH   1  16
ATOM     16  N   UNL     1       1.922   7.124  18.441  0.00  0.00    +0.000 NA
ATOM     17  H   UNL     1       0.971   7.022  18.094  0.00  0.00    +0.000 HD
BRANCH  16  18
ATOM     18  C   UNL     1       2.350   8.525  18.288  0.00  0.00    +0.000 C 
BRANCH  18  19
ATOM     19  C   UNL     1       1.287   9.596  18.667  0.00  0.00    +0.000 C 
ATOM     20  C   UNL     1       0.012   9.396  17.823  0.00  0.00    +0.000 C 
ATOM     21  C   UNL     1       1.839  11.012  18.461  0.00  0.00    +0.000 C 
BRANCH  19  24
ATOM     22  C   UNL     1      -0.360  10.114  22.087  0.00  0.00    +0.000 C 
ATOM     23  N   UNL     1       0.032  10.242  20.707  0.00  0.00    +0.000 N 
ATOM     24  C   UNL     1       0.959   9.379  20.161  0.00  0.00    +0.000 C 
ATOM     25  O   UNL     1       1.493   8.506  20.838  0.00  0.00    +0.000 OA
ATOM     26  H   UNL     1      -0.415  10.944  20.133  0.00  0.00    +0.000 HD
ENDBRANCH  19  24
ENDBRANCH  18  19
ENDBRANCH  16  18
ENDBRANCH   1  16
TORSDOF 4
ENDMDL
MODEL 5
REMARK VINA RESULT:      -7.2      2.555      6.279
REMARK  Name = 
REMARK  7 active torsions:
REMARK  status: ('A' for Active; 'I' for Inactive)
REMARK    1  A    between atoms: C_1  and  N_2
REMARK    2  A    between atoms: C_3  and  C_5
REMARK    3  A    between atoms: C_5  and  C_6
REMARK    4  A    between atoms: C_5  and  C_7
REMARK    5  A    between atoms: C_5  and  C_8
REMARK    6  A    between atoms: C_8  and  N_9
REMARK    7  A    between atoms: N_9  and  C_10
REMARK                            x       y       z     vdW  Elec       q    Type
REMARK                         _______ _______ _______ _____ _____    ______ ____
ROOT
ATOM      1  C   UNL     1       3.074   6.477  17.777  0.00  0.00    +0.000 C 
ATOM      2  C   UNL     1       4.577   6.723  17.989  0.00  0.00    +0.000 C 
ATOM      3  C   UNL     1       5.425   5.517  17.595  0.00  0.00    +0.000 C 
ATOM      4  C   UNL     1       5.329   5.174  16.093  0.00  0.00    +0.000 C 
ATOM      5  C   UNL     1       6.301   4.057  15.739  0.00  0.00    +0.000 C 
ATOM      6  O   UNL     1       7.637   4.436  16.068  0.00  0.00    +0.000 OA
ATOM      7  C   UNL     1       7.795   4.669  17.466  0.00  0.00    +0.000 C 
ATOM      8  C   UNL     1       6.901   5.816  17.923  0.00  0.00    +0.000 C 
ATOM      9  O   UNL     1       5.052   4.395  18.416  0.00  0.00    +0.000 OA
ATOM     10  C   UNL     1       3.715   4.112  18.435  0.00  0.00    +0.000 A 
ATOM     11  C   UNL     1       3.394   2.799  18.789  0.00  0.00    +0.000 A 
ATOM     12  C   UNL     1       2.077   2.360  18.716  0.00  0.00    +0.000 A 
ATOM     13  C   UNL     1       1.084   3.233  18.278  0.00  0.00    +0.000 A 
ATOM     14  C   UNL     1       1.401   4.560  17.971  0.00  0.00    +0.000 A 
ATOM     15  C   UNL     1       2.719   5.034  18.090  0.00  0.00    +0.000 A 
ENDROOT
BRANCH   1  16
ATOM     16  N   UNL     1       2.289   7.429  18.599  0.00  0.00    +0.000 NA
ATOM     17  H   UNL     1       1.410   6.990  18.861  0.00  0.00    +0.000 HD
BRANCH  16  18
ATOM     18  C   UNL     1       2.013   8.687  17.885  0.00  0.00    +0.000 C 
BRANCH  18  19
ATOM     19  C   UNL     1       1.076   9.686  18.624  0.00  0.00    +0.000 C 
ATOM     20  C   UNL     1       0.875   9.239  20.085  0.00  0.00    +0.000 C 
ATOM     21  C   UNL     1      -0.279   9.793  17.913  0.00  0.00    +0.000 C 
BRANCH  19  24
ATOM     22  C   UNL     1       2.052  13.240  19.668  0.00  0.00    +0.000 C 
ATOM     23  N   UNL     1       1.434  11.942  19.592  0.00  0.00    +0.000 N 
ATOM     24  C   UNL     1       1.786  11.057  18.594  0.00  0.00    +0.000 C 
ATOM     25  O   UNL     1       2.605  11.363  17.732  0.00  0.00    +0.000 OA
ATOM     26  H   UNL     1       0.773  11.671  20.307  0.00  0.00    +0.000 HD
ENDBRANCH  19  24
ENDBRANCH  18  19
ENDBRANCH  16  18
ENDBRANCH   1  16
TORSDOF 4
ENDMDL
MODEL 6
REMARK VINA RESULT:      -7.2      2.220      5.783
REMARK  Name = 
REMARK  7 active torsions:
REMARK  status: ('A' for Active; 'I' for Inactive)
REMARK    1  A    between atoms: C_1  and  N_2
REMARK    2  A    between atoms: C_3  and  C_5
REMARK    3  A    between atoms: C_5  and  C_6
REMARK    4  A    between atoms: C_5  and  C_7
REMARK    5  A    between atoms: C_5  and  C_8
REMARK    6  A    between atoms: C_8  and  N_9
REMARK    7  A    between atoms: N_9  and  C_10
REMARK                            x       y       z     vdW  Elec       q    Type
REMARK                         _______ _______ _______ _____ _____    ______ ____
ROOT
ATOM      1  C   UNL     1       3.459   6.830  18.292  0.00  0.00    +0.000 C 
ATOM      2  C   UNL     1       2.247   5.884  18.308  0.00  0.00    +0.000 C 
ATOM      3  C   UNL     1       2.656   4.414  18.342  0.00  0.00    +0.000 C 
ATOM      4  C   UNL     1       3.425   4.029  19.623  0.00  0.00    +0.000 C 
ATOM      5  C   UNL     1       3.680   2.529  19.660  0.00  0.00    +0.000 C 
ATOM      6  O   UNL     1       2.448   1.813  19.597  0.00  0.00    +0.000 OA
ATOM      7  C   UNL     1       1.746   2.065  18.381  0.00  0.00    +0.000 C 
ATOM      8  C   UNL     1       1.389   3.542  18.265  0.00  0.00    +0.000 C 
ATOM      9  O   UNL     1       3.420   4.115  17.159  0.00  0.00    +0.000 OA
ATOM     10  C   UNL     1       4.479   4.949  16.927  0.00  0.00    +0.000 A 
ATOM     11  C   UNL     1       5.487   4.415  16.122  0.00  0.00    +0.000 A 
ATOM     12  C   UNL     1       6.669   5.119  15.926  0.00  0.00    +0.000 A 
ATOM     13  C   UNL     1       6.845   6.354  16.546  0.00  0.00    +0.000 A 
ATOM     14  C   UNL     1       5.814   6.909  17.313  0.00  0.00    +0.000 A 
ATOM     15  C   UNL     1       4.593   6.233  17.477  0.00  0.00    +0.000 A 
ENDROOT
BRANCH   1  16
ATOM     16  N   UNL     1       3.051   8.160  17.777  0.00  0.00    +0.000 NA
ATOM     17  H   UNL     1       3.490   8.881  18.344  0.00  0.00    +0.000 HD
BRANCH  16  18
ATOM     18  C   UNL     1       1.590   8.342  17.799  0.00  0.00    +0.000 C 
BRANCH  18  19
ATOM     19  C   UNL     1       1.090   9.670  18.437  0.00  0.00    +0.000 C 
ATOM     20  C   UNL     1      -0.297  10.038  17.873  0.00  0.00    +0.000 C 
ATOM     21  C   UNL     1       2.084  10.810  18.178  0.00  0.00    +0.000 C 
BRANCH  19  24
ATOM     22  C   UNL     1       0.025  10.147  22.086  0.00  0.00    +0.000 C 
ATOM     23  N   UNL     1       0.209  10.308  20.667  0.00  0.00    +0.000 N 
ATOM     24  C   UNL     1       0.981   9.413  19.956  0.00  0.00    +0.000 C 
ATOM     25  O   UNL     1       1.553   8.481  20.515  0.00  0.00    +0.000 OA
ATOM     26  H   UNL     1      -0.272  11.059  20.192  0.00  0.00    +0.000 HD
ENDBRANCH  19  24
ENDBRANCH  18  19
ENDBRANCH  16  18
ENDBRANCH   1  16
TORSDOF 4
ENDMDL
MODEL 7
REMARK VINA RESULT:      -7.2      1.029      1.785
REMARK  Name = 
REMARK  7 active torsions:
REMARK  status: ('A' for Active; 'I' for Inactive)
REMARK    1  A    between atoms: C_1  and  N_2
REMARK    2  A    between atoms: C_3  and  C_5
REMARK    3  A    between atoms: C_5  and  C_6
REMARK    4  A    between atoms: C_5  and  C_7
REMARK    5  A    between atoms: C_5  and  C_8
REMARK    6  A    between atoms: C_8  and  N_9
REMARK    7  A    between atoms: N_9  and  C_10
REMARK                            x       y       z     vdW  Elec       q    Type
REMARK                         _______ _______ _______ _____ _____    ______ ____
ROOT
ATOM      1  C   UNL     1       3.394   5.784  17.506  0.00  0.00    +0.000 C 
ATOM      2  C   UNL     1       3.850   4.617  18.397  0.00  0.00    +0.000 C 
ATOM      3  C   UNL     1       2.855   4.314  19.514  0.00  0.00    +0.000 C 
ATOM      4  C   UNL     1       1.481   3.847  18.991  0.00  0.00    +0.000 C 
ATOM      5  C   UNL     1       0.585   3.429  20.148  0.00  0.00    +0.000 C 
ATOM      6  O   UNL     1       1.200   2.386  20.903  0.00  0.00    +0.000 OA
ATOM      7  C   UNL     1       2.431   2.806  21.488  0.00  0.00    +0.000 C 
ATOM      8  C   UNL     1       3.431   3.199  20.408  0.00  0.00    +0.000 C 
ATOM      9  O   UNL     1       2.730   5.476  20.356  0.00  0.00    +0.000 OA
ATOM     10  C   UNL     1       2.442   6.639  19.697  0.00  0.00    +0.000 A 
ATOM     11  C   UNL     1       1.844   7.629  20.480  0.00  0.00    +0.000 A 
ATOM     12  C   UNL     1       1.386   8.802  19.891  0.00  0.00    +0.000 A 
ATOM     13  C   UNL     1       1.520   8.978  18.516  0.00  0.00    +0.000 A 
ATOM     14  C   UNL     1       2.164   8.007  17.742  0.00  0.00    +0.000 A 
ATOM     15  C   UNL     1       2.678   6.839  18.331  0.00  0.00    +0.000 A 
ENDROOT
BRANCH   1  16
ATOM     16  N   UNL     1       4.559   6.347  16.781  0.00  0.00    +0.000 NA
ATOM     17  H   UNL     1       4.979   5.615  16.214  0.00  0.00    +0.000 HD
BRANCH  16  18
ATOM     18  C   UNL     1       5.573   6.898  17.698  0.00  0.00    +0.000 C 
BRANCH  18  19
ATOM     19  C   UNL     1       7.051   6.582  17.329  0.00  0.00    +0.000 C 
ATOM     20  C   UNL     1       7.901   7.866  17.409  0.00  0.00    +0.000 C 
ATOM     21  C   UNL     1       7.146   5.973  15.924  0.00  0.00    +0.000 C 
BRANCH  19  24
ATOM     22  C   UNL     1       8.557   5.225  20.579  0.00  0.00    +0.000 C 
ATOM     23  N   UNL     1       8.079   6.091  19.533  0.00  0.00    +0.000 N 
ATOM     24  C   UNL     1       7.555   5.560  18.372  0.00  0.00    +0.000 C 
ATOM     25  O   UNL     1       7.512   4.347  18.189  0.00  0.00    +0.000 OA
ATOM     26  H   UNL     1       8.090   7.091  19.680  0.00  0.00    +0.000 HD
ENDBRANCH  19  24
ENDBRANCH  18  19
ENDBRANCH  16  18
ENDBRANCH   1  16
TORSDOF 4
ENDMDL
MODEL 8
REMARK VINA RESULT:      -7.2      1.611      4.215
REMARK  Name = 
REMARK  7 active torsions:
REMARK  status: ('A' for Active; 'I' for Inactive)
REMARK    1  A    between atoms: C_1  and  N_2
REMARK    2  A    between atoms: C_3  and  C_5
REMARK    3  A    between atoms: C_5  and  C_6
REMARK    4  A    between atoms: C_5  and  C_7
REMARK    5  A    between atoms: C_5  and  C_8
REMARK    6  A    between atoms: C_8  and  N_9
REMARK    7  A    between atoms: N_9  and  C_10
REMARK                            x       y       z     vdW  Elec       q    Type
REMARK                         _______ _______ _______ _____ _____    ______ ____
ROOT
ATOM      1  C   UNL     1       4.424   4.580  18.733  0.00  0.00    +0.000 C 
ATOM      2  C   UNL     1       4.201   6.006  18.203  0.00  0.00    +0.000 C 
ATOM      3  C   UNL     1       2.860   6.587  18.642  0.00  0.00    +0.000 C 
ATOM      4  C   UNL     1       2.743   6.753  20.172  0.00  0.00    +0.000 C 
ATOM      5  C   UNL     1       1.446   7.463  20.533  0.00  0.00    +0.000 C 
ATOM      6  O   UNL     1       1.384   8.740  19.898  0.00  0.00    +0.000 OA
ATOM      7  C   UNL     1       1.391   8.628  18.475  0.00  0.00    +0.000 C 
ATOM      8  C   UNL     1       2.681   7.974  17.996  0.00  0.00    +0.000 C 
ATOM      9  O   UNL     1       1.801   5.764  18.120  0.00  0.00    +0.000 OA
ATOM     10  C   UNL     1       1.913   4.430  18.402  0.00  0.00    +0.000 A 
ATOM     11  C   UNL     1       0.715   3.714  18.355  0.00  0.00    +0.000 A 
ATOM     12  C   UNL     1       0.683   2.382  18.751  0.00  0.00    +0.000 A 
ATOM     13  C   UNL     1       1.851   1.771  19.203  0.00  0.00    +0.000 A 
ATOM     14  C   UNL     1       3.059   2.476  19.202  0.00  0.00    +0.000 A 
ATOM     15  C   UNL     1       3.117   3.808  18.756  0.00  0.00    +0.000 A 
ENDROOT
BRANCH   1  16
ATOM     16  N   UNL     1       5.455   3.896  17.914  0.00  0.00    +0.000 NA
ATOM     17  H   UNL     1       6.348   4.361  18.055  0.00  0.00    +0.000 HD
BRANCH  16  18
ATOM     18  C   UNL     1       5.122   3.902  16.479  0.00  0.00    +0.000 C 
BRANCH  18  19
ATOM     19  C   UNL     1       6.025   4.800  15.586  0.00  0.00    +0.000 C 
ATOM     20  C   UNL     1       5.201   5.964  15.002  0.00  0.00    +0.000 C 
ATOM     21  C   UNL     1       6.660   3.983  14.453  0.00  0.00    +0.000 C 
BRANCH  19  24
ATOM     22  C   UNL     1       7.987   7.304  17.722  0.00  0.00    +0.000 C 
ATOM     23  N   UNL     1       7.017   6.689  16.852  0.00  0.00    +0.000 N 
ATOM     24  C   UNL     1       7.134   5.359  16.505  0.00  0.00    +0.000 C 
ATOM     25  O   UNL     1       8.076   4.678  16.900  0.00  0.00    +0.000 OA
ATOM     26  H   UNL     1       6.226   7.233  16.537  0.00  0.00    +0.000 HD
ENDBRANCH  19  24
ENDBRANCH  18  19
ENDBRANCH  16  18
ENDBRANCH   1  16
TORSDOF 4
ENDMDL
MODEL 9
REMARK VINA RESULT:      -7.2      2.896      5.075
REMARK  Name = 
REMARK  7 active torsions:
REMARK  status: ('A' for Active; 'I' for Inactive)
REMARK    1  A    between atoms: C_1  and  N_2
REMARK    2  A    between atoms: C_3  and  C_5
REMARK    3  A    between atoms: C_5  and  C_6
REMARK    4  A    between atoms: C_5  and  C_7
REMARK    5  A    between atoms: C_5  and  C_8
REMARK    6  A    between atoms: C_8  and  N_9
REMARK    7  A    between atoms: N_9  and  C_10
REMARK                            x       y       z     vdW  Elec       q    Type
REMARK                         _______ _______ _______ _____ _____    ______ ____
ROOT
ATOM      1  C   UNL     1       5.636   4.965  15.597  0.00  0.00    +0.000 C 
ATOM      2  C   UNL     1       4.845   3.705  15.987  0.00  0.00    +0.000 C 
ATOM      3  C   UNL     1       4.287   3.784  17.405  0.00  0.00    +0.000 C 
ATOM      4  C   UNL     1       3.258   4.921  17.589  0.00  0.00    +0.000 C 
ATOM      5  C   UNL     1       2.638   4.859  18.977  0.00  0.00    +0.000 C 
ATOM      6  O   UNL     1       2.010   3.595  19.186  0.00  0.00    +0.000 OA
ATOM      7  C   UNL     1       2.945   2.519  19.122  0.00  0.00    +0.000 C 
ATOM      8  C   UNL     1       3.591   2.452  17.744  0.00  0.00    +0.000 C 
ATOM      9  O   UNL     1       5.381   3.911  18.332  0.00  0.00    +0.000 OA
ATOM     10  C   UNL     1       6.259   4.922  18.056  0.00  0.00    +0.000 A 
ATOM     11  C   UNL     1       7.002   5.374  19.149  0.00  0.00    +0.000 A 
ATOM     12  C   UNL     1       7.828   6.484  19.019  0.00  0.00    +0.000 A 
ATOM     13  C   UNL     1       7.902   7.147  17.796  0.00  0.00    +0.000 A 
ATOM     14  C   UNL     1       7.194   6.663  16.690  0.00  0.00    +0.000 A 
ATOM     15  C   UNL     1       6.395   5.511  16.792  0.00  0.00    +0.000 A 
ENDROOT
BRANCH   1  16
ATOM     16  N   UNL     1       6.540   4.658  14.462  0.00  0.00    +0.000 NA
ATOM     17  H   UNL     1       6.532   5.441  13.814  0.00  0.00    +0.000 HD
BRANCH  16  18
ATOM     18  C   UNL     1       6.144   3.431  13.749  0.00  0.00    +0.000 C 
BRANCH  18  19
ATOM     19  C   UNL     1       6.125   3.534  12.197  0.00  0.00    +0.000 C 
ATOM     20  C   UNL     1       7.052   4.675  11.732  0.00  0.00    +0.000 C 
ATOM     21  C   UNL     1       4.700   3.769  11.682  0.00  0.00    +0.000 C 
BRANCH  19  24
ATOM     22  C   UNL     1       6.164  -0.175  11.236  0.00  0.00    +0.000 C 
ATOM     23  N   UNL     1       5.777   1.123  11.728  0.00  0.00    +0.000 N 
ATOM     24  C   UNL     1       6.655   2.185  11.662  0.00  0.00    +0.000 C 
ATOM     25  O   UNL     1       7.790   2.047  11.215  0.00  0.00    +0.000 OA
ATOM     26  H   UNL     1       4.839   1.255  12.080  0.00  0.00    +0.000 HD
ENDBRANCH  19  24
ENDBRANCH  18  19
ENDBRANCH  16  18
ENDBRANCH   1  16
TORSDOF 4
ENDMDL
