MODEL 1
REMARK VINA RESULT:      -7.7      0.000      0.000
REMARK  Name = 
REMARK  5 active torsions:
REMARK  status: ('A' for Active; 'I' for Inactive)
REMARK    1  A    between atoms: C_1  and  O_2
REMARK    2  A    between atoms: O_2  and  C_3
REMARK    3  A    between atoms: C_6  and  N_7
REMARK    4  A    between atoms: N_7  and  C_8
REMARK    5  A    between atoms: N_16  and  C_17
REMARK                            x       y       z     vdW  Elec       q    Type
REMARK                         _______ _______ _______ _____ _____    ______ ____
ROOT
ATOM      1  C   UNL     1       1.509   9.144  19.636  0.00  0.00    +0.000 C 
ATOM      2  C   UNL     1       1.567   9.495  18.137  0.00  0.00    +0.000 C 
ATOM      3  C   UNL     1       2.621   8.561  17.500  0.00  0.00    +0.000 C 
ATOM      4  C   UNL     1       2.691   7.454  18.481  0.00  0.00    +0.000 A 
ATOM      5  C   UNL     1       2.094   7.771  19.620  0.00  0.00    +0.000 A 
ATOM      6  N   UNL     1       1.980   6.883  20.626  0.00  0.00    +0.000 N 
ATOM      7  C   UNL     1       2.444   5.603  20.561  0.00  0.00    +0.000 A 
ATOM      8  O   UNL     1       2.187   4.886  21.522  0.00  0.00    +0.000 OA
ATOM      9  N   UNL     1       3.142   5.242  19.405  0.00  0.00    +0.000 N 
ATOM     10  C   UNL     1       3.273   6.116  18.310  0.00  0.00    +0.000 A 
ATOM     11  O   UNL     1       3.817   5.848  17.243  0.00  0.00    +0.000 OA
ATOM     12  H   UNL     1       1.442   7.132  21.452  0.00  0.00    +0.000 HD
ENDROOT
BRANCH   9  13
ATOM     13  C   UNL     1       3.725   3.885  19.242  0.00  0.00    +0.000 C 
ATOM     14  C   UNL     1       3.251   2.834  20.259  0.00  0.00    +0.000 C 
ATOM     15  C   UNL     1       1.918   2.173  19.937  0.00  0.00    +0.000 C 
ATOM     16  C   UNL     1       1.765   1.749  18.475  0.00  0.00    +0.000 C 
ATOM     17  C   UNL     1       2.355   2.685  17.418  0.00  0.00    +0.000 C 
ATOM     18  C   UNL     1       3.680   3.321  17.815  0.00  0.00    +0.000 C 
ENDBRANCH   9  13
BRANCH   1  19
ATOM     19  N   UNL     1       0.143   9.039  20.133  0.00  0.00    +0.000 N 
ATOM     20  H   UNL     1      -0.518   8.756  19.414  0.00  0.00    +0.000 HD
BRANCH  19  24
ATOM     21  C   UNL     1      -1.666  11.820  22.753  0.00  0.00    +0.000 A 
ATOM     22  C   UNL     1      -1.560  12.075  21.389  0.00  0.00    +0.000 A 
ATOM     23  C   UNL     1      -0.950  11.145  20.537  0.00  0.00    +0.000 A 
ATOM     24  C   UNL     1      -0.386   9.960  21.033  0.00  0.00    +0.000 A 
ATOM     25  C   UNL     1      -0.503   9.720  22.405  0.00  0.00    +0.000 A 
ATOM     26  C   UNL     1      -1.131  10.639  23.260  0.00  0.00    +0.000 A 
BRANCH  21  28
ATOM     27  C   UNL     1      -3.675  12.973  23.228  0.00  0.00    +0.000 C 
ATOM     28  O   UNL     1      -2.282  12.794  23.482  0.00  0.00    +0.000 OA
ENDBRANCH  21  28
ENDBRANCH  19  24
ENDBRANCH   1  19
TORSDOF 4
ENDMDL
MODEL 2
REMARK VINA RESULT:      -7.7      0.538      1.090
REMARK  Name = 
REMARK  5 active torsions:
REMARK  status: ('A' for Active; 'I' for Inactive)
REMARK    1  A    between atoms: C_1  and  O_2
REMARK    2  A    between atoms: O_2  and  C_3
REMARK    3  A    between atoms: C_6  and  N_7
REMARK    4  A    between atoms: N_7  and  C_8
REMARK    5  A    between atoms: N_16  and  C_17
REMARK                            x       y       z     vdW  Elec       q    Type
REMARK                         _______ _______ _______ _____ _____    ______ ____
ROOT
ATOM      1  C   UNL     1       1.549   9.123  19.606  0.00  0.00    +0.000 C 
ATOM      2  C   UNL     1       1.627   9.465  18.106  0.00  0.00    +0.000 C 
ATOM      3  C   UNL     1       2.680   8.519  17.485  0.00  0.00    +0.000 C 
ATOM      4  C   UNL     1       2.731   7.417  18.473  0.00  0.00    +0.000 A 
ATOM      5  C   UNL     1       2.124   7.745  19.603  0.00  0.00    +0.000 A 
ATOM      6  N   UNL     1       1.992   6.865  20.614  0.00  0.00    +0.000 N 
ATOM      7  C   UNL     1       2.447   5.580  20.561  0.00  0.00    +0.000 A 
ATOM      8  O   UNL     1       2.174   4.872  21.524  0.00  0.00    +0.000 OA
ATOM      9  N   UNL     1       3.154   5.208  19.415  0.00  0.00    +0.000 N 
ATOM     10  C   UNL     1       3.304   6.074  18.316  0.00  0.00    +0.000 A 
ATOM     11  O   UNL     1       3.857   5.795  17.256  0.00  0.00    +0.000 OA
ATOM     12  H   UNL     1       1.448   7.122  21.432  0.00  0.00    +0.000 HD
ENDROOT
BRANCH   9  13
ATOM     13  C   UNL     1       3.729   3.845  19.266  0.00  0.00    +0.000 C 
ATOM     14  C   UNL     1       3.234   2.803  20.282  0.00  0.00    +0.000 C 
ATOM     15  C   UNL     1       1.900   2.151  19.948  0.00  0.00    +0.000 C 
ATOM     16  C   UNL     1       1.760   1.720  18.487  0.00  0.00    +0.000 C 
ATOM     17  C   UNL     1       2.370   2.646  17.432  0.00  0.00    +0.000 C 
ATOM     18  C   UNL     1       3.695   3.273  17.841  0.00  0.00    +0.000 C 
ENDBRANCH   9  13
BRANCH   1  19
ATOM     19  N   UNL     1       0.178   9.032  20.089  0.00  0.00    +0.000 N 
ATOM     20  H   UNL     1      -0.466   8.680  19.385  0.00  0.00    +0.000 HD
BRANCH  19  24
ATOM     21  C   UNL     1      -1.335  12.001  22.690  0.00  0.00    +0.000 A 
ATOM     22  C   UNL     1      -1.028  10.724  23.151  0.00  0.00    +0.000 A 
ATOM     23  C   UNL     1      -0.534   9.751  22.272  0.00  0.00    +0.000 A 
ATOM     24  C   UNL     1      -0.383  10.012  20.903  0.00  0.00    +0.000 A 
ATOM     25  C   UNL     1      -0.695  11.300  20.458  0.00  0.00    +0.000 A 
ATOM     26  C   UNL     1      -1.171  12.285  21.337  0.00  0.00    +0.000 A 
BRANCH  21  28
ATOM     27  C   UNL     1      -1.277  14.191  23.580  0.00  0.00    +0.000 C 
ATOM     28  O   UNL     1      -1.803  12.865  23.635  0.00  0.00    +0.000 OA
ENDBRANCH  21  28
ENDBRANCH  19  24
ENDBRANCH   1  19
TORSDOF 4
ENDMDL
MODEL 3
REMARK VINA RESULT:      -7.6      2.336      4.031
REMARK  Name = 
REMARK  5 active torsions:
REMARK  status: ('A' for Active; 'I' for Inactive)
REMARK    1  A    between atoms: C_1  and  O_2
REMARK    2  A    between atoms: O_2  and  C_3
REMARK    3  A    between atoms: C_6  and  N_7
REMARK    4  A    between atoms: N_7  and  C_8
REMARK    5  A    between atoms: N_16  and  C_17
REMARK                            x       y       z     vdW  Elec       q    Type
REMARK                         _______ _______ _______ _____ _____    ______ ____
ROOT
ATOM      1  C   UNL     1       1.657   6.262  19.948  0.00  0.00    +0.000 C 
ATOM      2  C   UNL     1       1.549   5.187  21.047  0.00  0.00    +0.000 C 
ATOM      3  C   UNL     1       2.192   3.901  20.479  0.00  0.00    +0.000 C 
ATOM      4  C   UNL     1       3.048   4.432  19.394  0.00  0.00    +0.000 A 
ATOM      5  C   UNL     1       2.758   5.694  19.116  0.00  0.00    +0.000 A 
ATOM      6  N   UNL     1       3.463   6.395  18.207  0.00  0.00    +0.000 N 
ATOM      7  C   UNL     1       4.524   5.887  17.518  0.00  0.00    +0.000 A 
ATOM      8  O   UNL     1       5.121   6.673  16.791  0.00  0.00    +0.000 OA
ATOM      9  N   UNL     1       4.825   4.538  17.727  0.00  0.00    +0.000 N 
ATOM     10  C   UNL     1       4.142   3.761  18.680  0.00  0.00    +0.000 A 
ATOM     11  O   UNL     1       4.391   2.592  18.961  0.00  0.00    +0.000 OA
ATOM     12  H   UNL     1       3.269   7.384  18.080  0.00  0.00    +0.000 HD
ENDROOT
BRANCH   9  13
ATOM     13  C   UNL     1       5.936   3.869  17.001  0.00  0.00    +0.000 C 
ATOM     14  C   UNL     1       5.583   3.330  15.605  0.00  0.00    +0.000 C 
ATOM     15  C   UNL     1       5.622   4.356  14.482  0.00  0.00    +0.000 C 
ATOM     16  C   UNL     1       6.846   5.274  14.512  0.00  0.00    +0.000 C 
ATOM     17  C   UNL     1       7.340   5.723  15.889  0.00  0.00    +0.000 C 
ATOM     18  C   UNL     1       7.258   4.650  16.964  0.00  0.00    +0.000 C 
ENDBRANCH   9  13
BRANCH   1  19
ATOM     19  N   UNL     1       2.107   7.547  20.465  0.00  0.00    +0.000 N 
ATOM     20  H   UNL     1       2.792   7.455  21.211  0.00  0.00    +0.000 HD
BRANCH  19  24
ATOM     21  C   UNL     1      -0.397  10.875  21.187  0.00  0.00    +0.000 A 
ATOM     22  C   UNL     1      -0.033  10.009  22.213  0.00  0.00    +0.000 A 
ATOM     23  C   UNL     1       0.792   8.907  21.953  0.00  0.00    +0.000 A 
ATOM     24  C   UNL     1       1.231   8.613  20.655  0.00  0.00    +0.000 A 
ATOM     25  C   UNL     1       0.857   9.494  19.637  0.00  0.00    +0.000 A 
ATOM     26  C   UNL     1       0.047  10.612  19.894  0.00  0.00    +0.000 A 
BRANCH  21  28
ATOM     27  C   UNL     1      -1.282  12.164  22.961  0.00  0.00    +0.000 C 
ATOM     28  O   UNL     1      -1.199  11.914  21.558  0.00  0.00    +0.000 OA
ENDBRANCH  21  28
ENDBRANCH  19  24
ENDBRANCH   1  19
TORSDOF 4
ENDMDL
MODEL 4
REMARK VINA RESULT:      -7.6      2.511      4.299
REMARK  Name = 
REMARK  5 active torsions:
REMARK  status: ('A' for Active; 'I' for Inactive)
REMARK    1  A    between atoms: C_1  and  O_2
REMARK    2  A    between atoms: O_2  and  C_3
REMARK    3  A    between atoms: C_6  and  N_7
REMARK    4  A    between atoms: N_7  and  C_8
REMARK    5  A    between atoms: N_16  and  C_17
REMARK                            x       y       z     vdW  Elec       q    Type
REMARK                         _______ _______ _______ _____ _____    ______ ____
ROOT
ATOM      1  C   UNL     1       1.712   6.144  20.043  0.00  0.00    +0.000 C 
ATOM      2  C   UNL     1       1.723   5.121  21.195  0.00  0.00    +0.000 C 
ATOM      3  C   UNL     1       2.395   3.840  20.650  0.00  0.00    +0.000 C 
ATOM      4  C   UNL     1       3.159   4.356  19.491  0.00  0.00    +0.000 A 
ATOM      5  C   UNL     1       2.791   5.588  19.173  0.00  0.00    +0.000 A 
ATOM      6  N   UNL     1       3.405   6.276  18.192  0.00  0.00    +0.000 N 
ATOM      7  C   UNL     1       4.449   5.785  17.464  0.00  0.00    +0.000 A 
ATOM      8  O   UNL     1       4.962   6.561  16.666  0.00  0.00    +0.000 OA
ATOM      9  N   UNL     1       4.829   4.464  17.717  0.00  0.00    +0.000 N 
ATOM     10  C   UNL     1       4.242   3.703  18.745  0.00  0.00    +0.000 A 
ATOM     11  O   UNL     1       4.565   2.563  19.064  0.00  0.00    +0.000 OA
ATOM     12  H   UNL     1       3.155   7.247  18.030  0.00  0.00    +0.000 HD
ENDROOT
BRANCH   9  13
ATOM     13  C   UNL     1       5.927   3.813  16.956  0.00  0.00    +0.000 C 
ATOM     14  C   UNL     1       5.561   3.339  15.541  0.00  0.00    +0.000 C 
ATOM     15  C   UNL     1       5.608   4.412  14.463  0.00  0.00    +0.000 C 
ATOM     16  C   UNL     1       6.843   5.312  14.526  0.00  0.00    +0.000 C 
ATOM     17  C   UNL     1       7.349   5.695  15.918  0.00  0.00    +0.000 C 
ATOM     18  C   UNL     1       7.259   4.578  16.947  0.00  0.00    +0.000 C 
ENDBRANCH   9  13
BRANCH   1  19
ATOM     19  N   UNL     1       2.127   7.473  20.471  0.00  0.00    +0.000 N 
ATOM     20  H   UNL     1       2.548   7.476  21.397  0.00  0.00    +0.000 HD
BRANCH  19  24
ATOM     21  C   UNL     1      -0.313  10.792  19.523  0.00  0.00    +0.000 A 
ATOM     22  C   UNL     1       0.615  10.294  18.614  0.00  0.00    +0.000 A 
ATOM     23  C   UNL     1       1.420   9.197  18.948  0.00  0.00    +0.000 A 
ATOM     24  C   UNL     1       1.355   8.603  20.217  0.00  0.00    +0.000 A 
ATOM     25  C   UNL     1       0.417   9.116  21.117  0.00  0.00    +0.000 A 
ATOM     26  C   UNL     1      -0.407  10.201  20.780  0.00  0.00    +0.000 A 
BRANCH  21  28
ATOM     27  C   UNL     1      -1.772  11.657  17.875  0.00  0.00    +0.000 C 
ATOM     28  O   UNL     1      -1.043  11.858  19.087  0.00  0.00    +0.000 OA
ENDBRANCH  21  28
ENDBRANCH  19  24
ENDBRANCH   1  19
TORSDOF 4
ENDMDL
MODEL 5
REMARK VINA RESULT:      -7.5      5.614      8.772
REMARK  Name = 
REMARK  5 active torsions:
REMARK  status: ('A' for Active; 'I' for Inactive)
REMARK    1  A    between atoms: C_1  and  O_2
REMARK    2  A    between atoms: O_2  and  C_3
REMARK    3  A    between atoms: C_6  and  N_7
REMARK    4  A    between atoms: N_7  and  C_8
REMARK    5  A    between atoms: N_16  and  C_17
REMARK                            x       y       z     vdW  Elec       q    Type
REMARK                         _______ _______ _______ _____ _____    ______ ____
ROOT
ATOM      1  C   UNL     1       5.872   6.482  17.002  0.00  0.00    +0.000 C 
ATOM      2  C   UNL     1       7.233   5.830  17.311  0.00  0.00    +0.000 C 
ATOM      3  C   UNL     1       6.990   4.797  18.435  0.00  0.00    +0.000 C 
ATOM      4  C   UNL     1       5.535   4.549  18.322  0.00  0.00    +0.000 A 
ATOM      5  C   UNL     1       4.943   5.452  17.553  0.00  0.00    +0.000 A 
ATOM      6  N   UNL     1       3.631   5.375  17.258  0.00  0.00    +0.000 N 
ATOM      7  C   UNL     1       2.815   4.376  17.699  0.00  0.00    +0.000 A 
ATOM      8  O   UNL     1       1.665   4.392  17.274  0.00  0.00    +0.000 OA
ATOM      9  N   UNL     1       3.378   3.438  18.569  0.00  0.00    +0.000 N 
ATOM     10  C   UNL     1       4.746   3.451  18.895  0.00  0.00    +0.000 A 
ATOM     11  O   UNL     1       5.321   2.627  19.600  0.00  0.00    +0.000 OA
ATOM     12  H   UNL     1       3.229   6.034  16.598  0.00  0.00    +0.000 HD
ENDROOT
BRANCH   9  13
ATOM     13  C   UNL     1       2.571   2.329  19.143  0.00  0.00    +0.000 C 
ATOM     14  C   UNL     1       3.054   1.793  20.500  0.00  0.00    +0.000 C 
ATOM     15  C   UNL     1       2.604   2.594  21.714  0.00  0.00    +0.000 C 
ATOM     16  C   UNL     1       1.129   3.000  21.686  0.00  0.00    +0.000 C 
ATOM     17  C   UNL     1       0.547   3.400  20.328  0.00  0.00    +0.000 C 
ATOM     18  C   UNL     1       1.054   2.566  19.160  0.00  0.00    +0.000 C 
ENDBRANCH   9  13
BRANCH   1  19
ATOM     19  N   UNL     1       5.617   6.591  15.572  0.00  0.00    +0.000 N 
ATOM     20  H   UNL     1       4.694   6.968  15.363  0.00  0.00    +0.000 HD
BRANCH  19  24
ATOM     21  C   UNL     1       6.677   3.672  12.705  0.00  0.00    +0.000 A 
ATOM     22  C   UNL     1       5.445   3.637  13.350  0.00  0.00    +0.000 A 
ATOM     23  C   UNL     1       5.114   4.609  14.304  0.00  0.00    +0.000 A 
ATOM     24  C   UNL     1       6.024   5.609  14.672  0.00  0.00    +0.000 A 
ATOM     25  C   UNL     1       7.256   5.630  14.013  0.00  0.00    +0.000 A 
ATOM     26  C   UNL     1       7.585   4.671  13.043  0.00  0.00    +0.000 A 
BRANCH  21  28
ATOM     27  C   UNL     1       5.739   1.905  11.443  0.00  0.00    +0.000 C 
ATOM     28  O   UNL     1       6.887   2.678  11.795  0.00  0.00    +0.000 OA
ENDBRANCH  21  28
ENDBRANCH  19  24
ENDBRANCH   1  19
TORSDOF 4
ENDMDL
MODEL 6
REMARK VINA RESULT:      -7.4      3.415      4.481
REMARK  Name = 
REMARK  5 active torsions:
REMARK  status: ('A' for Active; 'I' for Inactive)
REMARK    1  A    between atoms: C_1  and  O_2
REMARK    2  A    between atoms: O_2  and  C_3
REMARK    3  A    between atoms: C_6  and  N_7
REMARK    4  A    between atoms: N_7  and  C_8
REMARK    5  A    between atoms: N_16  and  C_17
REMARK                            x       y       z     vdW  Elec       q    Type
REMARK                         _______ _______ _______ _____ _____    ______ ____
ROOT
ATOM      1  C   UNL     1       0.322  11.111  18.886  0.00  0.00    +0.000 C 
ATOM      2  C   UNL     1       0.035  11.391  20.374  0.00  0.00    +0.000 C 
ATOM      3  C   UNL     1       0.082  10.029  21.103  0.00  0.00    +0.000 C 
ATOM      4  C   UNL     1       0.873   9.200  20.166  0.00  0.00    +0.000 A 
ATOM      5  C   UNL     1       0.999   9.784  18.983  0.00  0.00    +0.000 A 
ATOM      6  N   UNL     1       1.740   9.235  18.002  0.00  0.00    +0.000 N 
ATOM      7  C   UNL     1       2.424   8.063  18.137  0.00  0.00    +0.000 A 
ATOM      8  O   UNL     1       3.125   7.735  17.186  0.00  0.00    +0.000 OA
ATOM      9  N   UNL     1       2.267   7.375  19.343  0.00  0.00    +0.000 N 
ATOM     10  C   UNL     1       1.527   7.909  20.415  0.00  0.00    +0.000 A 
ATOM     11  O   UNL     1       1.396   7.392  21.521  0.00  0.00    +0.000 OA
ATOM     12  H   UNL     1       1.884   9.749  17.138  0.00  0.00    +0.000 HD
ENDROOT
BRANCH   9  13
ATOM     13  C   UNL     1       2.934   6.069  19.586  0.00  0.00    +0.000 C 
ATOM     14  C   UNL     1       2.262   5.167  20.633  0.00  0.00    +0.000 C 
ATOM     15  C   UNL     1       1.089   4.341  20.124  0.00  0.00    +0.000 C 
ATOM     16  C   UNL     1       1.337   3.664  18.775  0.00  0.00    +0.000 C 
ATOM     17  C   UNL     1       2.136   4.457  17.739  0.00  0.00    +0.000 C 
ATOM     18  C   UNL     1       3.283   5.270  18.322  0.00  0.00    +0.000 C 
ENDBRANCH   9  13
BRANCH   1  19
ATOM     19  N   UNL     1       1.273  12.054  18.313  0.00  0.00    +0.000 N 
ATOM     20  H   UNL     1       2.231  11.710  18.333  0.00  0.00    +0.000 HD
BRANCH  19  24
ATOM     21  C   UNL     1       1.107  16.250  18.798  0.00  0.00    +0.000 A 
ATOM     22  C   UNL     1       2.321  15.570  18.794  0.00  0.00    +0.000 A 
ATOM     23  C   UNL     1       2.356  14.178  18.639  0.00  0.00    +0.000 A 
ATOM     24  C   UNL     1       1.178  13.425  18.536  0.00  0.00    +0.000 A 
ATOM     25  C   UNL     1      -0.032  14.124  18.541  0.00  0.00    +0.000 A 
ATOM     26  C   UNL     1      -0.073  15.520  18.675  0.00  0.00    +0.000 A 
BRANCH  21  28
ATOM     27  C   UNL     1       0.479  18.383  17.996  0.00  0.00    +0.000 C 
ATOM     28  O   UNL     1       1.196  17.601  18.951  0.00  0.00    +0.000 OA
ENDBRANCH  21  28
ENDBRANCH  19  24
ENDBRANCH   1  19
TORSDOF 4
ENDMDL
MODEL 7
REMARK VINA RESULT:      -7.4      1.914      8.531
REMARK  Name = 
REMARK  5 active torsions:
REMARK  status: ('A' for Active; 'I' for Inactive)
REMARK    1  A    between atoms: C_1  and  O_2
REMARK    2  A    between atoms: O_2  and  C_3
REMARK    3  A    between atoms: C_6  and  N_7
REMARK    4  A    between atoms: N_7  and  C_8
REMARK    5  A    between atoms: N_16  and  C_17
REMARK                            x       y       z     vdW  Elec       q    Type
REMARK                         _______ _______ _______ _____ _____    ______ ____
ROOT
ATOM      1  C   UNL     1       1.372   8.185  19.374  0.00  0.00    +0.000 C 
ATOM      2  C   UNL     1       2.128   8.844  18.204  0.00  0.00    +0.000 C 
ATOM      3  C   UNL     1       1.574  10.281  18.067  0.00  0.00    +0.000 C 
ATOM      4  C   UNL     1       0.982  10.516  19.404  0.00  0.00    +0.000 A 
ATOM      5  C   UNL     1       0.878   9.393  20.098  0.00  0.00    +0.000 A 
ATOM      6  N   UNL     1       0.429   9.388  21.368  0.00  0.00    +0.000 N 
ATOM      7  C   UNL     1       0.065  10.514  22.044  0.00  0.00    +0.000 A 
ATOM      8  O   UNL     1      -0.239  10.361  23.222  0.00  0.00    +0.000 OA
ATOM      9  N   UNL     1       0.092  11.716  21.332  0.00  0.00    +0.000 N 
ATOM     10  C   UNL     1       0.573  11.790  20.012  0.00  0.00    +0.000 A 
ATOM     11  O   UNL     1       0.684  12.815  19.347  0.00  0.00    +0.000 OA
ATOM     12  H   UNL     1       0.442   8.522  21.898  0.00  0.00    +0.000 HD
ENDROOT
BRANCH   9  13
ATOM     13  C   UNL     1      -0.322  12.999  21.957  0.00  0.00    +0.000 C 
ATOM     14  C   UNL     1      -0.878  14.057  20.991  0.00  0.00    +0.000 C 
ATOM     15  C   UNL     1      -2.347  13.896  20.624  0.00  0.00    +0.000 C 
ATOM     16  C   UNL     1      -3.260  13.586  21.812  0.00  0.00    +0.000 C 
ATOM     17  C   UNL     1      -2.701  12.654  22.889  0.00  0.00    +0.000 C 
ATOM     18  C   UNL     1      -1.224  12.863  23.192  0.00  0.00    +0.000 C 
ENDBRANCH   9  13
BRANCH   1  19
ATOM     19  N   UNL     1       2.258   7.458  20.274  0.00  0.00    +0.000 N 
ATOM     20  H   UNL     1       3.081   7.996  20.536  0.00  0.00    +0.000 HD
BRANCH  19  24
ATOM     21  C   UNL     1       3.251   3.367  19.895  0.00  0.00    +0.000 A 
ATOM     22  C   UNL     1       4.017   4.356  19.285  0.00  0.00    +0.000 A 
ATOM     23  C   UNL     1       3.667   5.707  19.415  0.00  0.00    +0.000 A 
ATOM     24  C   UNL     1       2.518   6.100  20.115  0.00  0.00    +0.000 A 
ATOM     25  C   UNL     1       1.762   5.093  20.722  0.00  0.00    +0.000 A 
ATOM     26  C   UNL     1       2.118   3.740  20.612  0.00  0.00    +0.000 A 
BRANCH  21  28
ATOM     27  C   UNL     1       3.519   1.568  18.384  0.00  0.00    +0.000 C 
ATOM     28  O   UNL     1       3.688   2.090  19.702  0.00  0.00    +0.000 OA
ENDBRANCH  21  28
ENDBRANCH  19  24
ENDBRANCH   1  19
TORSDOF 4
ENDMDL
MODEL 8
REMARK VINA RESULT:      -7.4      2.883      4.168
REMARK  Name = 
REMARK  5 active torsions:
REMARK  status: ('A' for Active; 'I' for Inactive)
REMARK    1  A    between atoms: C_1  and  O_2
REMARK    2  A    between atoms: O_2  and  C_3
REMARK    3  A    between atoms: C_6  and  N_7
REMARK    4  A    between atoms: N_7  and  C_8
REMARK    5  A    between atoms: N_16  and  C_17
REMARK                            x       y       z     vdW  Elec       q    Type
REMARK                         _______ _______ _______ _____ _____    ______ ____
ROOT
ATOM      1  C   UNL     1       1.373   9.036  18.850  0.00  0.00    +0.000 C 
ATOM      2  C   UNL     1       1.112   8.842  20.355  0.00  0.00    +0.000 C 
ATOM      3  C   UNL     1       1.473   7.376  20.687  0.00  0.00    +0.000 C 
ATOM      4  C   UNL     1       2.367   7.013  19.563  0.00  0.00    +0.000 A 
ATOM      5  C   UNL     1       2.310   7.904  18.585  0.00  0.00    +0.000 A 
ATOM      6  N   UNL     1       3.095   7.806  17.495  0.00  0.00    +0.000 N 
ATOM      7  C   UNL     1       4.009   6.811  17.310  0.00  0.00    +0.000 A 
ATOM      8  O   UNL     1       4.713   6.904  16.310  0.00  0.00    +0.000 OA
ATOM      9  N   UNL     1       4.058   5.809  18.283  0.00  0.00    +0.000 N 
ATOM     10  C   UNL     1       3.282   5.869  19.455  0.00  0.00    +0.000 A 
ATOM     11  O   UNL     1       3.316   5.060  20.378  0.00  0.00    +0.000 OA
ATOM     12  H   UNL     1       3.086   8.551  16.805  0.00  0.00    +0.000 HD
ENDROOT
BRANCH   9  13
ATOM     13  C   UNL     1       4.989   4.656  18.164  0.00  0.00    +0.000 C 
ATOM     14  C   UNL     1       4.801   3.780  16.916  0.00  0.00    +0.000 C 
ATOM     15  C   UNL     1       5.467   4.299  15.650  0.00  0.00    +0.000 C 
ATOM     16  C   UNL     1       6.896   4.804  15.855  0.00  0.00    +0.000 C 
ATOM     17  C   UNL     1       7.184   5.556  17.156  0.00  0.00    +0.000 C 
ATOM     18  C   UNL     1       6.473   4.989  18.376  0.00  0.00    +0.000 C 
ENDBRANCH   9  13
BRANCH   1  19
ATOM     19  N   UNL     1       2.081  10.276  18.560  0.00  0.00    +0.000 N 
ATOM     20  H   UNL     1       3.034  10.279  18.915  0.00  0.00    +0.000 HD
BRANCH  19  24
ATOM     21  C   UNL     1       0.290  14.104  18.629  0.00  0.00    +0.000 A 
ATOM     22  C   UNL     1       1.673  13.953  18.621  0.00  0.00    +0.000 A 
ATOM     23  C   UNL     1       2.249  12.676  18.605  0.00  0.00    +0.000 A 
ATOM     24  C   UNL     1       1.459  11.518  18.649  0.00  0.00    +0.000 A 
ATOM     25  C   UNL     1       0.072  11.688  18.657  0.00  0.00    +0.000 A 
ATOM     26  C   UNL     1      -0.511  12.965  18.652  0.00  0.00    +0.000 A 
BRANCH  21  28
ATOM     27  C   UNL     1       0.814  16.383  18.980  0.00  0.00    +0.000 C 
ATOM     28  O   UNL     1      -0.157  15.392  18.641  0.00  0.00    +0.000 OA
ENDBRANCH  21  28
ENDBRANCH  19  24
ENDBRANCH   1  19
TORSDOF 4
ENDMDL
MODEL 9
REMARK VINA RESULT:      -7.3      0.862      1.368
REMARK  Name = 
REMARK  5 active torsions:
REMARK  status: ('A' for Active; 'I' for Inactive)
REMARK    1  A    between atoms: C_1  and  O_2
REMARK    2  A    between atoms: O_2  and  C_3
REMARK    3  A    between atoms: C_6  and  N_7
REMARK    4  A    between atoms: N_7  and  C_8
REMARK    5  A    between atoms: N_16  and  C_17
REMARK                            x       y       z     vdW  Elec       q    Type
REMARK                         _______ _______ _______ _____ _____    ______ ____
ROOT
ATOM      1  C   UNL     1       1.264   9.637  20.089  0.00  0.00    +0.000 C 
ATOM      2  C   UNL     1       1.295  10.259  18.680  0.00  0.00    +0.000 C 
ATOM      3  C   UNL     1       2.284   9.418  17.841  0.00  0.00    +0.000 C 
ATOM      4  C   UNL     1       2.331   8.145  18.597  0.00  0.00    +0.000 A 
ATOM      5  C   UNL     1       1.784   8.268  19.797  0.00  0.00    +0.000 A 
ATOM      6  N   UNL     1       1.658   7.214  20.625  0.00  0.00    +0.000 N 
ATOM      7  C   UNL     1       2.059   5.950  20.306  0.00  0.00    +0.000 A 
ATOM      8  O   UNL     1       1.797   5.078  21.127  0.00  0.00    +0.000 OA
ATOM      9  N   UNL     1       2.704   5.784  19.078  0.00  0.00    +0.000 N 
ATOM     10  C   UNL     1       2.844   6.840  18.160  0.00  0.00    +0.000 A 
ATOM     11  O   UNL     1       3.343   6.754  17.041  0.00  0.00    +0.000 OA
ATOM     12  H   UNL     1       1.157   7.325  21.502  0.00  0.00    +0.000 HD
ENDROOT
BRANCH   9  13
ATOM     13  C   UNL     1       3.218   4.458  18.645  0.00  0.00    +0.000 C 
ATOM     14  C   UNL     1       3.815   3.583  19.759  0.00  0.00    +0.000 C 
ATOM     15  C   UNL     1       2.804   2.793  20.578  0.00  0.00    +0.000 C 
ATOM     16  C   UNL     1       1.724   2.101  19.744  0.00  0.00    +0.000 C 
ATOM     17  C   UNL     1       1.197   2.863  18.526  0.00  0.00    +0.000 C 
ATOM     18  C   UNL     1       2.260   3.641  17.766  0.00  0.00    +0.000 C 
ENDBRANCH   9  13
BRANCH   1  19
ATOM     19  N   UNL     1      -0.089   9.497  20.610  0.00  0.00    +0.000 N 
ATOM     20  H   UNL     1      -0.660   8.861  20.058  0.00  0.00    +0.000 HD
BRANCH  19  24
ATOM     21  C   UNL     1      -2.063  12.869  22.221  0.00  0.00    +0.000 A 
ATOM     22  C   UNL     1      -1.469  11.918  23.044  0.00  0.00    +0.000 A 
ATOM     23  C   UNL     1      -0.826  10.802  22.492  0.00  0.00    +0.000 A 
ATOM     24  C   UNL     1      -0.803  10.583  21.108  0.00  0.00    +0.000 A 
ATOM     25  C   UNL     1      -1.404  11.549  20.296  0.00  0.00    +0.000 A 
ATOM     26  C   UNL     1      -2.032  12.679  20.842  0.00  0.00    +0.000 A 
BRANCH  21  28
ATOM     27  C   UNL     1      -3.292  13.594  24.107  0.00  0.00    +0.000 C 
ATOM     28  O   UNL     1      -2.656  13.913  22.869  0.00  0.00    +0.000 OA
ENDBRANCH  21  28
ENDBRANCH  19  24
ENDBRANCH   1  19
TORSDOF 4
ENDMDL
