MODEL 1
REMARK VINA RESULT:      -8.2      0.000      0.000
REMARK  Name = 
REMARK  4 active torsions:
REMARK  status: ('A' for Active; 'I' for Inactive)
REMARK    1  A    between atoms: C_1  and  C_2
REMARK    2  A    between atoms: C_5  and  C_6
REMARK    3  A    between atoms: C_12  and  C_13
REMARK    4  A    between atoms: C_25  and  O_26
REMARK                            x       y       z     vdW  Elec       q    Type
REMARK                         _______ _______ _______ _____ _____    ______ ____
ROOT
ATOM      1  C   UNL     1       1.979   5.807  20.316  0.00  0.00    +0.000 C 
ATOM      2  O   UNL     1       2.382   5.782  21.480  0.00  0.00    +0.000 OA
ATOM      3  N   UNL     1       1.629   4.664  19.589  0.00  0.00    +0.000 N 
ATOM      4  C   UNL     1       1.470   3.391  20.291  0.00  0.00    +0.000 C 
ATOM      5  C   UNL     1       2.182   2.216  19.618  0.00  0.00    +0.000 C 
ATOM      6  C   UNL     1       1.924   2.175  18.111  0.00  0.00    +0.000 C 
ATOM      7  C   UNL     1       2.328   3.505  17.456  0.00  0.00    +0.000 C 
ATOM      8  C   UNL     1       1.521   4.630  18.116  0.00  0.00    +0.000 C 
ENDROOT
BRANCH   7   9
ATOM      9  C   UNL     1       3.818   3.709  17.529  0.00  0.00    +0.000 A 
ATOM     10  C   UNL     1       4.564   4.150  18.640  0.00  0.00    +0.000 A 
ATOM     11  C   UNL     1       5.785   4.538  18.125  0.00  0.00    +0.000 A 
ATOM     12  N   UNL     1       5.764   4.153  16.812  0.00  0.00    +0.000 N 
ATOM     13  N   UNL     1       4.589   3.617  16.443  0.00  0.00    +0.000 NA
ATOM     14  C   UNL     1       6.808   4.257  15.813  0.00  0.00    +0.000 C 
ATOM     15  C   UNL     1       7.574   5.580  15.724  0.00  0.00    +0.000 C 
ATOM     16  C   UNL     1       7.188   6.633  16.746  0.00  0.00    +0.000 C 
ATOM     17  N   UNL     1       7.513   6.196  18.084  0.00  0.00    +0.000 N 
ATOM     18  C   UNL     1       6.820   5.260  18.808  0.00  0.00    +0.000 C 
ATOM     19  O   UNL     1       7.054   5.142  20.004  0.00  0.00    +0.000 OA
ATOM     20  H   UNL     1       8.128   6.764  18.656  0.00  0.00    +0.000 HD
ENDBRANCH   7   9
BRANCH   1  25
ATOM     21  C   UNL     1       1.726  11.103  18.154  0.00  0.00    +0.000 C 
ATOM     22  C   UNL     1       1.752   9.690  18.653  0.00  0.00    +0.000 A 
ATOM     23  C   UNL     1       2.389   8.698  17.918  0.00  0.00    +0.000 A 
ATOM     24  C   UNL     1       2.404   7.402  18.420  0.00  0.00    +0.000 A 
ATOM     25  C   UNL     1       1.866   7.142  19.684  0.00  0.00    +0.000 A 
ATOM     26  C   UNL     1       1.199   8.181  20.324  0.00  0.00    +0.000 A 
ATOM     27  N   UNL     1       1.134   9.440  19.833  0.00  0.00    +0.000 NA
BRANCH  26  28
ATOM     28  O   UNL     1       0.546   8.015  21.517  0.00  0.00    +0.000 OA
ATOM     29  H   UNL     1       1.235   8.025  22.213  0.00  0.00    +0.000 HD
ENDBRANCH  26  28
ENDBRANCH   1  25
TORSDOF 3
ENDMDL
MODEL 2
REMARK VINA RESULT:      -7.7      3.969      8.893
REMARK  Name = 
REMARK  4 active torsions:
REMARK  status: ('A' for Active; 'I' for Inactive)
REMARK    1  A    between atoms: C_1  and  C_2
REMARK    2  A    between atoms: C_5  and  C_6
REMARK    3  A    between atoms: C_12  and  C_13
REMARK    4  A    between atoms: C_25  and  O_26
REMARK                            x       y       z     vdW  Elec       q    Type
REMARK                         _______ _______ _______ _____ _____    ______ ____
ROOT
ATOM      1  C   UNL     1       0.040   8.952  21.175  0.00  0.00    +0.000 C 
ATOM      2  O   UNL     1      -0.785   8.083  21.464  0.00  0.00    +0.000 OA
ATOM      3  N   UNL     1       0.073  10.221  21.763  0.00  0.00    +0.000 N 
ATOM      4  C   UNL     1      -0.722  10.473  22.965  0.00  0.00    +0.000 C 
ATOM      5  C   UNL     1      -1.538  11.767  22.911  0.00  0.00    +0.000 C 
ATOM      6  C   UNL     1      -0.706  12.949  22.410  0.00  0.00    +0.000 C 
ATOM      7  C   UNL     1      -0.091  12.635  21.037  0.00  0.00    +0.000 C 
ATOM      8  C   UNL     1       0.778  11.378  21.177  0.00  0.00    +0.000 C 
ENDROOT
BRANCH   7   9
ATOM      9  C   UNL     1      -1.160  12.515  19.984  0.00  0.00    +0.000 A 
ATOM     10  C   UNL     1      -2.551  12.645  20.163  0.00  0.00    +0.000 A 
ATOM     11  C   UNL     1      -3.115  12.087  19.033  0.00  0.00    +0.000 A 
ATOM     12  N   UNL     1      -2.066  11.827  18.194  0.00  0.00    +0.000 N 
ATOM     13  N   UNL     1      -0.874  12.114  18.742  0.00  0.00    +0.000 NA
ATOM     14  C   UNL     1      -2.084  11.297  16.845  0.00  0.00    +0.000 C 
ATOM     15  C   UNL     1      -2.991  10.095  16.569  0.00  0.00    +0.000 C 
ATOM     16  C   UNL     1      -3.827   9.619  17.743  0.00  0.00    +0.000 C 
ATOM     17  N   UNL     1      -4.787  10.627  18.134  0.00  0.00    +0.000 N 
ATOM     18  C   UNL     1      -4.500  11.776  18.823  0.00  0.00    +0.000 C 
ATOM     19  O   UNL     1      -5.422  12.433  19.290  0.00  0.00    +0.000 OA
ATOM     20  H   UNL     1      -5.773  10.394  18.142  0.00  0.00    +0.000 HD
ENDBRANCH   7   9
BRANCH   1  25
ATOM     21  C   UNL     1       3.734   7.260  17.140  0.00  0.00    +0.000 C 
ATOM     22  C   UNL     1       2.809   7.773  18.203  0.00  0.00    +0.000 A 
ATOM     23  C   UNL     1       2.083   8.940  17.997  0.00  0.00    +0.000 A 
ATOM     24  C   UNL     1       1.226   9.377  19.000  0.00  0.00    +0.000 A 
ATOM     25  C   UNL     1       1.041   8.594  20.143  0.00  0.00    +0.000 A 
ATOM     26  C   UNL     1       1.850   7.473  20.292  0.00  0.00    +0.000 A 
ATOM     27  N   UNL     1       2.723   7.053  19.348  0.00  0.00    +0.000 NA
BRANCH  26  28
ATOM     28  O   UNL     1       1.829   6.691  21.416  0.00  0.00    +0.000 OA
ATOM     29  H   UNL     1       2.738   6.702  21.778  0.00  0.00    +0.000 HD
ENDBRANCH  26  28
ENDBRANCH   1  25
TORSDOF 3
ENDMDL
MODEL 3
REMARK VINA RESULT:      -7.4      4.992      9.941
REMARK  Name = 
REMARK  4 active torsions:
REMARK  status: ('A' for Active; 'I' for Inactive)
REMARK    1  A    between atoms: C_1  and  C_2
REMARK    2  A    between atoms: C_5  and  C_6
REMARK    3  A    between atoms: C_12  and  C_13
REMARK    4  A    between atoms: C_25  and  O_26
REMARK                            x       y       z     vdW  Elec       q    Type
REMARK                         _______ _______ _______ _____ _____    ______ ____
ROOT
ATOM      1  C   UNL     1      -0.290   9.628  21.545  0.00  0.00    +0.000 C 
ATOM      2  O   UNL     1      -0.764   8.701  22.206  0.00  0.00    +0.000 OA
ATOM      3  N   UNL     1      -0.525  10.978  21.819  0.00  0.00    +0.000 N 
ATOM      4  C   UNL     1      -1.138  11.354  23.093  0.00  0.00    +0.000 C 
ATOM      5  C   UNL     1      -2.290  12.352  22.959  0.00  0.00    +0.000 C 
ATOM      6  C   UNL     1      -1.937  13.514  22.029  0.00  0.00    +0.000 C 
ATOM      7  C   UNL     1      -1.505  12.993  20.650  0.00  0.00    +0.000 C 
ATOM      8  C   UNL     1      -0.299  12.065  20.845  0.00  0.00    +0.000 C 
ENDROOT
BRANCH   7   9
ATOM      9  C   UNL     1      -2.659  12.339  19.937  0.00  0.00    +0.000 A 
ATOM     10  C   UNL     1      -2.638  11.720  18.672  0.00  0.00    +0.000 A 
ATOM     11  C   UNL     1      -3.963  11.623  18.295  0.00  0.00    +0.000 A 
ATOM     12  N   UNL     1      -4.682  12.011  19.393  0.00  0.00    +0.000 N 
ATOM     13  N   UNL     1      -3.905  12.415  20.411  0.00  0.00    +0.000 NA
ATOM     14  C   UNL     1      -6.119  12.043  19.579  0.00  0.00    +0.000 C 
ATOM     15  C   UNL     1      -6.967  12.626  18.446  0.00  0.00    +0.000 C 
ATOM     16  C   UNL     1      -6.202  13.061  17.209  0.00  0.00    +0.000 C 
ATOM     17  N   UNL     1      -5.585  11.927  16.560  0.00  0.00    +0.000 N 
ATOM     18  C   UNL     1      -4.468  11.266  17.000  0.00  0.00    +0.000 C 
ATOM     19  O   UNL     1      -3.914  10.473  16.250  0.00  0.00    +0.000 OA
ATOM     20  H   UNL     1      -5.806  11.731  15.590  0.00  0.00    +0.000 HD
ENDBRANCH   7   9
BRANCH   1  25
ATOM     21  C   UNL     1       2.912   7.840  17.147  0.00  0.00    +0.000 C 
ATOM     22  C   UNL     1       2.110   8.382  18.292  0.00  0.00    +0.000 A 
ATOM     23  C   UNL     1       1.252   9.458  18.100  0.00  0.00    +0.000 A 
ATOM     24  C   UNL     1       0.514   9.923  19.182  0.00  0.00    +0.000 A 
ATOM     25  C   UNL     1       0.578   9.249  20.405  0.00  0.00    +0.000 A 
ATOM     26  C   UNL     1       1.504   8.219  20.524  0.00  0.00    +0.000 A 
ATOM     27  N   UNL     1       2.264   7.778  19.495  0.00  0.00    +0.000 NA
BRANCH  26  28
ATOM     28  O   UNL     1       1.725   7.557  21.702  0.00  0.00    +0.000 OA
ATOM     29  H   UNL     1       2.427   8.053  22.170  0.00  0.00    +0.000 HD
ENDBRANCH  26  28
ENDBRANCH   1  25
TORSDOF 3
ENDMDL
MODEL 4
REMARK VINA RESULT:      -7.3      6.383      8.793
REMARK  Name = 
REMARK  4 active torsions:
REMARK  status: ('A' for Active; 'I' for Inactive)
REMARK    1  A    between atoms: C_1  and  C_2
REMARK    2  A    between atoms: C_5  and  C_6
REMARK    3  A    between atoms: C_12  and  C_13
REMARK    4  A    between atoms: C_25  and  O_26
REMARK                            x       y       z     vdW  Elec       q    Type
REMARK                         _______ _______ _______ _____ _____    ______ ____
ROOT
ATOM      1  C   UNL     1      -0.950  11.226  22.423  0.00  0.00    +0.000 C 
ATOM      2  O   UNL     1      -0.399  10.781  23.432  0.00  0.00    +0.000 OA
ATOM      3  N   UNL     1      -0.784  10.686  21.144  0.00  0.00    +0.000 N 
ATOM      4  C   UNL     1      -0.149   9.376  20.998  0.00  0.00    +0.000 C 
ATOM      5  C   UNL     1       0.938   9.329  19.922  0.00  0.00    +0.000 C 
ATOM      6  C   UNL     1       0.485   9.992  18.619  0.00  0.00    +0.000 C 
ATOM      7  C   UNL     1       0.035  11.438  18.875  0.00  0.00    +0.000 C 
ATOM      8  C   UNL     1      -1.108  11.411  19.899  0.00  0.00    +0.000 C 
ENDROOT
BRANCH   7   9
ATOM      9  C   UNL     1       1.199  12.297  19.295  0.00  0.00    +0.000 A 
ATOM     10  C   UNL     1       1.396  12.912  20.547  0.00  0.00    +0.000 A 
ATOM     11  C   UNL     1       2.366  13.871  20.329  0.00  0.00    +0.000 A 
ATOM     12  N   UNL     1       2.805  13.659  19.051  0.00  0.00    +0.000 N 
ATOM     13  N   UNL     1       2.131  12.684  18.420  0.00  0.00    +0.000 NA
ATOM     14  C   UNL     1       3.860  14.336  18.324  0.00  0.00    +0.000 C 
ATOM     15  C   UNL     1       3.910  15.864  18.407  0.00  0.00    +0.000 C 
ATOM     16  C   UNL     1       2.868  16.508  19.303  0.00  0.00    +0.000 C 
ATOM     17  N   UNL     1       3.071  16.132  20.683  0.00  0.00    +0.000 N 
ATOM     18  C   UNL     1       2.767  14.912  21.230  0.00  0.00    +0.000 C 
ATOM     19  O   UNL     1       2.773  14.791  22.450  0.00  0.00    +0.000 OA
ATOM     20  H   UNL     1       3.209  16.856  21.379  0.00  0.00    +0.000 HD
ENDBRANCH   7   9
BRANCH   1  25
ATOM     21  C   UNL     1      -4.189  15.923  22.906  0.00  0.00    +0.000 C 
ATOM     22  C   UNL     1      -3.386  14.659  22.839  0.00  0.00    +0.000 A 
ATOM     23  C   UNL     1      -3.999  13.455  22.515  0.00  0.00    +0.000 A 
ATOM     24  C   UNL     1      -3.219  12.307  22.450  0.00  0.00    +0.000 A 
ATOM     25  C   UNL     1      -1.834  12.399  22.616  0.00  0.00    +0.000 A 
ATOM     26  C   UNL     1      -1.313  13.632  22.993  0.00  0.00    +0.000 A 
ATOM     27  N   UNL     1      -2.061  14.755  23.106  0.00  0.00    +0.000 NA
BRANCH  26  28
ATOM     28  O   UNL     1       0.013  13.816  23.284  0.00  0.00    +0.000 OA
ATOM     29  H   UNL     1       0.101  14.737  23.602  0.00  0.00    +0.000 HD
ENDBRANCH  26  28
ENDBRANCH   1  25
TORSDOF 3
ENDMDL
MODEL 5
REMARK VINA RESULT:      -7.2      2.222      5.980
REMARK  Name = 
REMARK  4 active torsions:
REMARK  status: ('A' for Active; 'I' for Inactive)
REMARK    1  A    between atoms: C_1  and  C_2
REMARK    2  A    between atoms: C_5  and  C_6
REMARK    3  A    between atoms: C_12  and  C_13
REMARK    4  A    between atoms: C_25  and  O_26
REMARK                            x       y       z     vdW  Elec       q    Type
REMARK                         _______ _______ _______ _____ _____    ______ ____
ROOT
ATOM      1  C   UNL     1       4.006   4.569  17.680  0.00  0.00    +0.000 C 
ATOM      2  O   UNL     1       3.500   4.312  16.586  0.00  0.00    +0.000 OA
ATOM      3  N   UNL     1       3.500   4.105  18.899  0.00  0.00    +0.000 N 
ATOM      4  C   UNL     1       2.485   3.052  18.898  0.00  0.00    +0.000 C 
ATOM      5  C   UNL     1       1.291   3.339  19.810  0.00  0.00    +0.000 C 
ATOM      6  C   UNL     1       1.728   3.832  21.190  0.00  0.00    +0.000 C 
ATOM      7  C   UNL     1       2.626   5.072  21.063  0.00  0.00    +0.000 C 
ATOM      8  C   UNL     1       3.843   4.697  20.208  0.00  0.00    +0.000 C 
ENDROOT
BRANCH   7   9
ATOM      9  C   UNL     1       1.850   6.245  20.524  0.00  0.00    +0.000 A 
ATOM     10  C   UNL     1       2.129   6.989  19.361  0.00  0.00    +0.000 A 
ATOM     11  C   UNL     1       1.399   8.154  19.494  0.00  0.00    +0.000 A 
ATOM     12  N   UNL     1       0.615   7.967  20.600  0.00  0.00    +0.000 N 
ATOM     13  N   UNL     1       0.852   6.798  21.217  0.00  0.00    +0.000 NA
ATOM     14  C   UNL     1      -0.391   8.844  21.165  0.00  0.00    +0.000 C 
ATOM     15  C   UNL     1      -0.045  10.330  21.292  0.00  0.00    +0.000 C 
ATOM     16  C   UNL     1       1.313  10.737  20.751  0.00  0.00    +0.000 C 
ATOM     17  N   UNL     1       1.377  10.542  19.320  0.00  0.00    +0.000 N 
ATOM     18  C   UNL     1       1.502   9.335  18.685  0.00  0.00    +0.000 C 
ATOM     19  O   UNL     1       1.773   9.318  17.490  0.00  0.00    +0.000 OA
ATOM     20  H   UNL     1       1.599  11.331  18.723  0.00  0.00    +0.000 HD
ENDBRANCH   7   9
BRANCH   1  25
ATOM     21  C   UNL     1       8.531   8.074  17.827  0.00  0.00    +0.000 C 
ATOM     22  C   UNL     1       7.391   7.105  17.742  0.00  0.00    +0.000 A 
ATOM     23  C   UNL     1       7.532   5.812  18.228  0.00  0.00    +0.000 A 
ATOM     24  C   UNL     1       6.448   4.946  18.144  0.00  0.00    +0.000 A 
ATOM     25  C   UNL     1       5.222   5.416  17.663  0.00  0.00    +0.000 A 
ATOM     26  C   UNL     1       5.186   6.706  17.145  0.00  0.00    +0.000 A 
ATOM     27  N   UNL     1       6.242   7.551  17.177  0.00  0.00    +0.000 NA
BRANCH  26  28
ATOM     28  O   UNL     1       4.069   7.234  16.556  0.00  0.00    +0.000 OA
ATOM     29  H   UNL     1       4.308   8.140  16.272  0.00  0.00    +0.000 HD
ENDBRANCH  26  28
ENDBRANCH   1  25
TORSDOF 3
ENDMDL
MODEL 6
REMARK VINA RESULT:      -7.2      8.468     11.180
REMARK  Name = 
REMARK  4 active torsions:
REMARK  status: ('A' for Active; 'I' for Inactive)
REMARK    1  A    between atoms: C_1  and  C_2
REMARK    2  A    between atoms: C_5  and  C_6
REMARK    3  A    between atoms: C_12  and  C_13
REMARK    4  A    between atoms: C_25  and  O_26
REMARK                            x       y       z     vdW  Elec       q    Type
REMARK                         _______ _______ _______ _____ _____    ______ ____
ROOT
ATOM      1  C   UNL     1      -4.600  13.061  23.901  0.00  0.00    +0.000 C 
ATOM      2  O   UNL     1      -4.632  12.040  24.591  0.00  0.00    +0.000 OA
ATOM      3  N   UNL     1      -5.582  13.398  22.965  0.00  0.00    +0.000 N 
ATOM      4  C   UNL     1      -6.849  12.669  22.963  0.00  0.00    +0.000 C 
ATOM      5  C   UNL     1      -7.297  12.204  21.575  0.00  0.00    +0.000 C 
ATOM      6  C   UNL     1      -7.173  13.315  20.530  0.00  0.00    +0.000 C 
ATOM      7  C   UNL     1      -5.737  13.858  20.485  0.00  0.00    +0.000 C 
ATOM      8  C   UNL     1      -5.378  14.382  21.882  0.00  0.00    +0.000 C 
ENDROOT
BRANCH   7   9
ATOM      9  C   UNL     1      -4.783  12.813  19.970  0.00  0.00    +0.000 A 
ATOM     10  C   UNL     1      -3.381  12.800  20.105  0.00  0.00    +0.000 A 
ATOM     11  C   UNL     1      -2.937  11.884  19.171  0.00  0.00    +0.000 A 
ATOM     12  N   UNL     1      -4.067  11.293  18.676  0.00  0.00    +0.000 N 
ATOM     13  N   UNL     1      -5.196  11.822  19.177  0.00  0.00    +0.000 NA
ATOM     14  C   UNL     1      -4.188  10.217  17.713  0.00  0.00    +0.000 C 
ATOM     15  C   UNL     1      -3.315  10.288  16.458  0.00  0.00    +0.000 C 
ATOM     16  C   UNL     1      -2.362  11.467  16.386  0.00  0.00    +0.000 C 
ATOM     17  N   UNL     1      -1.367  11.390  17.431  0.00  0.00    +0.000 N 
ATOM     18  C   UNL     1      -1.581  11.661  18.758  0.00  0.00    +0.000 C 
ATOM     19  O   UNL     1      -0.615  11.781  19.502  0.00  0.00    +0.000 OA
ATOM     20  H   UNL     1      -0.385  11.382  17.181  0.00  0.00    +0.000 HD
ENDBRANCH   7   9
BRANCH   1  25
ATOM     21  C   UNL     1      -0.079  16.547  24.345  0.00  0.00    +0.000 C 
ATOM     22  C   UNL     1      -1.269  15.637  24.311  0.00  0.00    +0.000 A 
ATOM     23  C   UNL     1      -2.497  16.070  24.798  0.00  0.00    +0.000 A 
ATOM     24  C   UNL     1      -3.581  15.202  24.736  0.00  0.00    +0.000 A 
ATOM     25  C   UNL     1      -3.441  13.961  24.108  0.00  0.00    +0.000 A 
ATOM     26  C   UNL     1      -2.165  13.587  23.701  0.00  0.00    +0.000 A 
ATOM     27  N   UNL     1      -1.086  14.399  23.792  0.00  0.00    +0.000 NA
BRANCH  26  28
ATOM     28  O   UNL     1      -1.891  12.355  23.169  0.00  0.00    +0.000 OA
ATOM     29  H   UNL     1      -2.630  12.145  22.564  0.00  0.00    +0.000 HD
ENDBRANCH  26  28
ENDBRANCH   1  25
TORSDOF 3
ENDMDL
MODEL 7
REMARK VINA RESULT:      -7.1      7.795     11.217
REMARK  Name = 
REMARK  4 active torsions:
REMARK  status: ('A' for Active; 'I' for Inactive)
REMARK    1  A    between atoms: C_1  and  C_2
REMARK    2  A    between atoms: C_5  and  C_6
REMARK    3  A    between atoms: C_12  and  C_13
REMARK    4  A    between atoms: C_25  and  O_26
REMARK                            x       y       z     vdW  Elec       q    Type
REMARK                         _______ _______ _______ _____ _____    ______ ____
ROOT
ATOM      1  C   UNL     1      -1.417  11.309  19.038  0.00  0.00    +0.000 C 
ATOM      2  O   UNL     1      -1.205  10.134  19.345  0.00  0.00    +0.000 OA
ATOM      3  N   UNL     1      -0.442  12.311  19.077  0.00  0.00    +0.000 N 
ATOM      4  C   UNL     1       0.964  11.936  19.227  0.00  0.00    +0.000 C 
ATOM      5  C   UNL     1       1.713  12.745  20.287  0.00  0.00    +0.000 C 
ATOM      6  C   UNL     1       1.440  14.246  20.163  0.00  0.00    +0.000 C 
ATOM      7  C   UNL     1      -0.069  14.529  20.228  0.00  0.00    +0.000 C 
ATOM      8  C   UNL     1      -0.751  13.755  19.092  0.00  0.00    +0.000 C 
ENDROOT
BRANCH   7   9
ATOM      9  C   UNL     1      -0.618  14.205  21.592  0.00  0.00    +0.000 A 
ATOM     10  C   UNL     1      -1.629  13.275  21.904  0.00  0.00    +0.000 A 
ATOM     11  C   UNL     1      -2.041  13.605  23.181  0.00  0.00    +0.000 A 
ATOM     12  N   UNL     1      -1.162  14.561  23.611  0.00  0.00    +0.000 N 
ATOM     13  N   UNL     1      -0.270  14.912  22.670  0.00  0.00    +0.000 NA
ATOM     14  C   UNL     1      -1.085  15.217  24.900  0.00  0.00    +0.000 C 
ATOM     15  C   UNL     1      -2.393  15.715  25.521  0.00  0.00    +0.000 C 
ATOM     16  C   UNL     1      -3.653  15.409  24.732  0.00  0.00    +0.000 C 
ATOM     17  N   UNL     1      -3.884  13.984  24.662  0.00  0.00    +0.000 N 
ATOM     18  C   UNL     1      -3.193  13.102  23.873  0.00  0.00    +0.000 C 
ATOM     19  O   UNL     1      -3.629  11.966  23.731  0.00  0.00    +0.000 OA
ATOM     20  H   UNL     1      -4.759  13.607  25.007  0.00  0.00    +0.000 HD
ENDBRANCH   7   9
BRANCH   1  25
ATOM     21  C   UNL     1      -6.771  12.251  17.242  0.00  0.00    +0.000 C 
ATOM     22  C   UNL     1      -5.368  12.081  17.740  0.00  0.00    +0.000 A 
ATOM     23  C   UNL     1      -5.081  12.227  19.092  0.00  0.00    +0.000 A 
ATOM     24  C   UNL     1      -3.770  12.049  19.518  0.00  0.00    +0.000 A 
ATOM     25  C   UNL     1      -2.794  11.639  18.605  0.00  0.00    +0.000 A 
ATOM     26  C   UNL     1      -3.156  11.573  17.264  0.00  0.00    +0.000 A 
ATOM     27  N   UNL     1      -4.417  11.786  16.821  0.00  0.00    +0.000 NA
BRANCH  26  28
ATOM     28  O   UNL     1      -2.259  11.284  16.270  0.00  0.00    +0.000 OA
ATOM     29  H   UNL     1      -1.408  11.091  16.714  0.00  0.00    +0.000 HD
ENDBRANCH  26  28
ENDBRANCH   1  25
TORSDOF 3
ENDMDL
MODEL 8
REMARK VINA RESULT:      -7.1      7.051      9.656
REMARK  Name = 
REMARK  4 active torsions:
REMARK  status: ('A' for Active; 'I' for Inactive)
REMARK    1  A    between atoms: C_1  and  C_2
REMARK    2  A    between atoms: C_5  and  C_6
REMARK    3  A    between atoms: C_12  and  C_13
REMARK    4  A    between atoms: C_25  and  O_26
REMARK                            x       y       z     vdW  Elec       q    Type
REMARK                         _______ _______ _______ _____ _____    ______ ____
ROOT
ATOM      1  C   UNL     1      -1.127  11.571  22.520  0.00  0.00    +0.000 C 
ATOM      2  O   UNL     1      -0.328  11.089  23.325  0.00  0.00    +0.000 OA
ATOM      3  N   UNL     1      -1.205  11.189  21.178  0.00  0.00    +0.000 N 
ATOM      4  C   UNL     1      -0.506   9.983  20.735  0.00  0.00    +0.000 C 
ATOM      5  C   UNL     1       0.312  10.171  19.456  0.00  0.00    +0.000 C 
ATOM      6  C   UNL     1      -0.478  10.910  18.374  0.00  0.00    +0.000 C 
ATOM      7  C   UNL     1      -0.985  12.262  18.900  0.00  0.00    +0.000 C 
ATOM      8  C   UNL     1      -1.863  11.998  20.131  0.00  0.00    +0.000 C 
ENDROOT
BRANCH   7   9
ATOM      9  C   UNL     1       0.163  13.199  19.169  0.00  0.00    +0.000 A 
ATOM     10  C   UNL     1       0.195  14.266  20.088  0.00  0.00    +0.000 A 
ATOM     11  C   UNL     1       1.274  15.039  19.707  0.00  0.00    +0.000 A 
ATOM     12  N   UNL     1       1.908  14.321  18.730  0.00  0.00    +0.000 N 
ATOM     13  N   UNL     1       1.266  13.184  18.416  0.00  0.00    +0.000 NA
ATOM     14  C   UNL     1       3.133  14.629  18.020  0.00  0.00    +0.000 C 
ATOM     15  C   UNL     1       3.312  16.058  17.502  0.00  0.00    +0.000 C 
ATOM     16  C   UNL     1       2.193  17.025  17.845  0.00  0.00    +0.000 C 
ATOM     17  N   UNL     1       2.115  17.238  19.272  0.00  0.00    +0.000 N 
ATOM     18  C   UNL     1       1.607  16.350  20.184  0.00  0.00    +0.000 C 
ATOM     19  O   UNL     1       1.388  16.734  21.327  0.00  0.00    +0.000 OA
ATOM     20  H   UNL     1       2.197  18.180  19.638  0.00  0.00    +0.000 HD
ENDBRANCH   7   9
BRANCH   1  25
ATOM     21  C   UNL     1      -4.596  15.784  24.255  0.00  0.00    +0.000 C 
ATOM     22  C   UNL     1      -3.711  14.638  23.868  0.00  0.00    +0.000 A 
ATOM     23  C   UNL     1      -4.256  13.385  23.614  0.00  0.00    +0.000 A 
ATOM     24  C   UNL     1      -3.405  12.351  23.243  0.00  0.00    +0.000 A 
ATOM     25  C   UNL     1      -2.046  12.610  23.043  0.00  0.00    +0.000 A 
ATOM     26  C   UNL     1      -1.577  13.876  23.375  0.00  0.00    +0.000 A 
ATOM     27  N   UNL     1      -2.382  14.886  23.781  0.00  0.00    +0.000 NA
BRANCH  26  28
ATOM     28  O   UNL     1      -0.250  14.211  23.318  0.00  0.00    +0.000 OA
ATOM     29  H   UNL     1      -0.128  14.962  23.934  0.00  0.00    +0.000 HD
ENDBRANCH  26  28
ENDBRANCH   1  25
TORSDOF 3
ENDMDL
MODEL 9
REMARK VINA RESULT:      -7.1      7.146     11.198
REMARK  Name = 
REMARK  4 active torsions:
REMARK  status: ('A' for Active; 'I' for Inactive)
REMARK    1  A    between atoms: C_1  and  C_2
REMARK    2  A    between atoms: C_5  and  C_6
REMARK    3  A    between atoms: C_12  and  C_13
REMARK    4  A    between atoms: C_25  and  O_26
REMARK                            x       y       z     vdW  Elec       q    Type
REMARK                         _______ _______ _______ _____ _____    ______ ____
ROOT
ATOM      1  C   UNL     1      -6.203  13.982  20.223  0.00  0.00    +0.000 C 
ATOM      2  O   UNL     1      -6.613  14.664  19.282  0.00  0.00    +0.000 OA
ATOM      3  N   UNL     1      -5.291  14.442  21.177  0.00  0.00    +0.000 N 
ATOM      4  C   UNL     1      -4.991  15.872  21.249  0.00  0.00    +0.000 C 
ATOM      5  C   UNL     1      -3.496  16.190  21.325  0.00  0.00    +0.000 C 
ATOM      6  C   UNL     1      -2.773  15.312  22.348  0.00  0.00    +0.000 C 
ATOM      7  C   UNL     1      -2.998  13.824  22.040  0.00  0.00    +0.000 C 
ATOM      8  C   UNL     1      -4.508  13.553  22.059  0.00  0.00    +0.000 C 
ENDROOT
BRANCH   7   9
ATOM      9  C   UNL     1      -2.333  13.437  20.745  0.00  0.00    +0.000 A 
ATOM     10  C   UNL     1      -2.702  12.391  19.878  0.00  0.00    +0.000 A 
ATOM     11  C   UNL     1      -1.605  12.193  19.063  0.00  0.00    +0.000 A 
ATOM     12  N   UNL     1      -0.744  13.213  19.359  0.00  0.00    +0.000 N 
ATOM     13  N   UNL     1      -1.186  13.999  20.355  0.00  0.00    +0.000 NA
ATOM     14  C   UNL     1       0.537  13.531  18.760  0.00  0.00    +0.000 C 
ATOM     15  C   UNL     1       1.513  12.377  18.521  0.00  0.00    +0.000 C 
ATOM     16  C   UNL     1       1.003  10.997  18.892  0.00  0.00    +0.000 C 
ATOM     17  N   UNL     1      -0.111  10.617  18.053  0.00  0.00    +0.000 N 
ATOM     18  C   UNL     1      -1.389  11.102  18.156  0.00  0.00    +0.000 C 
ATOM     19  O   UNL     1      -2.288  10.540  17.542  0.00  0.00    +0.000 OA
ATOM     20  H   UNL     1      -0.052   9.765  17.507  0.00  0.00    +0.000 HD
ENDBRANCH   7   9
BRANCH   1  25
ATOM     21  C   UNL     1      -7.912   8.530  20.598  0.00  0.00    +0.000 C 
ATOM     22  C   UNL     1      -7.544   9.980  20.500  0.00  0.00    +0.000 A 
ATOM     23  C   UNL     1      -7.917  10.867  21.502  0.00  0.00    +0.000 A 
ATOM     24  C   UNL     1      -7.545  12.201  21.383  0.00  0.00    +0.000 A 
ATOM     25  C   UNL     1      -6.733  12.602  20.318  0.00  0.00    +0.000 A 
ATOM     26  C   UNL     1      -6.456  11.661  19.332  0.00  0.00    +0.000 A 
ATOM     27  N   UNL     1      -6.845  10.367  19.406  0.00  0.00    +0.000 NA
BRANCH  26  28
ATOM     28  O   UNL     1      -5.758  11.968  18.194  0.00  0.00    +0.000 OA
ATOM     29  H   UNL     1      -6.056  11.336  17.508  0.00  0.00    +0.000 HD
ENDBRANCH  26  28
ENDBRANCH   1  25
TORSDOF 3
ENDMDL
