MODEL 1
REMARK VINA RESULT:      -5.8      0.000      0.000
REMARK  Name = 
REMARK  3 active torsions:
REMARK  status: ('A' for Active; 'I' for Inactive)
REMARK    1  A    between atoms: C_1  and  N_2
REMARK    2  A    between atoms: C_5  and  C_6
REMARK    3  A    between atoms: N_9  and  C_10
REMARK                            x       y       z     vdW  Elec       q    Type
REMARK                         _______ _______ _______ _____ _____    ______ ____
ROOT
ATOM      1  C   UNL     1       0.277  10.317  20.508  0.00  0.00    +0.000 C 
ATOM      2  N   UNL     1       1.060   9.299  19.780  0.00  0.00    +0.000 N 
ATOM      3  C   UNL     1       1.476   8.181  20.411  0.00  0.00    +0.000 A 
ATOM      4  C   UNL     1       2.269   7.245  19.742  0.00  0.00    +0.000 A 
ATOM      5  C   UNL     1       2.647   7.436  18.405  0.00  0.00    +0.000 A 
ATOM      6  C   UNL     1       2.158   8.594  17.782  0.00  0.00    +0.000 A 
ATOM      7  C   UNL     1       1.374   9.513  18.485  0.00  0.00    +0.000 A 
ENDROOT
BRANCH   5   8
ATOM      8  C   UNL     1       3.553   6.485  17.706  0.00  0.00    +0.000 A 
ATOM      9  C   UNL     1       4.639   6.920  16.931  0.00  0.00    +0.000 A 
ATOM     10  C   UNL     1       5.430   6.014  16.220  0.00  0.00    +0.000 A 
ATOM     11  N   UNL     1       5.170   4.691  16.271  0.00  0.00    +0.000 N 
ATOM     12  C   UNL     1       5.971   3.739  15.476  0.00  0.00    +0.000 C 
ATOM     13  C   UNL     1       4.159   4.221  17.034  0.00  0.00    +0.000 A 
ATOM     14  C   UNL     1       3.343   5.099  17.751  0.00  0.00    +0.000 A 
ENDBRANCH   5   8
TORSDOF 1
ENDMDL
MODEL 2
REMARK VINA RESULT:      -5.7      0.378      1.316
REMARK  Name = 
REMARK  3 active torsions:
REMARK  status: ('A' for Active; 'I' for Inactive)
REMARK    1  A    between atoms: C_1  and  N_2
REMARK    2  A    between atoms: C_5  and  C_6
REMARK    3  A    between atoms: N_9  and  C_10
REMARK                            x       y       z     vdW  Elec       q    Type
REMARK                         _______ _______ _______ _____ _____    ______ ____
ROOT
ATOM      1  C   UNL     1       0.404   9.885  21.125  0.00  0.00    +0.000 C 
ATOM      2  N   UNL     1       1.126   8.944  20.246  0.00  0.00    +0.000 N 
ATOM      3  C   UNL     1       1.555   7.758  20.725  0.00  0.00    +0.000 A 
ATOM      4  C   UNL     1       2.293   6.893  19.914  0.00  0.00    +0.000 A 
ATOM      5  C   UNL     1       2.600   7.226  18.587  0.00  0.00    +0.000 A 
ATOM      6  C   UNL     1       2.100   8.452  18.124  0.00  0.00    +0.000 A 
ATOM      7  C   UNL     1       1.372   9.297  18.967  0.00  0.00    +0.000 A 
ENDROOT
BRANCH   5   8
ATOM      8  C   UNL     1       3.449   6.347  17.737  0.00  0.00    +0.000 A 
ATOM      9  C   UNL     1       3.256   4.958  17.672  0.00  0.00    +0.000 A 
ATOM     10  C   UNL     1       4.113   4.142  16.928  0.00  0.00    +0.000 A 
ATOM     11  N   UNL     1       5.146   4.677  16.246  0.00  0.00    +0.000 N 
ATOM     12  C   UNL     1       6.083   3.810  15.506  0.00  0.00    +0.000 C 
ATOM     13  C   UNL     1       5.349   6.012  16.247  0.00  0.00    +0.000 A 
ATOM     14  C   UNL     1       4.517   6.857  16.985  0.00  0.00    +0.000 A 
ENDBRANCH   5   8
TORSDOF 1
ENDMDL
MODEL 3
REMARK VINA RESULT:      -5.7      0.181      5.858
REMARK  Name = 
REMARK  3 active torsions:
REMARK  status: ('A' for Active; 'I' for Inactive)
REMARK    1  A    between atoms: C_1  and  N_2
REMARK    2  A    between atoms: C_5  and  C_6
REMARK    3  A    between atoms: N_9  and  C_10
REMARK                            x       y       z     vdW  Elec       q    Type
REMARK                         _______ _______ _______ _____ _____    ______ ____
ROOT
ATOM      1  C   UNL     1       6.058   3.706  15.496  0.00  0.00    +0.000 C 
ATOM      2  N   UNL     1       5.247   4.648  16.293  0.00  0.00    +0.000 N 
ATOM      3  C   UNL     1       4.431   4.189  17.265  0.00  0.00    +0.000 A 
ATOM      4  C   UNL     1       3.616   5.071  17.979  0.00  0.00    +0.000 A 
ATOM      5  C   UNL     1       3.628   6.448  17.713  0.00  0.00    +0.000 A 
ATOM      6  C   UNL     1       4.520   6.880  16.721  0.00  0.00    +0.000 A 
ATOM      7  C   UNL     1       5.315   5.968  16.020  0.00  0.00    +0.000 A 
ENDROOT
BRANCH   5   8
ATOM      8  C   UNL     1       2.710   7.387  18.414  0.00  0.00    +0.000 A 
ATOM      9  C   UNL     1       2.250   8.569  17.814  0.00  0.00    +0.000 A 
ATOM     10  C   UNL     1       1.452   9.475  18.518  0.00  0.00    +0.000 A 
ATOM     11  N   UNL     1       1.097   9.226  19.796  0.00  0.00    +0.000 N 
ATOM     12  C   UNL     1       0.301  10.208  20.557  0.00  0.00    +0.000 C 
ATOM     13  C   UNL     1       1.485   8.083  20.403  0.00  0.00    +0.000 A 
ATOM     14  C   UNL     1       2.289   7.159  19.732  0.00  0.00    +0.000 A 
ENDBRANCH   5   8
TORSDOF 1
ENDMDL
MODEL 4
REMARK VINA RESULT:      -5.6      0.663      1.904
REMARK  Name = 
REMARK  3 active torsions:
REMARK  status: ('A' for Active; 'I' for Inactive)
REMARK    1  A    between atoms: C_1  and  N_2
REMARK    2  A    between atoms: C_5  and  C_6
REMARK    3  A    between atoms: N_9  and  C_10
REMARK                            x       y       z     vdW  Elec       q    Type
REMARK                         _______ _______ _______ _____ _____    ______ ____
ROOT
ATOM      1  C   UNL     1      -0.237  10.582  20.831  0.00  0.00    +0.000 C 
ATOM      2  N   UNL     1       0.662   9.652  20.121  0.00  0.00    +0.000 N 
ATOM      3  C   UNL     1       0.980   9.867  18.827  0.00  0.00    +0.000 A 
ATOM      4  C   UNL     1       1.780   8.955  18.134  0.00  0.00    +0.000 A 
ATOM      5  C   UNL     1       2.278   7.804  18.760  0.00  0.00    +0.000 A 
ATOM      6  C   UNL     1       1.953   7.645  20.115  0.00  0.00    +0.000 A 
ATOM      7  C   UNL     1       1.142   8.573  20.774  0.00  0.00    +0.000 A 
ENDROOT
BRANCH   5   8
ATOM      8  C   UNL     1       3.069   6.788  18.012  0.00  0.00    +0.000 A 
ATOM      9  C   UNL     1       2.774   5.418  18.075  0.00  0.00    +0.000 A 
ATOM     10  C   UNL     1       3.576   4.474  17.428  0.00  0.00    +0.000 A 
ATOM     11  N   UNL     1       4.654   4.864  16.717  0.00  0.00    +0.000 N 
ATOM     12  C   UNL     1       5.532   3.864  16.079  0.00  0.00    +0.000 C 
ATOM     13  C   UNL     1       4.955   6.175  16.596  0.00  0.00    +0.000 A 
ATOM     14  C   UNL     1       4.180   7.145  17.236  0.00  0.00    +0.000 A 
ENDBRANCH   5   8
TORSDOF 1
ENDMDL
MODEL 5
REMARK VINA RESULT:      -5.6      2.109      5.837
REMARK  Name = 
REMARK  3 active torsions:
REMARK  status: ('A' for Active; 'I' for Inactive)
REMARK    1  A    between atoms: C_1  and  N_2
REMARK    2  A    between atoms: C_5  and  C_6
REMARK    3  A    between atoms: N_9  and  C_10
REMARK                            x       y       z     vdW  Elec       q    Type
REMARK                         _______ _______ _______ _____ _____    ______ ____
ROOT
ATOM      1  C   UNL     1       3.708   1.533  18.522  0.00  0.00    +0.000 C 
ATOM      2  N   UNL     1       3.391   2.974  18.554  0.00  0.00    +0.000 N 
ATOM      3  C   UNL     1       4.221   3.841  19.170  0.00  0.00    +0.000 A 
ATOM      4  C   UNL     1       3.892   5.196  19.257  0.00  0.00    +0.000 A 
ATOM      5  C   UNL     1       2.703   5.691  18.704  0.00  0.00    +0.000 A 
ATOM      6  C   UNL     1       1.892   4.758  18.041  0.00  0.00    +0.000 A 
ATOM      7  C   UNL     1       2.248   3.408  17.981  0.00  0.00    +0.000 A 
ENDROOT
BRANCH   5   8
ATOM      8  C   UNL     1       2.306   7.118  18.855  0.00  0.00    +0.000 A 
ATOM      9  C   UNL     1       1.791   7.627  20.057  0.00  0.00    +0.000 A 
ATOM     10  C   UNL     1       1.352   8.950  20.154  0.00  0.00    +0.000 A 
ATOM     11  N   UNL     1       1.422   9.774  19.088  0.00  0.00    +0.000 N 
ATOM     12  C   UNL     1       0.908  11.155  19.175  0.00  0.00    +0.000 C 
ATOM     13  C   UNL     1       1.946   9.341  17.922  0.00  0.00    +0.000 A 
ATOM     14  C   UNL     1       2.387   8.022  17.787  0.00  0.00    +0.000 A 
ENDBRANCH   5   8
TORSDOF 1
ENDMDL
MODEL 6
REMARK VINA RESULT:      -5.6      2.099      2.838
REMARK  Name = 
REMARK  3 active torsions:
REMARK  status: ('A' for Active; 'I' for Inactive)
REMARK    1  A    between atoms: C_1  and  N_2
REMARK    2  A    between atoms: C_5  and  C_6
REMARK    3  A    between atoms: N_9  and  C_10
REMARK                            x       y       z     vdW  Elec       q    Type
REMARK                         _______ _______ _______ _____ _____    ______ ____
ROOT
ATOM      1  C   UNL     1       0.296  11.202  18.770  0.00  0.00    +0.000 C 
ATOM      2  N   UNL     1       1.000   9.924  18.990  0.00  0.00    +0.000 N 
ATOM      3  C   UNL     1       1.672   9.334  17.979  0.00  0.00    +0.000 A 
ATOM      4  C   UNL     1       2.286   8.093  18.166  0.00  0.00    +0.000 A 
ATOM      5  C   UNL     1       2.229   7.434  19.402  0.00  0.00    +0.000 A 
ATOM      6  C   UNL     1       1.552   8.104  20.432  0.00  0.00    +0.000 A 
ATOM      7  C   UNL     1       0.941   9.341  20.206  0.00  0.00    +0.000 A 
ENDROOT
BRANCH   5   8
ATOM      8  C   UNL     1       2.815   6.079  19.593  0.00  0.00    +0.000 A 
ATOM      9  C   UNL     1       4.040   5.707  19.019  0.00  0.00    +0.000 A 
ATOM     10  C   UNL     1       4.534   4.406  19.145  0.00  0.00    +0.000 A 
ATOM     11  N   UNL     1       3.842   3.476  19.835  0.00  0.00    +0.000 N 
ATOM     12  C   UNL     1       4.337   2.088  19.922  0.00  0.00    +0.000 C 
ATOM     13  C   UNL     1       2.677   3.796  20.437  0.00  0.00    +0.000 A 
ATOM     14  C   UNL     1       2.150   5.085  20.324  0.00  0.00    +0.000 A 
ENDBRANCH   5   8
TORSDOF 1
ENDMDL
MODEL 7
REMARK VINA RESULT:      -5.5      0.730      5.996
REMARK  Name = 
REMARK  3 active torsions:
REMARK  status: ('A' for Active; 'I' for Inactive)
REMARK    1  A    between atoms: C_1  and  N_2
REMARK    2  A    between atoms: C_5  and  C_6
REMARK    3  A    between atoms: N_9  and  C_10
REMARK                            x       y       z     vdW  Elec       q    Type
REMARK                         _______ _______ _______ _____ _____    ______ ____
ROOT
ATOM      1  C   UNL     1       5.333   3.785  16.078  0.00  0.00    +0.000 C 
ATOM      2  N   UNL     1       4.575   4.816  16.814  0.00  0.00    +0.000 N 
ATOM      3  C   UNL     1       3.480   4.477  17.526  0.00  0.00    +0.000 A 
ATOM      4  C   UNL     1       2.724   5.458  18.172  0.00  0.00    +0.000 A 
ATOM      5  C   UNL     1       3.083   6.812  18.107  0.00  0.00    +0.000 A 
ATOM      6  C   UNL     1       4.250   7.110  17.387  0.00  0.00    +0.000 A 
ATOM      7  C   UNL     1       4.977   6.103  16.745  0.00  0.00    +0.000 A 
ENDROOT
BRANCH   5   8
ATOM      8  C   UNL     1       2.245   7.874  18.728  0.00  0.00    +0.000 A 
ATOM      9  C   UNL     1       1.903   7.855  20.089  0.00  0.00    +0.000 A 
ATOM     10  C   UNL     1       1.051   8.819  20.634  0.00  0.00    +0.000 A 
ATOM     11  N   UNL     1       0.543   9.800  19.860  0.00  0.00    +0.000 N 
ATOM     12  C   UNL     1      -0.400  10.786  20.424  0.00  0.00    +0.000 C 
ATOM     13  C   UNL     1       0.874   9.882  18.554  0.00  0.00    +0.000 A 
ATOM     14  C   UNL     1       1.717   8.931  17.973  0.00  0.00    +0.000 A 
ENDBRANCH   5   8
TORSDOF 1
ENDMDL
MODEL 8
REMARK VINA RESULT:      -5.5      2.106      2.624
REMARK  Name = 
REMARK  3 active torsions:
REMARK  status: ('A' for Active; 'I' for Inactive)
REMARK    1  A    between atoms: C_1  and  N_2
REMARK    2  A    between atoms: C_5  and  C_6
REMARK    3  A    between atoms: N_9  and  C_10
REMARK                            x       y       z     vdW  Elec       q    Type
REMARK                         _______ _______ _______ _____ _____    ______ ____
ROOT
ATOM      1  C   UNL     1       0.623  11.407  18.990  0.00  0.00    +0.000 C 
ATOM      2  N   UNL     1       1.106  10.020  19.143  0.00  0.00    +0.000 N 
ATOM      3  C   UNL     1       0.989   9.385  20.327  0.00  0.00    +0.000 A 
ATOM      4  C   UNL     1       1.502   8.096  20.492  0.00  0.00    +0.000 A 
ATOM      5  C   UNL     1       2.140   7.427  19.438  0.00  0.00    +0.000 A 
ATOM      6  C   UNL     1       2.203   8.114  18.216  0.00  0.00    +0.000 A 
ATOM      7  C   UNL     1       1.687   9.407  18.090  0.00  0.00    +0.000 A 
ENDROOT
BRANCH   5   8
ATOM      8  C   UNL     1       2.756   6.085  19.623  0.00  0.00    +0.000 A 
ATOM      9  C   UNL     1       3.982   5.738  19.034  0.00  0.00    +0.000 A 
ATOM     10  C   UNL     1       4.504   4.447  19.156  0.00  0.00    +0.000 A 
ATOM     11  N   UNL     1       3.840   3.504  19.855  0.00  0.00    +0.000 N 
ATOM     12  C   UNL     1       4.363   2.126  19.938  0.00  0.00    +0.000 C 
ATOM     13  C   UNL     1       2.675   3.801  20.471  0.00  0.00    +0.000 A 
ATOM     14  C   UNL     1       2.120   5.079  20.364  0.00  0.00    +0.000 A 
ENDBRANCH   5   8
TORSDOF 1
ENDMDL
MODEL 9
REMARK VINA RESULT:      -5.5      2.000      3.046
REMARK  Name = 
REMARK  3 active torsions:
REMARK  status: ('A' for Active; 'I' for Inactive)
REMARK    1  A    between atoms: C_1  and  N_2
REMARK    2  A    between atoms: C_5  and  C_6
REMARK    3  A    between atoms: N_9  and  C_10
REMARK                            x       y       z     vdW  Elec       q    Type
REMARK                         _______ _______ _______ _____ _____    ______ ____
ROOT
ATOM      1  C   UNL     1       0.416  11.423  19.058  0.00  0.00    +0.000 C 
ATOM      2  N   UNL     1       1.048  10.095  19.186  0.00  0.00    +0.000 N 
ATOM      3  C   UNL     1       1.697   9.545  18.138  0.00  0.00    +0.000 A 
ATOM      4  C   UNL     1       2.242   8.263  18.237  0.00  0.00    +0.000 A 
ATOM      5  C   UNL     1       2.138   7.519  19.421  0.00  0.00    +0.000 A 
ATOM      6  C   UNL     1       1.489   8.148  20.494  0.00  0.00    +0.000 A 
ATOM      7  C   UNL     1       0.947   9.429  20.356  0.00  0.00    +0.000 A 
ENDROOT
BRANCH   5   8
ATOM      8  C   UNL     1       2.649   6.124  19.514  0.00  0.00    +0.000 A 
ATOM      9  C   UNL     1       2.128   5.198  20.431  0.00  0.00    +0.000 A 
ATOM     10  C   UNL     1       2.674   3.918  20.556  0.00  0.00    +0.000 A 
ATOM     11  N   UNL     1       3.716   3.540  19.785  0.00  0.00    +0.000 N 
ATOM     12  C   UNL     1       4.328   2.207  19.955  0.00  0.00    +0.000 C 
ATOM     13  C   UNL     1       4.225   4.383  18.862  0.00  0.00    +0.000 A 
ATOM     14  C   UNL     1       3.709   5.673  18.716  0.00  0.00    +0.000 A 
ENDBRANCH   5   8
TORSDOF 1
ENDMDL
