MODEL 1
REMARK VINA RESULT:      -8.4      0.000      0.000
REMARK  Name = 
REMARK  10 active torsions:
REMARK  status: ('A' for Active; 'I' for Inactive)
REMARK    1  A    between atoms: C_1  and  O_2
REMARK    2  A    between atoms: O_2  and  C_3
REMARK    3  A    between atoms: C_4  and  C_5
REMARK    4  A    between atoms: C_8  and  O_9
REMARK    5  A    between atoms: C_10  and  C_11
REMARK    6  A    between atoms: C_11  and  C_12
REMARK    7  A    between atoms: C_13  and  C_14
REMARK    8  A    between atoms: C_13  and  C_15
REMARK    9  A    between atoms: C_15  and  C_16
REMARK   10  A    between atoms: C_16  and  C_17
REMARK                            x       y       z     vdW  Elec       q    Type
REMARK                         _______ _______ _______ _____ _____    ______ ____
ROOT
ATOM      1  C   UNL     1       3.004   6.239  18.644  0.00  0.00    +0.000 A 
ATOM      2  C   UNL     1       2.179   5.576  19.596  0.00  0.00    +0.000 A 
ATOM      3  C   UNL     1       1.268   6.308  20.546  0.00  0.00    +0.000 C 
ATOM      4  C   UNL     1       2.209   4.184  19.649  0.00  0.00    +0.000 A 
ATOM      5  C   UNL     1       3.019   3.475  18.796  0.00  0.00    +0.000 A 
ATOM      6  C   UNL     1       3.825   4.092  17.851  0.00  0.00    +0.000 A 
ATOM      7  C   UNL     1       3.846   5.497  17.751  0.00  0.00    +0.000 A 
ATOM      8  C   UNL     1       2.870   2.065  19.067  0.00  0.00    +0.000 C 
ATOM      9  O   UNL     1       3.450   1.170  18.473  0.00  0.00    +0.000 OA
ATOM     10  O   UNL     1       1.977   1.940  20.088  0.00  0.00    +0.000 OA
ATOM     11  C   UNL     1       1.493   3.229  20.524  0.00  0.00    +0.000 C 
ENDROOT
BRANCH   1  13
ATOM     12  C   UNL     1       2.361   8.414  17.833  0.00  0.00    +0.000 C 
ATOM     13  O   UNL     1       3.041   7.607  18.787  0.00  0.00    +0.000 OA
ENDBRANCH   1  13
BRANCH   6  14
ATOM     14  O   UNL     1       4.611   3.328  17.017  0.00  0.00    +0.000 OA
ATOM     15  H   UNL     1       5.533   3.666  17.052  0.00  0.00    +0.000 HD
ENDBRANCH   6  14
BRANCH   7  16
ATOM     16  C   UNL     1       4.746   6.130  16.702  0.00  0.00    +0.000 C 
BRANCH  16  17
ATOM     17  C   UNL     1       5.908   6.907  17.241  0.00  0.00    +0.000 C 
ATOM     18  C   UNL     1       7.101   6.493  17.703  0.00  0.00    +0.000 C 
ATOM     19  C   UNL     1       7.523   5.059  17.790  0.00  0.00    +0.000 C 
BRANCH  18  20
ATOM     20  C   UNL     1       8.045   7.536  18.266  0.00  0.00    +0.000 C 
BRANCH  20  21
ATOM     21  C   UNL     1       8.013   8.889  17.559  0.00  0.00    +0.000 C 
BRANCH  21  22
ATOM     22  C   UNL     1       8.741   9.926  18.401  0.00  0.00    +0.000 C 
ATOM     23  O   UNL     1       9.272   9.633  19.467  0.00  0.00    +0.000 OA
ATOM     24  N   UNL     1       8.709  11.180  17.832  0.00  0.00    +0.000 N 
ATOM     25  C   UNL     1       9.334  12.296  18.336  0.00  0.00    +0.000 A 
ATOM     26  N   UNL     1       9.069  13.511  17.909  0.00  0.00    +0.000 NA
ATOM     27  N   UNL     1       9.813  14.471  18.571  0.00  0.00    +0.000 NA
ATOM     28  C   UNL     1      10.640  13.927  19.438  0.00  0.00    +0.000 A 
ATOM     29  S   UNL     1      10.575  12.220  19.507  0.00  0.00    +0.000 S 
ATOM     30  H   UNL     1       8.071  11.372  17.072  0.00  0.00    +0.000 HD
ENDBRANCH  21  22
ENDBRANCH  20  21
ENDBRANCH  18  20
ENDBRANCH  16  17
ENDBRANCH   7  16
TORSDOF 7
ENDMDL
MODEL 2
REMARK VINA RESULT:      -7.8      1.432      1.468
REMARK  Name = 
REMARK  10 active torsions:
REMARK  status: ('A' for Active; 'I' for Inactive)
REMARK    1  A    between atoms: C_1  and  O_2
REMARK    2  A    between atoms: O_2  and  C_3
REMARK    3  A    between atoms: C_4  and  C_5
REMARK    4  A    between atoms: C_8  and  O_9
REMARK    5  A    between atoms: C_10  and  C_11
REMARK    6  A    between atoms: C_11  and  C_12
REMARK    7  A    between atoms: C_13  and  C_14
REMARK    8  A    between atoms: C_13  and  C_15
REMARK    9  A    between atoms: C_15  and  C_16
REMARK   10  A    between atoms: C_16  and  C_17
REMARK                            x       y       z     vdW  Elec       q    Type
REMARK                         _______ _______ _______ _____ _____    ______ ____
ROOT
ATOM      1  C   UNL     1       3.336   6.459  18.554  0.00  0.00    +0.000 A 
ATOM      2  C   UNL     1       2.677   6.080  19.758  0.00  0.00    +0.000 A 
ATOM      3  C   UNL     1       1.802   7.017  20.547  0.00  0.00    +0.000 C 
ATOM      4  C   UNL     1       2.843   4.778  20.226  0.00  0.00    +0.000 A 
ATOM      5  C   UNL     1       3.626   3.886  19.534  0.00  0.00    +0.000 A 
ATOM      6  C   UNL     1       4.271   4.223  18.353  0.00  0.00    +0.000 A 
ATOM      7  C   UNL     1       4.150   5.526  17.831  0.00  0.00    +0.000 A 
ATOM      8  C   UNL     1       3.638   2.625  20.236  0.00  0.00    +0.000 C 
ATOM      9  O   UNL     1       4.237   1.625  19.874  0.00  0.00    +0.000 OA
ATOM     10  O   UNL     1       2.867   2.773  21.350  0.00  0.00    +0.000 OA
ATOM     11  C   UNL     1       2.311   4.103  21.431  0.00  0.00    +0.000 C 
ENDROOT
BRANCH   1  13
ATOM     12  C   UNL     1       2.115   8.294  17.581  0.00  0.00    +0.000 C 
ATOM     13  O   UNL     1       3.259   7.803  18.270  0.00  0.00    +0.000 OA
ENDBRANCH   1  13
BRANCH   6  14
ATOM     14  O   UNL     1       5.037   3.285  17.699  0.00  0.00    +0.000 OA
ATOM     15  H   UNL     1       5.477   3.712  16.931  0.00  0.00    +0.000 HD
ENDBRANCH   6  14
BRANCH   7  16
ATOM     16  C   UNL     1       4.877   5.852  16.536  0.00  0.00    +0.000 C 
BRANCH  16  17
ATOM     17  C   UNL     1       5.901   6.940  16.634  0.00  0.00    +0.000 C 
ATOM     18  C   UNL     1       7.025   7.023  17.370  0.00  0.00    +0.000 C 
ATOM     19  C   UNL     1       7.491   5.967  18.322  0.00  0.00    +0.000 C 
BRANCH  18  20
ATOM     20  C   UNL     1       7.818   8.313  17.309  0.00  0.00    +0.000 C 
BRANCH  20  21
ATOM     21  C   UNL     1       8.406   8.776  18.641  0.00  0.00    +0.000 C 
BRANCH  21  22
ATOM     22  C   UNL     1       8.887  10.214  18.517  0.00  0.00    +0.000 C 
ATOM     23  O   UNL     1       8.283  11.040  17.840  0.00  0.00    +0.000 OA
ATOM     24  N   UNL     1      10.047  10.441  19.224  0.00  0.00    +0.000 N 
ATOM     25  C   UNL     1      10.677  11.658  19.345  0.00  0.00    +0.000 A 
ATOM     26  N   UNL     1      11.902  11.779  19.807  0.00  0.00    +0.000 NA
ATOM     27  N   UNL     1      12.324  13.096  19.826  0.00  0.00    +0.000 NA
ATOM     28  C   UNL     1      11.376  13.912  19.419  0.00  0.00    +0.000 A 
ATOM     29  S   UNL     1       9.912  13.142  18.989  0.00  0.00    +0.000 S 
ATOM     30  H   UNL     1      10.587   9.660  19.569  0.00  0.00    +0.000 HD
ENDBRANCH  21  22
ENDBRANCH  20  21
ENDBRANCH  18  20
ENDBRANCH  16  17
ENDBRANCH   7  16
TORSDOF 7
ENDMDL
MODEL 3
REMARK VINA RESULT:      -7.4      1.344      3.415
REMARK  Name = 
REMARK  10 active torsions:
REMARK  status: ('A' for Active; 'I' for Inactive)
REMARK    1  A    between atoms: C_1  and  O_2
REMARK    2  A    between atoms: O_2  and  C_3
REMARK    3  A    between atoms: C_4  and  C_5
REMARK    4  A    between atoms: C_8  and  O_9
REMARK    5  A    between atoms: C_10  and  C_11
REMARK    6  A    between atoms: C_11  and  C_12
REMARK    7  A    between atoms: C_13  and  C_14
REMARK    8  A    between atoms: C_13  and  C_15
REMARK    9  A    between atoms: C_15  and  C_16
REMARK   10  A    between atoms: C_16  and  C_17
REMARK                            x       y       z     vdW  Elec       q    Type
REMARK                         _______ _______ _______ _____ _____    ______ ____
ROOT
ATOM      1  C   UNL     1       3.480   5.490  19.010  0.00  0.00    +0.000 A 
ATOM      2  C   UNL     1       2.584   5.683  20.100  0.00  0.00    +0.000 A 
ATOM      3  C   UNL     1       2.352   4.647  21.167  0.00  0.00    +0.000 C 
ATOM      4  C   UNL     1       1.894   6.890  20.188  0.00  0.00    +0.000 A 
ATOM      5  C   UNL     1       2.081   7.867  19.240  0.00  0.00    +0.000 A 
ATOM      6  C   UNL     1       2.955   7.713  18.175  0.00  0.00    +0.000 A 
ATOM      7  C   UNL     1       3.678   6.513  18.024  0.00  0.00    +0.000 A 
ATOM      8  C   UNL     1       1.243   9.000  19.559  0.00  0.00    +0.000 C 
ATOM      9  O   UNL     1       1.185  10.034  18.914  0.00  0.00    +0.000 OA
ATOM     10  O   UNL     1       0.553   8.688  20.692  0.00  0.00    +0.000 OA
ATOM     11  C   UNL     1       0.901   7.372  21.174  0.00  0.00    +0.000 C 
ENDROOT
BRANCH   1  13
ATOM     12  C   UNL     1       3.358   3.306  18.001  0.00  0.00    +0.000 C 
ATOM     13  O   UNL     1       3.976   4.211  18.909  0.00  0.00    +0.000 OA
ENDBRANCH   1  13
BRANCH   6  14
ATOM     14  O   UNL     1       3.106   8.730  17.260  0.00  0.00    +0.000 OA
ATOM     15  H   UNL     1       2.285   9.270  17.245  0.00  0.00    +0.000 HD
ENDBRANCH   6  14
BRANCH   7  16
ATOM     16  C   UNL     1       4.623   6.387  16.840  0.00  0.00    +0.000 C 
BRANCH  16  17
ATOM     17  C   UNL     1       5.930   7.103  16.987  0.00  0.00    +0.000 C 
ATOM     18  C   UNL     1       7.043   6.767  17.663  0.00  0.00    +0.000 C 
ATOM     19  C   UNL     1       7.193   5.522  18.480  0.00  0.00    +0.000 C 
BRANCH  18  20
ATOM     20  C   UNL     1       8.188   7.761  17.684  0.00  0.00    +0.000 C 
BRANCH  20  21
ATOM     21  C   UNL     1       7.771   9.230  17.671  0.00  0.00    +0.000 C 
BRANCH  21  22
ATOM     22  C   UNL     1       8.777  10.056  18.460  0.00  0.00    +0.000 C 
ATOM     23  O   UNL     1       9.284   9.637  19.495  0.00  0.00    +0.000 OA
ATOM     24  N   UNL     1       9.012  11.284  17.884  0.00  0.00    +0.000 N 
ATOM     25  C   UNL     1       9.917  12.215  18.341  0.00  0.00    +0.000 A 
ATOM     26  N   UNL     1       9.926  13.460  17.921  0.00  0.00    +0.000 NA
ATOM     27  N   UNL     1      10.917  14.209  18.530  0.00  0.00    +0.000 NA
ATOM     28  C   UNL     1      11.640  13.476  19.349  0.00  0.00    +0.000 A 
ATOM     29  S   UNL     1      11.171  11.835  19.436  0.00  0.00    +0.000 S 
ATOM     30  H   UNL     1       8.394  11.629  17.163  0.00  0.00    +0.000 HD
ENDBRANCH  21  22
ENDBRANCH  20  21
ENDBRANCH  18  20
ENDBRANCH  16  17
ENDBRANCH   7  16
TORSDOF 7
ENDMDL
MODEL 4
REMARK VINA RESULT:      -7.2      4.427      9.814
REMARK  Name = 
REMARK  10 active torsions:
REMARK  status: ('A' for Active; 'I' for Inactive)
REMARK    1  A    between atoms: C_1  and  O_2
REMARK    2  A    between atoms: O_2  and  C_3
REMARK    3  A    between atoms: C_4  and  C_5
REMARK    4  A    between atoms: C_8  and  O_9
REMARK    5  A    between atoms: C_10  and  C_11
REMARK    6  A    between atoms: C_11  and  C_12
REMARK    7  A    between atoms: C_13  and  C_14
REMARK    8  A    between atoms: C_13  and  C_15
REMARK    9  A    between atoms: C_15  and  C_16
REMARK   10  A    between atoms: C_16  and  C_17
REMARK                            x       y       z     vdW  Elec       q    Type
REMARK                         _______ _______ _______ _____ _____    ______ ____
ROOT
ATOM      1  C   UNL     1      10.502  13.635  20.784  0.00  0.00    +0.000 A 
ATOM      2  C   UNL     1       9.906  14.514  21.732  0.00  0.00    +0.000 A 
ATOM      3  C   UNL     1      10.145  16.001  21.737  0.00  0.00    +0.000 C 
ATOM      4  C   UNL     1       9.057  13.977  22.697  0.00  0.00    +0.000 A 
ATOM      5  C   UNL     1       8.804  12.627  22.725  0.00  0.00    +0.000 A 
ATOM      6  C   UNL     1       9.360  11.748  21.808  0.00  0.00    +0.000 A 
ATOM      7  C   UNL     1      10.234  12.226  20.811  0.00  0.00    +0.000 A 
ATOM      8  C   UNL     1       7.910  12.337  23.821  0.00  0.00    +0.000 C 
ATOM      9  O   UNL     1       7.489  11.228  24.109  0.00  0.00    +0.000 OA
ATOM     10  O   UNL     1       7.641  13.516  24.447  0.00  0.00    +0.000 OA
ATOM     11  C   UNL     1       8.316  14.619  23.806  0.00  0.00    +0.000 C 
ENDROOT
BRANCH   1  13
ATOM     12  C   UNL     1      11.101  14.628  18.673  0.00  0.00    +0.000 C 
ATOM     13  O   UNL     1      11.458  14.226  19.990  0.00  0.00    +0.000 OA
ENDBRANCH   1  13
BRANCH   6  14
ATOM     14  O   UNL     1       9.064  10.405  21.881  0.00  0.00    +0.000 OA
ATOM     15  H   UNL     1       9.024  10.038  20.970  0.00  0.00    +0.000 HD
ENDBRANCH   6  14
BRANCH   7  16
ATOM     16  C   UNL     1      10.822  11.225  19.830  0.00  0.00    +0.000 C 
BRANCH  16  17
ATOM     17  C   UNL     1       9.820  10.397  19.084  0.00  0.00    +0.000 C 
ATOM     18  C   UNL     1       8.873  10.754  18.198  0.00  0.00    +0.000 C 
ATOM     19  C   UNL     1       8.604  12.163  17.769  0.00  0.00    +0.000 C 
BRANCH  18  20
ATOM     20  C   UNL     1       7.947   9.674  17.675  0.00  0.00    +0.000 C 
BRANCH  20  21
ATOM     21  C   UNL     1       8.282   8.256  18.133  0.00  0.00    +0.000 C 
BRANCH  21  22
ATOM     22  C   UNL     1       7.208   7.293  17.650  0.00  0.00    +0.000 C 
ATOM     23  O   UNL     1       6.633   7.454  16.579  0.00  0.00    +0.000 OA
ATOM     24  N   UNL     1       6.974   6.276  18.548  0.00  0.00    +0.000 N 
ATOM     25  C   UNL     1       6.103   5.229  18.352  0.00  0.00    +0.000 A 
ATOM     26  N   UNL     1       5.722   4.432  19.326  0.00  0.00    +0.000 NA
ATOM     27  N   UNL     1       4.838   3.462  18.890  0.00  0.00    +0.000 NA
ATOM     28  C   UNL     1       4.630   3.546  17.593  0.00  0.00    +0.000 A 
ATOM     29  S   UNL     1       5.491   4.802  16.817  0.00  0.00    +0.000 S 
ATOM     30  H   UNL     1       7.331   6.344  19.491  0.00  0.00    +0.000 HD
ENDBRANCH  21  22
ENDBRANCH  20  21
ENDBRANCH  18  20
ENDBRANCH  16  17
ENDBRANCH   7  16
TORSDOF 7
ENDMDL
MODEL 5
REMARK VINA RESULT:      -7.1      5.121      8.199
REMARK  Name = 
REMARK  10 active torsions:
REMARK  status: ('A' for Active; 'I' for Inactive)
REMARK    1  A    between atoms: C_1  and  O_2
REMARK    2  A    between atoms: O_2  and  C_3
REMARK    3  A    between atoms: C_4  and  C_5
REMARK    4  A    between atoms: C_8  and  O_9
REMARK    5  A    between atoms: C_10  and  C_11
REMARK    6  A    between atoms: C_11  and  C_12
REMARK    7  A    between atoms: C_13  and  C_14
REMARK    8  A    between atoms: C_13  and  C_15
REMARK    9  A    between atoms: C_15  and  C_16
REMARK   10  A    between atoms: C_16  and  C_17
REMARK                            x       y       z     vdW  Elec       q    Type
REMARK                         _______ _______ _______ _____ _____    ______ ____
ROOT
ATOM      1  C   UNL     1      -0.481  11.191  20.833  0.00  0.00    +0.000 A 
ATOM      2  C   UNL     1      -1.767  11.765  20.627  0.00  0.00    +0.000 A 
ATOM      3  C   UNL     1      -2.516  12.511  21.700  0.00  0.00    +0.000 C 
ATOM      4  C   UNL     1      -2.361  11.638  19.373  0.00  0.00    +0.000 A 
ATOM      5  C   UNL     1      -1.711  10.972  18.363  0.00  0.00    +0.000 A 
ATOM      6  C   UNL     1      -0.454  10.413  18.529  0.00  0.00    +0.000 A 
ATOM      7  C   UNL     1       0.198  10.500  19.775  0.00  0.00    +0.000 A 
ATOM      8  C   UNL     1      -2.545  10.976  17.183  0.00  0.00    +0.000 C 
ATOM      9  O   UNL     1      -2.248  10.471  16.112  0.00  0.00    +0.000 OA
ATOM     10  O   UNL     1      -3.693  11.637  17.500  0.00  0.00    +0.000 OA
ATOM     11  C   UNL     1      -3.672  12.103  18.867  0.00  0.00    +0.000 C 
ENDROOT
BRANCH   1  13
ATOM     12  C   UNL     1      -0.361  10.100  22.977  0.00  0.00    +0.000 C 
ATOM     13  O   UNL     1      -0.058  11.211  22.142  0.00  0.00    +0.000 OA
ENDBRANCH   1  13
BRANCH   6  14
ATOM     14  O   UNL     1       0.152   9.763  17.477  0.00  0.00    +0.000 OA
ATOM     15  H   UNL     1       0.036  10.300  16.662  0.00  0.00    +0.000 HD
ENDBRANCH   6  14
BRANCH   7  16
ATOM     16  C   UNL     1       1.575   9.870  19.913  0.00  0.00    +0.000 C 
BRANCH  16  17
ATOM     17  C   UNL     1       1.579   8.394  20.173  0.00  0.00    +0.000 C 
ATOM     18  C   UNL     1       2.111   7.381  19.466  0.00  0.00    +0.000 C 
ATOM     19  C   UNL     1       2.842   7.546  18.170  0.00  0.00    +0.000 C 
BRANCH  18  20
ATOM     20  C   UNL     1       1.868   5.968  19.959  0.00  0.00    +0.000 C 
BRANCH  20  21
ATOM     21  C   UNL     1       3.128   5.175  20.300  0.00  0.00    +0.000 C 
BRANCH  21  22
ATOM     22  C   UNL     1       3.788   4.684  19.020  0.00  0.00    +0.000 C 
ATOM     23  O   UNL     1       3.143   4.135  18.133  0.00  0.00    +0.000 OA
ATOM     24  N   UNL     1       5.145   4.918  19.007  0.00  0.00    +0.000 N 
ATOM     25  C   UNL     1       5.988   4.638  17.958  0.00  0.00    +0.000 A 
ATOM     26  N   UNL     1       7.297   4.638  18.080  0.00  0.00    +0.000 NA
ATOM     27  N   UNL     1       7.932   4.318  16.894  0.00  0.00    +0.000 NA
ATOM     28  C   UNL     1       7.068   4.136  15.918  0.00  0.00    +0.000 A 
ATOM     29  S   UNL     1       5.433   4.343  16.370  0.00  0.00    +0.000 S 
ATOM     30  H   UNL     1       5.620   5.173  19.862  0.00  0.00    +0.000 HD
ENDBRANCH  21  22
ENDBRANCH  20  21
ENDBRANCH  18  20
ENDBRANCH  16  17
ENDBRANCH   7  16
TORSDOF 7
ENDMDL
MODEL 6
REMARK VINA RESULT:      -7.1      6.426      8.742
REMARK  Name = 
REMARK  10 active torsions:
REMARK  status: ('A' for Active; 'I' for Inactive)
REMARK    1  A    between atoms: C_1  and  O_2
REMARK    2  A    between atoms: O_2  and  C_3
REMARK    3  A    between atoms: C_4  and  C_5
REMARK    4  A    between atoms: C_8  and  O_9
REMARK    5  A    between atoms: C_10  and  C_11
REMARK    6  A    between atoms: C_11  and  C_12
REMARK    7  A    between atoms: C_13  and  C_14
REMARK    8  A    between atoms: C_13  and  C_15
REMARK    9  A    between atoms: C_15  and  C_16
REMARK   10  A    between atoms: C_16  and  C_17
REMARK                            x       y       z     vdW  Elec       q    Type
REMARK                         _______ _______ _______ _____ _____    ______ ____
ROOT
ATOM      1  C   UNL     1       3.755   5.855  17.727  0.00  0.00    +0.000 A 
ATOM      2  C   UNL     1       3.840   4.478  17.377  0.00  0.00    +0.000 A 
ATOM      3  C   UNL     1       4.710   3.965  16.260  0.00  0.00    +0.000 C 
ATOM      4  C   UNL     1       3.088   3.558  18.105  0.00  0.00    +0.000 A 
ATOM      5  C   UNL     1       2.286   3.980  19.137  0.00  0.00    +0.000 A 
ATOM      6  C   UNL     1       2.191   5.312  19.509  0.00  0.00    +0.000 A 
ATOM      7  C   UNL     1       2.921   6.293  18.809  0.00  0.00    +0.000 A 
ATOM      8  C   UNL     1       1.613   2.837  19.710  0.00  0.00    +0.000 C 
ATOM      9  O   UNL     1       0.836   2.877  20.650  0.00  0.00    +0.000 OA
ATOM     10  O   UNL     1       2.012   1.739  19.009  0.00  0.00    +0.000 OA
ATOM     11  C   UNL     1       2.953   2.090  17.972  0.00  0.00    +0.000 C 
ENDROOT
BRANCH   1  13
ATOM     12  C   UNL     1       5.726   7.098  17.119  0.00  0.00    +0.000 C 
ATOM     13  O   UNL     1       4.388   6.701  16.846  0.00  0.00    +0.000 OA
ENDBRANCH   1  13
BRANCH   6  14
ATOM     14  O   UNL     1       1.376   5.675  20.558  0.00  0.00    +0.000 OA
ATOM     15  H   UNL     1       1.412   6.651  20.666  0.00  0.00    +0.000 HD
ENDBRANCH   6  14
BRANCH   7  16
ATOM     16  C   UNL     1       2.785   7.742  19.250  0.00  0.00    +0.000 C 
BRANCH  16  17
ATOM     17  C   UNL     1       1.752   8.539  18.514  0.00  0.00    +0.000 C 
ATOM     18  C   UNL     1       0.762   9.327  18.971  0.00  0.00    +0.000 C 
ATOM     19  C   UNL     1       0.467   9.558  20.421  0.00  0.00    +0.000 C 
BRANCH  18  20
ATOM     20  C   UNL     1      -0.183   9.940  17.957  0.00  0.00    +0.000 C 
BRANCH  20  21
ATOM     21  C   UNL     1      -0.984  11.139  18.459  0.00  0.00    +0.000 C 
BRANCH  21  22
ATOM     22  C   UNL     1      -2.464  10.920  18.184  0.00  0.00    +0.000 C 
ATOM     23  O   UNL     1      -2.864   9.956  17.540  0.00  0.00    +0.000 OA
ATOM     24  N   UNL     1      -3.250  11.915  18.720  0.00  0.00    +0.000 N 
ATOM     25  C   UNL     1      -4.625  11.948  18.682  0.00  0.00    +0.000 A 
ATOM     26  N   UNL     1      -5.317  13.028  18.974  0.00  0.00    +0.000 NA
ATOM     27  N   UNL     1      -6.679  12.822  18.855  0.00  0.00    +0.000 NA
ATOM     28  C   UNL     1      -6.952  11.578  18.522  0.00  0.00    +0.000 A 
ATOM     29  S   UNL     1      -5.580  10.577  18.334  0.00  0.00    +0.000 S 
ATOM     30  H   UNL     1      -2.826  12.774  19.041  0.00  0.00    +0.000 HD
ENDBRANCH  21  22
ENDBRANCH  20  21
ENDBRANCH  18  20
ENDBRANCH  16  17
ENDBRANCH   7  16
TORSDOF 7
ENDMDL
MODEL 7
REMARK VINA RESULT:      -7.1      6.659      9.812
REMARK  Name = 
REMARK  10 active torsions:
REMARK  status: ('A' for Active; 'I' for Inactive)
REMARK    1  A    between atoms: C_1  and  O_2
REMARK    2  A    between atoms: O_2  and  C_3
REMARK    3  A    between atoms: C_4  and  C_5
REMARK    4  A    between atoms: C_8  and  O_9
REMARK    5  A    between atoms: C_10  and  C_11
REMARK    6  A    between atoms: C_11  and  C_12
REMARK    7  A    between atoms: C_13  and  C_14
REMARK    8  A    between atoms: C_13  and  C_15
REMARK    9  A    between atoms: C_15  and  C_16
REMARK   10  A    between atoms: C_16  and  C_17
REMARK                            x       y       z     vdW  Elec       q    Type
REMARK                         _______ _______ _______ _____ _____    ______ ____
ROOT
ATOM      1  C   UNL     1      -2.498  12.441  20.339  0.00  0.00    +0.000 A 
ATOM      2  C   UNL     1      -3.885  12.618  20.065  0.00  0.00    +0.000 A 
ATOM      3  C   UNL     1      -4.844  13.239  21.046  0.00  0.00    +0.000 C 
ATOM      4  C   UNL     1      -4.378  12.203  18.830  0.00  0.00    +0.000 A 
ATOM      5  C   UNL     1      -3.537  11.639  17.901  0.00  0.00    +0.000 A 
ATOM      6  C   UNL     1      -2.182  11.465  18.134  0.00  0.00    +0.000 A 
ATOM      7  C   UNL     1      -1.621  11.856  19.367  0.00  0.00    +0.000 A 
ATOM      8  C   UNL     1      -4.299  11.292  16.725  0.00  0.00    +0.000 C 
ATOM      9  O   UNL     1      -3.840  10.779  15.717  0.00  0.00    +0.000 OA
ATOM     10  O   UNL     1      -5.594  11.644  16.962  0.00  0.00    +0.000 OA
ATOM     11  C   UNL     1      -5.747  12.237  18.269  0.00  0.00    +0.000 C 
ENDROOT
BRANCH   1  13
ATOM     12  C   UNL     1      -1.455  13.925  21.923  0.00  0.00    +0.000 C 
ATOM     13  O   UNL     1      -2.142  12.712  21.640  0.00  0.00    +0.000 OA
ENDBRANCH   1  13
BRANCH   6  14
ATOM     14  O   UNL     1      -1.387  10.899  17.162  0.00  0.00    +0.000 OA
ATOM     15  H   UNL     1      -1.856  10.946  16.301  0.00  0.00    +0.000 HD
ENDBRANCH   6  14
BRANCH   7  16
ATOM     16  C   UNL     1      -0.131  11.643  19.579  0.00  0.00    +0.000 C 
BRANCH  16  17
ATOM     17  C   UNL     1       0.263  10.261  20.002  0.00  0.00    +0.000 C 
ATOM     18  C   UNL     1       0.256   9.680  21.215  0.00  0.00    +0.000 C 
ATOM     19  C   UNL     1      -0.162  10.365  22.479  0.00  0.00    +0.000 C 
BRANCH  18  20
ATOM     20  C   UNL     1       0.803   8.271  21.330  0.00  0.00    +0.000 C 
BRANCH  20  21
ATOM     21  C   UNL     1       1.793   7.869  20.239  0.00  0.00    +0.000 C 
BRANCH  21  22
ATOM     22  C   UNL     1       2.057   6.372  20.311  0.00  0.00    +0.000 C 
ATOM     23  O   UNL     1       1.247   5.599  20.812  0.00  0.00    +0.000 OA
ATOM     24  N   UNL     1       3.277   6.029  19.775  0.00  0.00    +0.000 N 
ATOM     25  C   UNL     1       3.755   4.745  19.648  0.00  0.00    +0.000 A 
ATOM     26  N   UNL     1       5.013   4.481  19.373  0.00  0.00    +0.000 NA
ATOM     27  N   UNL     1       5.258   3.121  19.306  0.00  0.00    +0.000 NA
ATOM     28  C   UNL     1       4.158   2.423  19.489  0.00  0.00    +0.000 A 
ATOM     29  S   UNL     1       2.756   3.365  19.752  0.00  0.00    +0.000 S 
ATOM     30  H   UNL     1       3.964   6.745  19.587  0.00  0.00    +0.000 HD
ENDBRANCH  21  22
ENDBRANCH  20  21
ENDBRANCH  18  20
ENDBRANCH  16  17
ENDBRANCH   7  16
TORSDOF 7
ENDMDL
MODEL 8
REMARK VINA RESULT:      -7.0      7.271     10.476
REMARK  Name = 
REMARK  10 active torsions:
REMARK  status: ('A' for Active; 'I' for Inactive)
REMARK    1  A    between atoms: C_1  and  O_2
REMARK    2  A    between atoms: O_2  and  C_3
REMARK    3  A    between atoms: C_4  and  C_5
REMARK    4  A    between atoms: C_8  and  O_9
REMARK    5  A    between atoms: C_10  and  C_11
REMARK    6  A    between atoms: C_11  and  C_12
REMARK    7  A    between atoms: C_13  and  C_14
REMARK    8  A    between atoms: C_13  and  C_15
REMARK    9  A    between atoms: C_15  and  C_16
REMARK   10  A    between atoms: C_16  and  C_17
REMARK                            x       y       z     vdW  Elec       q    Type
REMARK                         _______ _______ _______ _____ _____    ______ ____
ROOT
ATOM      1  C   UNL     1      -2.413  12.108  19.784  0.00  0.00    +0.000 A 
ATOM      2  C   UNL     1      -3.823  12.306  19.791  0.00  0.00    +0.000 A 
ATOM      3  C   UNL     1      -4.680  12.157  18.562  0.00  0.00    +0.000 C 
ATOM      4  C   UNL     1      -4.441  12.648  20.992  0.00  0.00    +0.000 A 
ATOM      5  C   UNL     1      -3.699  12.787  22.139  0.00  0.00    +0.000 A 
ATOM      6  C   UNL     1      -2.327  12.589  22.166  0.00  0.00    +0.000 A 
ATOM      7  C   UNL     1      -1.640  12.249  20.983  0.00  0.00    +0.000 A 
ATOM      8  C   UNL     1      -4.575  13.153  23.227  0.00  0.00    +0.000 C 
ATOM      9  O   UNL     1      -4.223  13.343  24.380  0.00  0.00    +0.000 OA
ATOM     10  O   UNL     1      -5.837  13.240  22.719  0.00  0.00    +0.000 OA
ATOM     11  C   UNL     1      -5.859  12.930  21.309  0.00  0.00    +0.000 C 
ENDROOT
BRANCH   1  13
ATOM     12  C   UNL     1      -1.707  10.636  18.012  0.00  0.00    +0.000 C 
ATOM     13  O   UNL     1      -1.873  11.952  18.528  0.00  0.00    +0.000 OA
ENDBRANCH   1  13
BRANCH   6  14
ATOM     14  O   UNL     1      -1.636  12.735  23.348  0.00  0.00    +0.000 OA
ATOM     15  H   UNL     1      -0.874  13.337  23.199  0.00  0.00    +0.000 HD
ENDBRANCH   6  14
BRANCH   7  16
ATOM     16  C   UNL     1      -0.135  12.044  21.059  0.00  0.00    +0.000 C 
BRANCH  16  17
ATOM     17  C   UNL     1       0.326  10.628  20.900  0.00  0.00    +0.000 C 
ATOM     18  C   UNL     1       0.294   9.594  21.760  0.00  0.00    +0.000 C 
ATOM     19  C   UNL     1      -0.231   9.674  23.160  0.00  0.00    +0.000 C 
BRANCH  18  20
ATOM     20  C   UNL     1       0.925   8.287  21.322  0.00  0.00    +0.000 C 
BRANCH  20  21
ATOM     21  C   UNL     1       1.726   8.357  20.023  0.00  0.00    +0.000 C 
BRANCH  21  22
ATOM     22  C   UNL     1       2.227   6.969  19.654  0.00  0.00    +0.000 C 
ATOM     23  O   UNL     1       2.684   6.724  18.542  0.00  0.00    +0.000 OA
ATOM     24  N   UNL     1       2.089   6.069  20.687  0.00  0.00    +0.000 N 
ATOM     25  C   UNL     1       2.511   4.761  20.661  0.00  0.00    +0.000 A 
ATOM     26  N   UNL     1       2.135   3.876  21.558  0.00  0.00    +0.000 NA
ATOM     27  N   UNL     1       2.679   2.627  21.320  0.00  0.00    +0.000 NA
ATOM     28  C   UNL     1       3.481   2.642  20.276  0.00  0.00    +0.000 A 
ATOM     29  S   UNL     1       3.631   4.166  19.517  0.00  0.00    +0.000 S 
ATOM     30  H   UNL     1       1.509   6.300  21.481  0.00  0.00    +0.000 HD
ENDBRANCH  21  22
ENDBRANCH  20  21
ENDBRANCH  18  20
ENDBRANCH  16  17
ENDBRANCH   7  16
TORSDOF 7
ENDMDL
MODEL 9
REMARK VINA RESULT:      -7.0      6.861      9.249
REMARK  Name = 
REMARK  10 active torsions:
REMARK  status: ('A' for Active; 'I' for Inactive)
REMARK    1  A    between atoms: C_1  and  O_2
REMARK    2  A    between atoms: O_2  and  C_3
REMARK    3  A    between atoms: C_4  and  C_5
REMARK    4  A    between atoms: C_8  and  O_9
REMARK    5  A    between atoms: C_10  and  C_11
REMARK    6  A    between atoms: C_11  and  C_12
REMARK    7  A    between atoms: C_13  and  C_14
REMARK    8  A    between atoms: C_13  and  C_15
REMARK    9  A    between atoms: C_15  and  C_16
REMARK   10  A    between atoms: C_16  and  C_17
REMARK                            x       y       z     vdW  Elec       q    Type
REMARK                         _______ _______ _______ _____ _____    ______ ____
ROOT
ATOM      1  C   UNL     1       1.986   6.894  19.680  0.00  0.00    +0.000 A 
ATOM      2  C   UNL     1       2.383   5.555  19.958  0.00  0.00    +0.000 A 
ATOM      3  C   UNL     1       1.793   4.737  21.076  0.00  0.00    +0.000 C 
ATOM      4  C   UNL     1       3.360   4.971  19.155  0.00  0.00    +0.000 A 
ATOM      5  C   UNL     1       3.921   5.678  18.119  0.00  0.00    +0.000 A 
ATOM      6  C   UNL     1       3.546   6.978  17.817  0.00  0.00    +0.000 A 
ATOM      7  C   UNL     1       2.568   7.629  18.596  0.00  0.00    +0.000 A 
ATOM      8  C   UNL     1       4.905   4.850  17.461  0.00  0.00    +0.000 C 
ATOM      9  O   UNL     1       5.574   5.186  16.497  0.00  0.00    +0.000 OA
ATOM     10  O   UNL     1       4.933   3.655  18.115  0.00  0.00    +0.000 OA
ATOM     11  C   UNL     1       3.983   3.629  19.202  0.00  0.00    +0.000 C 
ENDROOT
BRANCH   1  13
ATOM     12  C   UNL     1       1.675   8.431  21.508  0.00  0.00    +0.000 C 
ATOM     13  O   UNL     1       1.154   7.442  20.629  0.00  0.00    +0.000 OA
ENDBRANCH   1  13
BRANCH   6  14
ATOM     14  O   UNL     1       4.138   7.634  16.761  0.00  0.00    +0.000 OA
ATOM     15  H   UNL     1       4.927   7.125  16.472  0.00  0.00    +0.000 HD
ENDBRANCH   6  14
BRANCH   7  16
ATOM     16  C   UNL     1       2.190   9.055  18.230  0.00  0.00    +0.000 C 
BRANCH  16  17
ATOM     17  C   UNL     1       0.770   9.248  17.793  0.00  0.00    +0.000 C 
ATOM     18  C   UNL     1      -0.177  10.093  18.237  0.00  0.00    +0.000 C 
ATOM     19  C   UNL     1       0.017  11.067  19.357  0.00  0.00    +0.000 C 
BRANCH  18  20
ATOM     20  C   UNL     1      -1.564   9.984  17.635  0.00  0.00    +0.000 C 
BRANCH  20  21
ATOM     21  C   UNL     1      -2.098  11.267  17.002  0.00  0.00    +0.000 C 
BRANCH  21  22
ATOM     22  C   UNL     1      -3.597  11.374  17.244  0.00  0.00    +0.000 C 
ATOM     23  O   UNL     1      -4.412  11.047  16.388  0.00  0.00    +0.000 OA
ATOM     24  N   UNL     1      -3.891  11.878  18.491  0.00  0.00    +0.000 N 
ATOM     25  C   UNL     1      -5.157  12.027  19.007  0.00  0.00    +0.000 A 
ATOM     26  N   UNL     1      -5.405  12.741  20.083  0.00  0.00    +0.000 NA
ATOM     27  N   UNL     1      -6.750  12.753  20.404  0.00  0.00    +0.000 NA
ATOM     28  C   UNL     1      -7.449  12.006  19.576  0.00  0.00    +0.000 A 
ATOM     29  S   UNL     1      -6.526  11.239  18.359  0.00  0.00    +0.000 S 
ATOM     30  H   UNL     1      -3.167  12.320  19.040  0.00  0.00    +0.000 HD
ENDBRANCH  21  22
ENDBRANCH  20  21
ENDBRANCH  18  20
ENDBRANCH  16  17
ENDBRANCH   7  16
TORSDOF 7
ENDMDL
