MODEL 1
REMARK VINA RESULT:      -7.4      0.000      0.000
REMARK  Name = 
REMARK  11 active torsions:
REMARK  status: ('A' for Active; 'I' for Inactive)
REMARK    1  A    between atoms: N_5  and  C_6
REMARK    2  A    between atoms: C_6  and  O_7
REMARK    3  A    between atoms: O_7  and  C_8
REMARK    4  A    between atoms: C_8  and  C_9
REMARK    5  A    between atoms: C_9  and  C_10
REMARK    6  A    between atoms: C_10  and  S_11
REMARK    7  A    between atoms: S_11  and  N_14
REMARK    8  A    between atoms: N_14  and  C_15
REMARK    9  A    between atoms: C_15  and  C_16
REMARK   10  A    between atoms: C_20  and  O_21
REMARK   11  A    between atoms: O_21  and  C_22
REMARK                            x       y       z     vdW  Elec       q    Type
REMARK                         _______ _______ _______ _____ _____    ______ ____
ROOT
ATOM      1  S   UNL     1       2.607   3.452  20.785  0.00  0.00    +0.000 S 
ATOM      2  O   UNL     1       1.828   3.292  21.994  0.00  0.00    +0.000 OA
ATOM      3  O   UNL     1       3.753   2.634  20.500  0.00  0.00    +0.000 OA
ENDROOT
BRANCH   1   4
ATOM      4  N   UNL     1       3.102   5.074  20.761  0.00  0.00    +0.000 NA
ATOM      5  H   UNL     1       3.668   5.291  19.946  0.00  0.00    +0.000 HD
BRANCH   4   6
ATOM      6  C   UNL     1       1.977   6.051  20.885  0.00  0.00    +0.000 C 
BRANCH   6   7
ATOM      7  C   UNL     1       1.934   7.097  19.788  0.00  0.00    +0.000 A 
ATOM      8  C   UNL     1       2.703   6.941  18.623  0.00  0.00    +0.000 A 
ATOM      9  C   UNL     1       2.792   7.974  17.683  0.00  0.00    +0.000 A 
ATOM     10  C   UNL     1       2.176   9.200  17.935  0.00  0.00    +0.000 A 
ATOM     11  C   UNL     1       1.427   9.365  19.099  0.00  0.00    +0.000 A 
ATOM     12  C   UNL     1       1.222   8.287  19.948  0.00  0.00    +0.000 A 
BRANCH  11  13
ATOM     13  O   UNL     1       0.875  10.586  19.336  0.00  0.00    +0.000 OA
BRANCH  13  14
ATOM     14  C   UNL     1      -0.506  10.577  19.768  0.00  0.00    +0.000 C 
ATOM     15  C   UNL     1      -0.560  11.412  21.052  0.00  0.00    +0.000 C 
ATOM     16  C   UNL     1       0.047  12.796  20.809  0.00  0.00    +0.000 C 
ATOM     17  C   UNL     1      -0.494  13.517  19.568  0.00  0.00    +0.000 C 
ATOM     18  C   UNL     1      -0.858  12.634  18.371  0.00  0.00    +0.000 C 
ATOM     19  C   UNL     1      -1.440  11.287  18.777  0.00  0.00    +0.000 C 
ENDBRANCH  13  14
ENDBRANCH  11  13
ENDBRANCH   6   7
ENDBRANCH   4   6
ENDBRANCH   1   4
BRANCH   1  20
ATOM     20  C   UNL     1       1.472   3.395  19.385  0.00  0.00    +0.000 C 
BRANCH  20  21
ATOM     21  C   UNL     1       1.734   2.238  18.425  0.00  0.00    +0.000 C 
BRANCH  21  22
ATOM     22  C   UNL     1       2.724   2.536  17.297  0.00  0.00    +0.000 C 
BRANCH  22  23
ATOM     23  O   UNL     1       3.235   3.864  17.468  0.00  0.00    +0.000 OA
BRANCH  23  24
ATOM     24  C   UNL     1       4.313   4.119  16.561  0.00  0.00    +0.000 C 
BRANCH  24  29
ATOM     25  O   UNL     1       8.281   7.275  18.593  0.00  0.00    +0.000 OA
ATOM     26  C   UNL     1       7.380   6.570  18.155  0.00  0.00    +0.000 A 
ATOM     27  C   UNL     1       6.818   5.468  18.951  0.00  0.00    +0.000 A 
ATOM     28  C   UNL     1       5.846   4.719  18.425  0.00  0.00    +0.000 A 
ATOM     29  N   UNL     1       5.351   4.949  17.158  0.00  0.00    +0.000 N 
ATOM     30  C   UNL     1       5.840   5.980  16.362  0.00  0.00    +0.000 A 
ATOM     31  O   UNL     1       5.433   6.220  15.227  0.00  0.00    +0.000 OA
ATOM     32  N   UNL     1       6.834   6.742  16.917  0.00  0.00    +0.000 N 
ATOM     33  H   UNL     1       7.204   7.491  16.352  0.00  0.00    +0.000 HD
ENDBRANCH  24  29
ENDBRANCH  23  24
ENDBRANCH  22  23
ENDBRANCH  21  22
ENDBRANCH  20  21
ENDBRANCH   1  20
TORSDOF 11
ENDMDL
MODEL 2
REMARK VINA RESULT:      -7.2      1.786      2.631
REMARK  Name = 
REMARK  11 active torsions:
REMARK  status: ('A' for Active; 'I' for Inactive)
REMARK    1  A    between atoms: N_5  and  C_6
REMARK    2  A    between atoms: C_6  and  O_7
REMARK    3  A    between atoms: O_7  and  C_8
REMARK    4  A    between atoms: C_8  and  C_9
REMARK    5  A    between atoms: C_9  and  C_10
REMARK    6  A    between atoms: C_10  and  S_11
REMARK    7  A    between atoms: S_11  and  N_14
REMARK    8  A    between atoms: N_14  and  C_15
REMARK    9  A    between atoms: C_15  and  C_16
REMARK   10  A    between atoms: C_20  and  O_21
REMARK   11  A    between atoms: O_21  and  C_22
REMARK                            x       y       z     vdW  Elec       q    Type
REMARK                         _______ _______ _______ _____ _____    ______ ____
ROOT
ATOM      1  S   UNL     1       3.334   2.941  20.724  0.00  0.00    +0.000 S 
ATOM      2  O   UNL     1       2.893   2.365  21.977  0.00  0.00    +0.000 OA
ATOM      3  O   UNL     1       4.696   2.845  20.276  0.00  0.00    +0.000 OA
ENDROOT
BRANCH   1   4
ATOM      4  N   UNL     1       2.920   4.584  20.795  0.00  0.00    +0.000 NA
ATOM      5  H   UNL     1       3.078   4.980  21.717  0.00  0.00    +0.000 HD
BRANCH   4   6
ATOM      6  C   UNL     1       3.588   5.421  19.751  0.00  0.00    +0.000 C 
BRANCH   6   7
ATOM      7  C   UNL     1       2.780   6.623  19.303  0.00  0.00    +0.000 A 
ATOM      8  C   UNL     1       3.056   7.253  18.079  0.00  0.00    +0.000 A 
ATOM      9  C   UNL     1       2.425   8.454  17.736  0.00  0.00    +0.000 A 
ATOM     10  C   UNL     1       1.569   9.076  18.646  0.00  0.00    +0.000 A 
ATOM     11  C   UNL     1       1.307   8.464  19.869  0.00  0.00    +0.000 A 
ATOM     12  C   UNL     1       1.820   7.202  20.136  0.00  0.00    +0.000 A 
BRANCH  11  13
ATOM     13  O   UNL     1       0.503   9.117  20.752  0.00  0.00    +0.000 OA
BRANCH  13  14
ATOM     14  C   UNL     1       1.182   9.799  21.833  0.00  0.00    +0.000 C 
ATOM     15  C   UNL     1       1.171  11.289  21.474  0.00  0.00    +0.000 C 
ATOM     16  C   UNL     1      -0.259  11.755  21.194  0.00  0.00    +0.000 C 
ATOM     17  C   UNL     1      -1.278  11.362  22.272  0.00  0.00    +0.000 C 
ATOM     18  C   UNL     1      -1.048  10.018  22.969  0.00  0.00    +0.000 C 
ATOM     19  C   UNL     1       0.427   9.692  23.166  0.00  0.00    +0.000 C 
ENDBRANCH  13  14
ENDBRANCH  11  13
ENDBRANCH   6   7
ENDBRANCH   4   6
ENDBRANCH   1   4
BRANCH   1  20
ATOM     20  C   UNL     1       2.237   2.343  19.425  0.00  0.00    +0.000 C 
BRANCH  20  21
ATOM     21  C   UNL     1       2.910   2.206  18.062  0.00  0.00    +0.000 C 
BRANCH  21  22
ATOM     22  C   UNL     1       2.442   3.203  16.999  0.00  0.00    +0.000 C 
BRANCH  22  23
ATOM     23  O   UNL     1       3.496   4.140  16.748  0.00  0.00    +0.000 OA
BRANCH  23  24
ATOM     24  C   UNL     1       4.776   3.505  16.830  0.00  0.00    +0.000 C 
BRANCH  24  29
ATOM     25  O   UNL     1       8.347   5.688  13.319  0.00  0.00    +0.000 OA
ATOM     26  C   UNL     1       7.550   5.180  14.098  0.00  0.00    +0.000 A 
ATOM     27  C   UNL     1       6.482   4.286  13.622  0.00  0.00    +0.000 A 
ATOM     28  C   UNL     1       5.629   3.767  14.508  0.00  0.00    +0.000 A 
ATOM     29  N   UNL     1       5.721   4.041  15.857  0.00  0.00    +0.000 N 
ATOM     30  C   UNL     1       6.712   4.874  16.365  0.00  0.00    +0.000 A 
ATOM     31  O   UNL     1       6.830   5.149  17.558  0.00  0.00    +0.000 OA
ATOM     32  N   UNL     1       7.582   5.396  15.444  0.00  0.00    +0.000 N 
ATOM     33  H   UNL     1       8.304   6.006  15.794  0.00  0.00    +0.000 HD
ENDBRANCH  24  29
ENDBRANCH  23  24
ENDBRANCH  22  23
ENDBRANCH  21  22
ENDBRANCH  20  21
ENDBRANCH   1  20
TORSDOF 11
ENDMDL
MODEL 3
REMARK VINA RESULT:      -7.1      1.418      1.939
REMARK  Name = 
REMARK  11 active torsions:
REMARK  status: ('A' for Active; 'I' for Inactive)
REMARK    1  A    between atoms: N_5  and  C_6
REMARK    2  A    between atoms: C_6  and  O_7
REMARK    3  A    between atoms: O_7  and  C_8
REMARK    4  A    between atoms: C_8  and  C_9
REMARK    5  A    between atoms: C_9  and  C_10
REMARK    6  A    between atoms: C_10  and  S_11
REMARK    7  A    between atoms: S_11  and  N_14
REMARK    8  A    between atoms: N_14  and  C_15
REMARK    9  A    between atoms: C_15  and  C_16
REMARK   10  A    between atoms: C_20  and  O_21
REMARK   11  A    between atoms: O_21  and  C_22
REMARK                            x       y       z     vdW  Elec       q    Type
REMARK                         _______ _______ _______ _____ _____    ______ ____
ROOT
ATOM      1  S   UNL     1       1.771   4.432  20.528  0.00  0.00    +0.000 S 
ATOM      2  O   UNL     1       0.720   3.678  19.878  0.00  0.00    +0.000 OA
ATOM      3  O   UNL     1       2.430   3.958  21.714  0.00  0.00    +0.000 OA
ENDROOT
BRANCH   1   4
ATOM      4  N   UNL     1       1.106   5.954  20.872  0.00  0.00    +0.000 NA
ATOM      5  H   UNL     1       0.707   5.997  21.806  0.00  0.00    +0.000 HD
BRANCH   4   6
ATOM      6  C   UNL     1       2.057   7.089  20.664  0.00  0.00    +0.000 C 
BRANCH   6   7
ATOM      7  C   UNL     1       1.481   8.251  19.879  0.00  0.00    +0.000 A 
ATOM      8  C   UNL     1       1.969   8.561  18.599  0.00  0.00    +0.000 A 
ATOM      9  C   UNL     1       1.555   9.724  17.939  0.00  0.00    +0.000 A 
ATOM     10  C   UNL     1       0.708  10.627  18.584  0.00  0.00    +0.000 A 
ATOM     11  C   UNL     1       0.236  10.331  19.860  0.00  0.00    +0.000 A 
ATOM     12  C   UNL     1       0.532   9.107  20.443  0.00  0.00    +0.000 A 
BRANCH  11  13
ATOM     13  O   UNL     1      -0.553  11.253  20.479  0.00  0.00    +0.000 OA
BRANCH  13  14
ATOM     14  C   UNL     1      -0.045  11.775  21.730  0.00  0.00    +0.000 C 
ATOM     15  C   UNL     1       0.213  13.268  21.498  0.00  0.00    +0.000 C 
ATOM     16  C   UNL     1      -1.051  13.946  20.963  0.00  0.00    +0.000 C 
ATOM     17  C   UNL     1      -2.322  13.646  21.768  0.00  0.00    +0.000 C 
ATOM     18  C   UNL     1      -2.422  12.249  22.387  0.00  0.00    +0.000 C 
ATOM     19  C   UNL     1      -1.080  11.709  22.862  0.00  0.00    +0.000 C 
ENDBRANCH  13  14
ENDBRANCH  11  13
ENDBRANCH   6   7
ENDBRANCH   4   6
ENDBRANCH   1   4
BRANCH   1  20
ATOM     20  C   UNL     1       3.006   4.844  19.283  0.00  0.00    +0.000 C 
BRANCH  20  21
ATOM     21  C   UNL     1       2.480   4.798  17.851  0.00  0.00    +0.000 C 
BRANCH  21  22
ATOM     22  C   UNL     1       2.998   3.635  17.001  0.00  0.00    +0.000 C 
BRANCH  22  23
ATOM     23  O   UNL     1       4.346   3.343  17.390  0.00  0.00    +0.000 OA
BRANCH  23  24
ATOM     24  C   UNL     1       5.279   3.876  16.444  0.00  0.00    +0.000 C 
BRANCH  24  29
ATOM     25  O   UNL     1       8.292   8.011  18.359  0.00  0.00    +0.000 OA
ATOM     26  C   UNL     1       7.610   7.080  17.949  0.00  0.00    +0.000 A 
ATOM     27  C   UNL     1       7.664   5.755  18.586  0.00  0.00    +0.000 A 
ATOM     28  C   UNL     1       6.912   4.768  18.095  0.00  0.00    +0.000 A 
ATOM     29  N   UNL     1       6.081   4.954  17.009  0.00  0.00    +0.000 N 
ATOM     30  C   UNL     1       5.984   6.186  16.370  0.00  0.00    +0.000 A 
ATOM     31  O   UNL     1       5.261   6.397  15.398  0.00  0.00    +0.000 OA
ATOM     32  N   UNL     1       6.759   7.189  16.888  0.00  0.00    +0.000 N 
ATOM     33  H   UNL     1       6.705   8.088  16.434  0.00  0.00    +0.000 HD
ENDBRANCH  24  29
ENDBRANCH  23  24
ENDBRANCH  22  23
ENDBRANCH  21  22
ENDBRANCH  20  21
ENDBRANCH   1  20
TORSDOF 11
ENDMDL
MODEL 4
REMARK VINA RESULT:      -7.0      1.225      1.635
REMARK  Name = 
REMARK  11 active torsions:
REMARK  status: ('A' for Active; 'I' for Inactive)
REMARK    1  A    between atoms: N_5  and  C_6
REMARK    2  A    between atoms: C_6  and  O_7
REMARK    3  A    between atoms: O_7  and  C_8
REMARK    4  A    between atoms: C_8  and  C_9
REMARK    5  A    between atoms: C_9  and  C_10
REMARK    6  A    between atoms: C_10  and  S_11
REMARK    7  A    between atoms: S_11  and  N_14
REMARK    8  A    between atoms: N_14  and  C_15
REMARK    9  A    between atoms: C_15  and  C_16
REMARK   10  A    between atoms: C_20  and  O_21
REMARK   11  A    between atoms: O_21  and  C_22
REMARK                            x       y       z     vdW  Elec       q    Type
REMARK                         _______ _______ _______ _____ _____    ______ ____
ROOT
ATOM      1  S   UNL     1       2.156   3.853  20.434  0.00  0.00    +0.000 S 
ATOM      2  O   UNL     1       1.200   2.887  19.936  0.00  0.00    +0.000 OA
ATOM      3  O   UNL     1       2.273   4.162  21.833  0.00  0.00    +0.000 OA
ENDROOT
BRANCH   1   4
ATOM      4  N   UNL     1       1.835   5.297  19.604  0.00  0.00    +0.000 NA
ATOM      5  H   UNL     1       0.874   5.347  19.278  0.00  0.00    +0.000 HD
BRANCH   4   6
ATOM      6  C   UNL     1       2.184   6.528  20.377  0.00  0.00    +0.000 C 
BRANCH   6   7
ATOM      7  C   UNL     1       1.797   7.825  19.693  0.00  0.00    +0.000 A 
ATOM      8  C   UNL     1       2.141   8.055  18.351  0.00  0.00    +0.000 A 
ATOM      9  C   UNL     1       1.930   9.308  17.764  0.00  0.00    +0.000 A 
ATOM     10  C   UNL     1       1.443  10.365  18.535  0.00  0.00    +0.000 A 
ATOM     11  C   UNL     1       1.117  10.145  19.871  0.00  0.00    +0.000 A 
ATOM     12  C   UNL     1       1.189   8.864  20.400  0.00  0.00    +0.000 A 
BRANCH  11  13
ATOM     13  O   UNL     1       0.686  11.206  20.607  0.00  0.00    +0.000 OA
BRANCH  13  14
ATOM     14  C   UNL     1      -0.227  12.106  19.935  0.00  0.00    +0.000 C 
ATOM     15  C   UNL     1      -1.601  11.882  20.577  0.00  0.00    +0.000 C 
ATOM     16  C   UNL     1      -1.507  12.048  22.096  0.00  0.00    +0.000 C 
ATOM     17  C   UNL     1      -0.803  13.332  22.552  0.00  0.00    +0.000 C 
ATOM     18  C   UNL     1       0.345  13.830  21.669  0.00  0.00    +0.000 C 
ATOM     19  C   UNL     1       0.108  13.584  20.185  0.00  0.00    +0.000 C 
ENDBRANCH  13  14
ENDBRANCH  11  13
ENDBRANCH   6   7
ENDBRANCH   4   6
ENDBRANCH   1   4
BRANCH   1  20
ATOM     20  C   UNL     1       3.778   3.410  19.785  0.00  0.00    +0.000 C 
BRANCH  20  21
ATOM     21  C   UNL     1       3.772   2.160  18.909  0.00  0.00    +0.000 C 
BRANCH  21  22
ATOM     22  C   UNL     1       3.685   2.417  17.403  0.00  0.00    +0.000 C 
BRANCH  22  23
ATOM     23  O   UNL     1       3.921   3.808  17.157  0.00  0.00    +0.000 OA
BRANCH  23  24
ATOM     24  C   UNL     1       5.123   3.999  16.402  0.00  0.00    +0.000 C 
BRANCH  24  29
ATOM     25  O   UNL     1       8.341   7.950  18.368  0.00  0.00    +0.000 OA
ATOM     26  C   UNL     1       7.613   7.060  17.946  0.00  0.00    +0.000 A 
ATOM     27  C   UNL     1       7.622   5.718  18.549  0.00  0.00    +0.000 A 
ATOM     28  C   UNL     1       6.820   4.777  18.046  0.00  0.00    +0.000 A 
ATOM     29  N   UNL     1       5.980   5.026  16.980  0.00  0.00    +0.000 N 
ATOM     30  C   UNL     1       5.925   6.277  16.375  0.00  0.00    +0.000 A 
ATOM     31  O   UNL     1       5.195   6.545  15.421  0.00  0.00    +0.000 OA
ATOM     32  N   UNL     1       6.751   7.234  16.905  0.00  0.00    +0.000 N 
ATOM     33  H   UNL     1       6.727   8.145  16.474  0.00  0.00    +0.000 HD
ENDBRANCH  24  29
ENDBRANCH  23  24
ENDBRANCH  22  23
ENDBRANCH  21  22
ENDBRANCH  20  21
ENDBRANCH   1  20
TORSDOF 11
ENDMDL
MODEL 5
REMARK VINA RESULT:      -6.9      4.352      9.863
REMARK  Name = 
REMARK  11 active torsions:
REMARK  status: ('A' for Active; 'I' for Inactive)
REMARK    1  A    between atoms: N_5  and  C_6
REMARK    2  A    between atoms: C_6  and  O_7
REMARK    3  A    between atoms: O_7  and  C_8
REMARK    4  A    between atoms: C_8  and  C_9
REMARK    5  A    between atoms: C_9  and  C_10
REMARK    6  A    between atoms: C_10  and  S_11
REMARK    7  A    between atoms: S_11  and  N_14
REMARK    8  A    between atoms: N_14  and  C_15
REMARK    9  A    between atoms: C_15  and  C_16
REMARK   10  A    between atoms: C_20  and  O_21
REMARK   11  A    between atoms: O_21  and  C_22
REMARK                            x       y       z     vdW  Elec       q    Type
REMARK                         _______ _______ _______ _____ _____    ______ ____
ROOT
ATOM      1  S   UNL     1       0.914   8.915  21.781  0.00  0.00    +0.000 S 
ATOM      2  O   UNL     1       1.701   9.441  22.877  0.00  0.00    +0.000 OA
ATOM      3  O   UNL     1      -0.421   8.417  21.969  0.00  0.00    +0.000 OA
ENDROOT
BRANCH   1   4
ATOM      4  N   UNL     1       1.844   7.675  21.094  0.00  0.00    +0.000 NA
ATOM      5  H   UNL     1       2.635   7.419  21.678  0.00  0.00    +0.000 HD
BRANCH   4   6
ATOM      6  C   UNL     1       1.054   6.458  20.731  0.00  0.00    +0.000 C 
BRANCH   6   7
ATOM      7  C   UNL     1       1.897   5.255  20.354  0.00  0.00    +0.000 A 
ATOM      8  C   UNL     1       1.857   4.085  21.129  0.00  0.00    +0.000 A 
ATOM      9  C   UNL     1       2.748   3.034  20.882  0.00  0.00    +0.000 A 
ATOM     10  C   UNL     1       3.737   3.175  19.908  0.00  0.00    +0.000 A 
ATOM     11  C   UNL     1       3.791   4.342  19.149  0.00  0.00    +0.000 A 
ATOM     12  C   UNL     1       2.811   5.312  19.300  0.00  0.00    +0.000 A 
BRANCH  11  13
ATOM     13  O   UNL     1       4.795   4.466  18.237  0.00  0.00    +0.000 OA
BRANCH  13  14
ATOM     14  C   UNL     1       5.279   5.811  18.016  0.00  0.00    +0.000 C 
ATOM     15  C   UNL     1       6.798   5.758  18.217  0.00  0.00    +0.000 C 
ATOM     16  C   UNL     1       7.412   4.680  17.321  0.00  0.00    +0.000 C 
ATOM     17  C   UNL     1       6.974   4.749  15.852  0.00  0.00    +0.000 C 
ATOM     18  C   UNL     1       5.540   5.218  15.590  0.00  0.00    +0.000 C 
ATOM     19  C   UNL     1       5.072   6.285  16.571  0.00  0.00    +0.000 C 
ENDBRANCH  13  14
ENDBRANCH  11  13
ENDBRANCH   6   7
ENDBRANCH   4   6
ENDBRANCH   1   4
BRANCH   1  20
ATOM     20  C   UNL     1       0.911  10.145  20.464  0.00  0.00    +0.000 C 
BRANCH  20  21
ATOM     21  C   UNL     1      -0.466  10.397  19.857  0.00  0.00    +0.000 C 
BRANCH  21  22
ATOM     22  C   UNL     1      -1.170  11.667  20.340  0.00  0.00    +0.000 C 
BRANCH  22  23
ATOM     23  O   UNL     1      -0.941  11.817  21.747  0.00  0.00    +0.000 OA
BRANCH  23  24
ATOM     24  C   UNL     1      -2.178  11.835  22.468  0.00  0.00    +0.000 C 
BRANCH  24  29
ATOM     25  O   UNL     1      -2.765  16.106  25.822  0.00  0.00    +0.000 OA
ATOM     26  C   UNL     1      -2.615  15.145  25.078  0.00  0.00    +0.000 A 
ATOM     27  C   UNL     1      -1.399  14.993  24.264  0.00  0.00    +0.000 A 
ATOM     28  C   UNL     1      -1.286  13.935  23.457  0.00  0.00    +0.000 A 
ATOM     29  N   UNL     1      -2.276  12.977  23.367  0.00  0.00    +0.000 N 
ATOM     30  C   UNL     1      -3.444  13.065  24.117  0.00  0.00    +0.000 A 
ATOM     31  O   UNL     1      -4.353  12.239  24.066  0.00  0.00    +0.000 OA
ATOM     32  N   UNL     1      -3.543  14.155  24.942  0.00  0.00    +0.000 N 
ATOM     33  H   UNL     1      -4.385  14.237  25.489  0.00  0.00    +0.000 HD
ENDBRANCH  24  29
ENDBRANCH  23  24
ENDBRANCH  22  23
ENDBRANCH  21  22
ENDBRANCH  20  21
ENDBRANCH   1  20
TORSDOF 11
ENDMDL
MODEL 6
REMARK VINA RESULT:      -6.9      4.271      9.931
REMARK  Name = 
REMARK  11 active torsions:
REMARK  status: ('A' for Active; 'I' for Inactive)
REMARK    1  A    between atoms: N_5  and  C_6
REMARK    2  A    between atoms: C_6  and  O_7
REMARK    3  A    between atoms: O_7  and  C_8
REMARK    4  A    between atoms: C_8  and  C_9
REMARK    5  A    between atoms: C_9  and  C_10
REMARK    6  A    between atoms: C_10  and  S_11
REMARK    7  A    between atoms: S_11  and  N_14
REMARK    8  A    between atoms: N_14  and  C_15
REMARK    9  A    between atoms: C_15  and  C_16
REMARK   10  A    between atoms: C_20  and  O_21
REMARK   11  A    between atoms: O_21  and  C_22
REMARK                            x       y       z     vdW  Elec       q    Type
REMARK                         _______ _______ _______ _____ _____    ______ ____
ROOT
ATOM      1  S   UNL     1       0.428   9.203  22.164  0.00  0.00    +0.000 S 
ATOM      2  O   UNL     1       0.839   9.821  23.407  0.00  0.00    +0.000 OA
ATOM      3  O   UNL     1      -0.754   8.391  22.068  0.00  0.00    +0.000 OA
ENDROOT
BRANCH   1   4
ATOM      4  N   UNL     1       1.747   8.269  21.651  0.00  0.00    +0.000 NA
ATOM      5  H   UNL     1       1.849   7.416  22.195  0.00  0.00    +0.000 HD
BRANCH   4   6
ATOM      6  C   UNL     1       1.730   7.951  20.190  0.00  0.00    +0.000 C 
BRANCH   6   7
ATOM      7  C   UNL     1       2.189   6.546  19.851  0.00  0.00    +0.000 A 
ATOM      8  C   UNL     1       1.771   5.452  20.625  0.00  0.00    +0.000 A 
ATOM      9  C   UNL     1       2.316   4.180  20.417  0.00  0.00    +0.000 A 
ATOM     10  C   UNL     1       3.340   4.005  19.486  0.00  0.00    +0.000 A 
ATOM     11  C   UNL     1       3.770   5.091  18.728  0.00  0.00    +0.000 A 
ATOM     12  C   UNL     1       3.120   6.312  18.836  0.00  0.00    +0.000 A 
BRANCH  11  13
ATOM     13  O   UNL     1       4.800   4.897  17.859  0.00  0.00    +0.000 OA
BRANCH  13  14
ATOM     14  C   UNL     1       5.560   6.079  17.512  0.00  0.00    +0.000 C 
ATOM     15  C   UNL     1       7.037   5.698  17.659  0.00  0.00    +0.000 C 
ATOM     16  C   UNL     1       7.346   4.448  16.832  0.00  0.00    +0.000 C 
ATOM     17  C   UNL     1       6.855   4.511  15.380  0.00  0.00    +0.000 C 
ATOM     18  C   UNL     1       5.549   5.273  15.134  0.00  0.00    +0.000 C 
ATOM     19  C   UNL     1       5.385   6.485  16.041  0.00  0.00    +0.000 C 
ENDBRANCH  13  14
ENDBRANCH  11  13
ENDBRANCH   6   7
ENDBRANCH   4   6
ENDBRANCH   1   4
BRANCH   1  20
ATOM     20  C   UNL     1       0.373  10.486  20.900  0.00  0.00    +0.000 C 
BRANCH  20  21
ATOM     21  C   UNL     1       0.523  11.902  21.450  0.00  0.00    +0.000 C 
BRANCH  21  22
ATOM     22  C   UNL     1      -0.744  12.759  21.401  0.00  0.00    +0.000 C 
BRANCH  22  23
ATOM     23  O   UNL     1      -1.728  12.086  20.606  0.00  0.00    +0.000 OA
BRANCH  23  24
ATOM     24  C   UNL     1      -2.670  13.017  20.061  0.00  0.00    +0.000 C 
BRANCH  24  29
ATOM     25  O   UNL     1      -7.733  10.973  20.214  0.00  0.00    +0.000 OA
ATOM     26  C   UNL     1      -6.602  11.442  20.163  0.00  0.00    +0.000 A 
ATOM     27  C   UNL     1      -5.813  11.397  18.922  0.00  0.00    +0.000 A 
ATOM     28  C   UNL     1      -4.581  11.909  18.919  0.00  0.00    +0.000 A 
ATOM     29  N   UNL     1      -4.026  12.483  20.044  0.00  0.00    +0.000 N 
ATOM     30  C   UNL     1      -4.727  12.559  21.243  0.00  0.00    +0.000 A 
ATOM     31  O   UNL     1      -4.271  13.058  22.271  0.00  0.00    +0.000 OA
ATOM     32  N   UNL     1      -5.991  12.033  21.229  0.00  0.00    +0.000 N 
ATOM     33  H   UNL     1      -6.512  12.075  22.091  0.00  0.00    +0.000 HD
ENDBRANCH  24  29
ENDBRANCH  23  24
ENDBRANCH  22  23
ENDBRANCH  21  22
ENDBRANCH  20  21
ENDBRANCH   1  20
TORSDOF 11
ENDMDL
MODEL 7
REMARK VINA RESULT:      -6.9      4.653     10.352
REMARK  Name = 
REMARK  11 active torsions:
REMARK  status: ('A' for Active; 'I' for Inactive)
REMARK    1  A    between atoms: N_5  and  C_6
REMARK    2  A    between atoms: C_6  and  O_7
REMARK    3  A    between atoms: O_7  and  C_8
REMARK    4  A    between atoms: C_8  and  C_9
REMARK    5  A    between atoms: C_9  and  C_10
REMARK    6  A    between atoms: C_10  and  S_11
REMARK    7  A    between atoms: S_11  and  N_14
REMARK    8  A    between atoms: N_14  and  C_15
REMARK    9  A    between atoms: C_15  and  C_16
REMARK   10  A    between atoms: C_20  and  O_21
REMARK   11  A    between atoms: O_21  and  C_22
REMARK                            x       y       z     vdW  Elec       q    Type
REMARK                         _______ _______ _______ _____ _____    ______ ____
ROOT
ATOM      1  S   UNL     1       0.272   9.092  22.135  0.00  0.00    +0.000 S 
ATOM      2  O   UNL     1       0.660   9.785  23.346  0.00  0.00    +0.000 OA
ATOM      3  O   UNL     1      -0.917   8.289  22.062  0.00  0.00    +0.000 OA
ENDROOT
BRANCH   1   4
ATOM      4  N   UNL     1       1.593   8.114  21.716  0.00  0.00    +0.000 NA
ATOM      5  H   UNL     1       1.536   7.191  22.137  0.00  0.00    +0.000 HD
BRANCH   4   6
ATOM      6  C   UNL     1       1.814   7.997  20.242  0.00  0.00    +0.000 C 
BRANCH   6   7
ATOM      7  C   UNL     1       2.173   6.601  19.773  0.00  0.00    +0.000 A 
ATOM      8  C   UNL     1       1.883   5.483  20.571  0.00  0.00    +0.000 A 
ATOM      9  C   UNL     1       2.354   4.213  20.220  0.00  0.00    +0.000 A 
ATOM     10  C   UNL     1       3.183   4.060  19.108  0.00  0.00    +0.000 A 
ATOM     11  C   UNL     1       3.488   5.170  18.324  0.00  0.00    +0.000 A 
ATOM     12  C   UNL     1       2.894   6.395  18.595  0.00  0.00    +0.000 A 
BRANCH  11  13
ATOM     13  O   UNL     1       4.334   4.996  17.271  0.00  0.00    +0.000 OA
BRANCH  13  14
ATOM     14  C   UNL     1       5.125   6.151  16.905  0.00  0.00    +0.000 C 
ATOM     15  C   UNL     1       6.517   5.927  17.508  0.00  0.00    +0.000 C 
ATOM     16  C   UNL     1       7.075   4.575  17.060  0.00  0.00    +0.000 C 
ATOM     17  C   UNL     1       6.999   4.325  15.548  0.00  0.00    +0.000 C 
ATOM     18  C   UNL     1       5.789   4.918  14.820  0.00  0.00    +0.000 C 
ATOM     19  C   UNL     1       5.348   6.260  15.389  0.00  0.00    +0.000 C 
ENDBRANCH  13  14
ENDBRANCH  11  13
ENDBRANCH   6   7
ENDBRANCH   4   6
ENDBRANCH   1   4
BRANCH   1  20
ATOM     20  C   UNL     1       0.264  10.292  20.791  0.00  0.00    +0.000 C 
BRANCH  20  21
ATOM     21  C   UNL     1      -0.623  11.506  21.051  0.00  0.00    +0.000 C 
BRANCH  21  22
ATOM     22  C   UNL     1       0.122  12.801  21.387  0.00  0.00    +0.000 C 
BRANCH  22  23
ATOM     23  O   UNL     1      -0.449  13.369  22.572  0.00  0.00    +0.000 OA
BRANCH  23  24
ATOM     24  C   UNL     1      -1.696  12.741  22.891  0.00  0.00    +0.000 C 
BRANCH  24  29
ATOM     25  O   UNL     1      -5.621  16.186  24.496  0.00  0.00    +0.000 OA
ATOM     26  C   UNL     1      -4.727  15.425  24.145  0.00  0.00    +0.000 A 
ATOM     27  C   UNL     1      -3.512  15.929  23.486  0.00  0.00    +0.000 A 
ATOM     28  C   UNL     1      -2.571  15.060  23.110  0.00  0.00    +0.000 A 
ATOM     29  N   UNL     1      -2.702  13.703  23.325  0.00  0.00    +0.000 N 
ATOM     30  C   UNL     1      -3.826  13.171  23.948  0.00  0.00    +0.000 A 
ATOM     31  O   UNL     1      -3.988  11.970  24.157  0.00  0.00    +0.000 OA
ATOM     32  N   UNL     1      -4.781  14.075  24.332  0.00  0.00    +0.000 N 
ATOM     33  H   UNL     1      -5.604  13.706  24.781  0.00  0.00    +0.000 HD
ENDBRANCH  24  29
ENDBRANCH  23  24
ENDBRANCH  22  23
ENDBRANCH  21  22
ENDBRANCH  20  21
ENDBRANCH   1  20
TORSDOF 11
ENDMDL
MODEL 8
REMARK VINA RESULT:      -6.8      2.216      3.721
REMARK  Name = 
REMARK  11 active torsions:
REMARK  status: ('A' for Active; 'I' for Inactive)
REMARK    1  A    between atoms: N_5  and  C_6
REMARK    2  A    between atoms: C_6  and  O_7
REMARK    3  A    between atoms: O_7  and  C_8
REMARK    4  A    between atoms: C_8  and  C_9
REMARK    5  A    between atoms: C_9  and  C_10
REMARK    6  A    between atoms: C_10  and  S_11
REMARK    7  A    between atoms: S_11  and  N_14
REMARK    8  A    between atoms: N_14  and  C_15
REMARK    9  A    between atoms: C_15  and  C_16
REMARK   10  A    between atoms: C_20  and  O_21
REMARK   11  A    between atoms: O_21  and  C_22
REMARK                            x       y       z     vdW  Elec       q    Type
REMARK                         _______ _______ _______ _____ _____    ______ ____
ROOT
ATOM      1  S   UNL     1       2.634   6.027  19.804  0.00  0.00    +0.000 S 
ATOM      2  O   UNL     1       4.081   5.995  19.776  0.00  0.00    +0.000 OA
ATOM      3  O   UNL     1       1.847   6.043  18.602  0.00  0.00    +0.000 OA
ENDROOT
BRANCH   1   4
ATOM      4  N   UNL     1       2.216   7.389  20.723  0.00  0.00    +0.000 NA
ATOM      5  H   UNL     1       2.710   8.224  20.419  0.00  0.00    +0.000 HD
BRANCH   4   6
ATOM      6  C   UNL     1       0.745   7.651  20.780  0.00  0.00    +0.000 C 
BRANCH   6   7
ATOM      7  C   UNL     1       0.372   8.987  21.394  0.00  0.00    +0.000 A 
ATOM      8  C   UNL     1      -0.321   9.043  22.614  0.00  0.00    +0.000 A 
ATOM      9  C   UNL     1      -0.808  10.261  23.103  0.00  0.00    +0.000 A 
ATOM     10  C   UNL     1      -0.673  11.422  22.340  0.00  0.00    +0.000 A 
ATOM     11  C   UNL     1      -0.002  11.366  21.121  0.00  0.00    +0.000 A 
ATOM     12  C   UNL     1       0.606  10.186  20.718  0.00  0.00    +0.000 A 
BRANCH  11  13
ATOM     13  O   UNL     1       0.075  12.506  20.380  0.00  0.00    +0.000 OA
BRANCH  13  14
ATOM     14  C   UNL     1       1.371  12.797  19.809  0.00  0.00    +0.000 C 
ATOM     15  C   UNL     1       1.121  13.766  18.648  0.00  0.00    +0.000 C 
ATOM     16  C   UNL     1       0.327  14.980  19.135  0.00  0.00    +0.000 C 
ATOM     17  C   UNL     1       0.892  15.645  20.397  0.00  0.00    +0.000 C 
ATOM     18  C   UNL     1       1.547  14.714  21.422  0.00  0.00    +0.000 C 
ATOM     19  C   UNL     1       2.291  13.550  20.781  0.00  0.00    +0.000 C 
ENDBRANCH  13  14
ENDBRANCH  11  13
ENDBRANCH   6   7
ENDBRANCH   4   6
ENDBRANCH   1   4
BRANCH   1  20
ATOM     20  C   UNL     1       2.072   4.682  20.865  0.00  0.00    +0.000 C 
BRANCH  20  21
ATOM     21  C   UNL     1       0.753   4.055  20.422  0.00  0.00    +0.000 C 
BRANCH  21  22
ATOM     22  C   UNL     1       0.881   2.899  19.428  0.00  0.00    +0.000 C 
BRANCH  22  23
ATOM     23  O   UNL     1       2.044   2.130  19.759  0.00  0.00    +0.000 OA
BRANCH  23  24
ATOM     24  C   UNL     1       2.758   1.747  18.578  0.00  0.00    +0.000 C 
BRANCH  24  29
ATOM     25  O   UNL     1       6.755   5.319  17.531  0.00  0.00    +0.000 OA
ATOM     26  C   UNL     1       5.861   4.511  17.747  0.00  0.00    +0.000 A 
ATOM     27  C   UNL     1       4.743   4.340  16.805  0.00  0.00    +0.000 A 
ATOM     28  C   UNL     1       3.785   3.455  17.091  0.00  0.00    +0.000 A 
ATOM     29  N   UNL     1       3.813   2.693  18.241  0.00  0.00    +0.000 N 
ATOM     30  C   UNL     1       4.848   2.808  19.164  0.00  0.00    +0.000 A 
ATOM     31  O   UNL     1       4.913   2.153  20.203  0.00  0.00    +0.000 OA
ATOM     32  N   UNL     1       5.825   3.717  18.855  0.00  0.00    +0.000 N 
ATOM     33  H   UNL     1       6.580   3.816  19.516  0.00  0.00    +0.000 HD
ENDBRANCH  24  29
ENDBRANCH  23  24
ENDBRANCH  22  23
ENDBRANCH  21  22
ENDBRANCH  20  21
ENDBRANCH   1  20
TORSDOF 11
ENDMDL
MODEL 9
REMARK VINA RESULT:      -6.8      2.001      3.017
REMARK  Name = 
REMARK  11 active torsions:
REMARK  status: ('A' for Active; 'I' for Inactive)
REMARK    1  A    between atoms: N_5  and  C_6
REMARK    2  A    between atoms: C_6  and  O_7
REMARK    3  A    between atoms: O_7  and  C_8
REMARK    4  A    between atoms: C_8  and  C_9
REMARK    5  A    between atoms: C_9  and  C_10
REMARK    6  A    between atoms: C_10  and  S_11
REMARK    7  A    between atoms: S_11  and  N_14
REMARK    8  A    between atoms: N_14  and  C_15
REMARK    9  A    between atoms: C_15  and  C_16
REMARK   10  A    between atoms: C_20  and  O_21
REMARK   11  A    between atoms: O_21  and  C_22
REMARK                            x       y       z     vdW  Elec       q    Type
REMARK                         _______ _______ _______ _____ _____    ______ ____
ROOT
ATOM      1  S   UNL     1       2.573   5.914  19.397  0.00  0.00    +0.000 S 
ATOM      2  O   UNL     1       2.402   5.298  20.696  0.00  0.00    +0.000 OA
ATOM      3  O   UNL     1       3.849   6.390  18.939  0.00  0.00    +0.000 OA
ENDROOT
BRANCH   1   4
ATOM      4  N   UNL     1       1.481   7.211  19.349  0.00  0.00    +0.000 NA
ATOM      5  H   UNL     1       0.526   6.916  19.536  0.00  0.00    +0.000 HD
BRANCH   4   6
ATOM      6  C   UNL     1       1.856   8.349  20.243  0.00  0.00    +0.000 C 
BRANCH   6   7
ATOM      7  C   UNL     1       0.946   9.557  20.130  0.00  0.00    +0.000 A 
ATOM      8  C   UNL     1       0.644  10.331  21.262  0.00  0.00    +0.000 A 
ATOM      9  C   UNL     1      -0.317  11.346  21.197  0.00  0.00    +0.000 A 
ATOM     10  C   UNL     1      -1.040  11.547  20.020  0.00  0.00    +0.000 A 
ATOM     11  C   UNL     1      -0.755  10.769  18.900  0.00  0.00    +0.000 A 
ATOM     12  C   UNL     1       0.302   9.870  18.932  0.00  0.00    +0.000 A 
BRANCH  11  13
ATOM     13  O   UNL     1      -1.507  10.960  17.781  0.00  0.00    +0.000 OA
BRANCH  13  14
ATOM     14  C   UNL     1      -2.076   9.765  17.197  0.00  0.00    +0.000 C 
ATOM     15  C   UNL     1      -3.398   9.516  17.932  0.00  0.00    +0.000 C 
ATOM     16  C   UNL     1      -4.280  10.765  17.872  0.00  0.00    +0.000 C 
ATOM     17  C   UNL     1      -4.445  11.359  16.468  0.00  0.00    +0.000 C 
ATOM     18  C   UNL     1      -3.237  11.246  15.533  0.00  0.00    +0.000 C 
ATOM     19  C   UNL     1      -2.456   9.952  15.721  0.00  0.00    +0.000 C 
ENDBRANCH  13  14
ENDBRANCH  11  13
ENDBRANCH   6   7
ENDBRANCH   4   6
ENDBRANCH   1   4
BRANCH   1  20
ATOM     20  C   UNL     1       1.875   4.801  18.163  0.00  0.00    +0.000 C 
BRANCH  20  21
ATOM     21  C   UNL     1       2.384   3.366  18.266  0.00  0.00    +0.000 C 
BRANCH  21  22
ATOM     22  C   UNL     1       3.276   2.904  17.111  0.00  0.00    +0.000 C 
BRANCH  22  23
ATOM     23  O   UNL     1       4.640   3.202  17.433  0.00  0.00    +0.000 OA
BRANCH  23  24
ATOM     24  C   UNL     1       5.241   4.012  16.417  0.00  0.00    +0.000 C 
BRANCH  24  29
ATOM     25  O   UNL     1       8.341   8.093  18.309  0.00  0.00    +0.000 OA
ATOM     26  C   UNL     1       7.639   7.175  17.903  0.00  0.00    +0.000 A 
ATOM     27  C   UNL     1       7.633   5.865  18.574  0.00  0.00    +0.000 A 
ATOM     28  C   UNL     1       6.861   4.891  18.088  0.00  0.00    +0.000 A 
ATOM     29  N   UNL     1       6.065   5.077  16.976  0.00  0.00    +0.000 N 
ATOM     30  C   UNL     1       6.025   6.294  16.305  0.00  0.00    +0.000 A 
ATOM     31  O   UNL     1       5.334   6.505  15.310  0.00  0.00    +0.000 OA
ATOM     32  N   UNL     1       6.820   7.285  16.819  0.00  0.00    +0.000 N 
ATOM     33  H   UNL     1       6.806   8.173  16.342  0.00  0.00    +0.000 HD
ENDBRANCH  24  29
ENDBRANCH  23  24
ENDBRANCH  22  23
ENDBRANCH  21  22
ENDBRANCH  20  21
ENDBRANCH   1  20
TORSDOF 11
ENDMDL
