MODEL 1
REMARK VINA RESULT:      -7.2      0.000      0.000
REMARK  Name = 
REMARK  14 active torsions:
REMARK  status: ('A' for Active; 'I' for Inactive)
REMARK    1  A    between atoms: C_1  and  O_2
REMARK    2  A    between atoms: O_2  and  C_3
REMARK    3  A    between atoms: C_5  and  O_6
REMARK    4  A    between atoms: O_6  and  C_7
REMARK    5  A    between atoms: C_8  and  O_9
REMARK    6  A    between atoms: O_9  and  C_10
REMARK    7  A    between atoms: C_12  and  C_13
REMARK    8  A    between atoms: C_19  and  C_20
REMARK    9  A    between atoms: C_22  and  O_23
REMARK   10  A    between atoms: O_23  and  C_24
REMARK   11  A    between atoms: C_25  and  O_26
REMARK   12  A    between atoms: O_26  and  C_27
REMARK   13  A    between atoms: C_29  and  O_30
REMARK   14  A    between atoms: O_30  and  C_31
REMARK                            x       y       z     vdW  Elec       q    Type
REMARK                         _______ _______ _______ _____ _____    ______ ____
ROOT
ATOM      1  C   UNL     1      -0.133  10.320  21.507  0.00  0.00    +0.000 C 
ATOM      2  CA  UNL     1       0.706   9.751  20.627  0.00  0.00    +0.000 A 
ATOM      3  N   UNL     1       1.065  10.345  19.441  0.00  0.00    +0.000 N 
ATOM      4  C   UNL     1       1.807   9.754  18.457  0.00  0.00    +0.000 A 
ATOM      5  O   UNL     1       2.103  10.352  17.428  0.00  0.00    +0.000 OA
ATOM      6  CA  UNL     1       2.189   8.326  18.719  0.00  0.00    +0.000 A 
ATOM      7  C   UNL     1       2.748   7.643  17.708  0.00  0.00    +0.000 C 
ATOM      8  N   UNL     1       1.920   7.768  19.946  0.00  0.00    +0.000 N 
ATOM      9  C   UNL     1       1.228   8.381  20.953  0.00  0.00    +0.000 A 
ATOM     10  O   UNL     1       1.029   7.824  22.029  0.00  0.00    +0.000 OA
ATOM     11  H   UNL     1       0.736  11.280  19.228  0.00  0.00    +0.000 HD
ATOM     12  H   UNL     1       2.209   6.816  20.140  0.00  0.00    +0.000 HD
ENDROOT
BRANCH   1  18
ATOM     13  C   UNL     1      -1.592  11.912  20.178  0.00  0.00    +0.000 A 
ATOM     14  C   UNL     1      -2.035  13.227  20.005  0.00  0.00    +0.000 A 
ATOM     15  C   UNL     1      -1.676  14.249  20.897  0.00  0.00    +0.000 A 
ATOM     16  C   UNL     1      -0.886  13.949  22.017  0.00  0.00    +0.000 A 
ATOM     17  C   UNL     1      -0.450  12.631  22.194  0.00  0.00    +0.000 A 
ATOM     18  C   UNL     1      -0.782  11.613  21.280  0.00  0.00    +0.000 A 
BRANCH  13  20
ATOM     19  C   UNL     1      -1.954  11.639  17.832  0.00  0.00    +0.000 C 
ATOM     20  O   UNL     1      -1.909  11.076  19.139  0.00  0.00    +0.000 OA
ENDBRANCH  13  20
BRANCH  15  21
ATOM     21  O   UNL     1      -2.197  15.474  20.565  0.00  0.00    +0.000 OA
ATOM     22  C   UNL     1      -3.522  15.739  21.014  0.00  0.00    +0.000 C 
ENDBRANCH  15  21
BRANCH  16  23
ATOM     23  O   UNL     1      -0.589  14.963  22.889  0.00  0.00    +0.000 OA
ATOM     24  C   UNL     1      -1.290  15.012  24.126  0.00  0.00    +0.000 C 
ENDBRANCH  16  23
ENDBRANCH   1  18
BRANCH   7  25
ATOM     25  C   UNL     1       3.095   6.222  17.784  0.00  0.00    +0.000 A 
ATOM     26  C   UNL     1       2.014   5.337  17.925  0.00  0.00    +0.000 A 
ATOM     27  C   UNL     1       2.202   3.953  17.876  0.00  0.00    +0.000 A 
ATOM     28  C   UNL     1       3.498   3.434  17.727  0.00  0.00    +0.000 A 
ATOM     29  C   UNL     1       4.576   4.321  17.601  0.00  0.00    +0.000 A 
ATOM     30  C   UNL     1       4.385   5.710  17.622  0.00  0.00    +0.000 A 
BRANCH  27  31
ATOM     31  O   UNL     1       1.171   3.049  17.981  0.00  0.00    +0.000 OA
ATOM     32  C   UNL     1       0.660   2.829  19.291  0.00  0.00    +0.000 C 
ENDBRANCH  27  31
BRANCH  28  33
ATOM     33  O   UNL     1       3.613   2.066  17.691  0.00  0.00    +0.000 OA
ATOM     34  C   UNL     1       4.022   1.416  18.888  0.00  0.00    +0.000 C 
ENDBRANCH  28  33
BRANCH  30  35
ATOM     35  O   UNL     1       5.544   6.405  17.391  0.00  0.00    +0.000 OA
ATOM     36  C   UNL     1       6.592   5.746  16.695  0.00  0.00    +0.000 C 
ENDBRANCH  30  35
ENDBRANCH   7  25
TORSDOF 8
ENDMDL
MODEL 2
REMARK VINA RESULT:      -7.2      0.185     10.124
REMARK  Name = 
REMARK  14 active torsions:
REMARK  status: ('A' for Active; 'I' for Inactive)
REMARK    1  A    between atoms: C_1  and  O_2
REMARK    2  A    between atoms: O_2  and  C_3
REMARK    3  A    between atoms: C_5  and  O_6
REMARK    4  A    between atoms: O_6  and  C_7
REMARK    5  A    between atoms: C_8  and  O_9
REMARK    6  A    between atoms: O_9  and  C_10
REMARK    7  A    between atoms: C_12  and  C_13
REMARK    8  A    between atoms: C_19  and  C_20
REMARK    9  A    between atoms: C_22  and  O_23
REMARK   10  A    between atoms: O_23  and  C_24
REMARK   11  A    between atoms: C_25  and  O_26
REMARK   12  A    between atoms: O_26  and  C_27
REMARK   13  A    between atoms: C_29  and  O_30
REMARK   14  A    between atoms: O_30  and  C_31
REMARK                            x       y       z     vdW  Elec       q    Type
REMARK                         _______ _______ _______ _____ _____    ______ ____
ROOT
ATOM      1  C   UNL     1       2.737   7.608  17.734  0.00  0.00    +0.000 C 
ATOM      2  CA  UNL     1       2.174   8.313  18.728  0.00  0.00    +0.000 A 
ATOM      3  N   UNL     1       1.899   7.778  19.964  0.00  0.00    +0.000 N 
ATOM      4  C   UNL     1       1.212   8.411  20.961  0.00  0.00    +0.000 A 
ATOM      5  O   UNL     1       1.016   7.876  22.047  0.00  0.00    +0.000 OA
ATOM      6  CA  UNL     1       0.693   9.775  20.609  0.00  0.00    +0.000 A 
ATOM      7  C   UNL     1      -0.149  10.357  21.478  0.00  0.00    +0.000 C 
ATOM      8  N   UNL     1       1.056  10.350  19.414  0.00  0.00    +0.000 N 
ATOM      9  C   UNL     1       1.794   9.737  18.440  0.00  0.00    +0.000 A 
ATOM     10  O   UNL     1       2.089  10.313  17.397  0.00  0.00    +0.000 OA
ATOM     11  H   UNL     1       2.177   6.825  20.172  0.00  0.00    +0.000 HD
ATOM     12  H   UNL     1       0.738  11.285  19.188  0.00  0.00    +0.000 HD
ENDROOT
BRANCH   1  18
ATOM     13  C   UNL     1       4.386   5.683  17.815  0.00  0.00    +0.000 A 
ATOM     14  C   UNL     1       4.571   4.298  17.788  0.00  0.00    +0.000 A 
ATOM     15  C   UNL     1       3.484   3.410  17.779  0.00  0.00    +0.000 A 
ATOM     16  C   UNL     1       2.175   3.910  17.838  0.00  0.00    +0.000 A 
ATOM     17  C   UNL     1       1.991   5.297  17.872  0.00  0.00    +0.000 A 
ATOM     18  C   UNL     1       3.081   6.189  17.847  0.00  0.00    +0.000 A 
BRANCH  13  20
ATOM     19  C   UNL     1       6.499   5.926  16.727  0.00  0.00    +0.000 C 
ATOM     20  O   UNL     1       5.544   6.403  17.669  0.00  0.00    +0.000 OA
ENDBRANCH  13  20
BRANCH  15  21
ATOM     21  O   UNL     1       3.856   2.089  17.744  0.00  0.00    +0.000 OA
ATOM     22  C   UNL     1       4.111   1.473  19.002  0.00  0.00    +0.000 C 
ENDBRANCH  15  21
BRANCH  16  23
ATOM     23  O   UNL     1       1.141   3.014  17.867  0.00  0.00    +0.000 OA
ATOM     24  C   UNL     1       0.633   2.617  19.136  0.00  0.00    +0.000 C 
ENDBRANCH  16  23
ENDBRANCH   1  18
BRANCH   7  25
ATOM     25  C   UNL     1      -0.803  11.644  21.234  0.00  0.00    +0.000 A 
ATOM     26  C   UNL     1      -0.517  12.659  22.161  0.00  0.00    +0.000 A 
ATOM     27  C   UNL     1      -0.972  13.966  21.966  0.00  0.00    +0.000 A 
ATOM     28  C   UNL     1      -1.766  14.263  20.847  0.00  0.00    +0.000 A 
ATOM     29  C   UNL     1      -2.062  13.244  19.931  0.00  0.00    +0.000 A 
ATOM     30  C   UNL     1      -1.582  11.939  20.112  0.00  0.00    +0.000 A 
BRANCH  27  31
ATOM     31  O   UNL     1      -0.693  14.998  22.831  0.00  0.00    +0.000 OA
ATOM     32  C   UNL     1      -1.282  14.910  24.124  0.00  0.00    +0.000 C 
ENDBRANCH  27  31
BRANCH  28  33
ATOM     33  O   UNL     1      -2.184  15.565  20.716  0.00  0.00    +0.000 OA
ATOM     34  C   UNL     1      -3.547  15.844  21.012  0.00  0.00    +0.000 C 
ENDBRANCH  28  33
BRANCH  30  35
ATOM     35  O   UNL     1      -1.899  11.112  19.065  0.00  0.00    +0.000 OA
ATOM     36  C   UNL     1      -2.734  11.623  18.037  0.00  0.00    +0.000 C 
ENDBRANCH  30  35
ENDBRANCH   7  25
TORSDOF 8
ENDMDL
MODEL 3
REMARK VINA RESULT:      -7.1      1.173      9.967
REMARK  Name = 
REMARK  14 active torsions:
REMARK  status: ('A' for Active; 'I' for Inactive)
REMARK    1  A    between atoms: C_1  and  O_2
REMARK    2  A    between atoms: O_2  and  C_3
REMARK    3  A    between atoms: C_5  and  O_6
REMARK    4  A    between atoms: O_6  and  C_7
REMARK    5  A    between atoms: C_8  and  O_9
REMARK    6  A    between atoms: O_9  and  C_10
REMARK    7  A    between atoms: C_12  and  C_13
REMARK    8  A    between atoms: C_19  and  C_20
REMARK    9  A    between atoms: C_22  and  O_23
REMARK   10  A    between atoms: O_23  and  C_24
REMARK   11  A    between atoms: C_25  and  O_26
REMARK   12  A    between atoms: O_26  and  C_27
REMARK   13  A    between atoms: C_29  and  O_30
REMARK   14  A    between atoms: O_30  and  C_31
REMARK                            x       y       z     vdW  Elec       q    Type
REMARK                         _______ _______ _______ _____ _____    ______ ____
ROOT
ATOM      1  C   UNL     1       2.719   7.738  17.724  0.00  0.00    +0.000 C 
ATOM      2  CA  UNL     1       2.192   8.492  18.702  0.00  0.00    +0.000 A 
ATOM      3  N   UNL     1       1.928   8.008  19.961  0.00  0.00    +0.000 N 
ATOM      4  C   UNL     1       1.275   8.694  20.947  0.00  0.00    +0.000 A 
ATOM      5  O   UNL     1       1.087   8.204  22.055  0.00  0.00    +0.000 OA
ATOM      6  CA  UNL     1       0.782  10.057  20.555  0.00  0.00    +0.000 A 
ATOM      7  C   UNL     1      -0.029  10.690  21.417  0.00  0.00    +0.000 C 
ATOM      8  N   UNL     1       1.136  10.579  19.334  0.00  0.00    +0.000 N 
ATOM      9  C   UNL     1       1.841   9.914  18.369  0.00  0.00    +0.000 A 
ATOM     10  O   UNL     1       2.129  10.445  17.301  0.00  0.00    +0.000 OA
ATOM     11  H   UNL     1       2.187   7.057  20.199  0.00  0.00    +0.000 HD
ATOM     12  H   UNL     1       0.836  11.513  19.080  0.00  0.00    +0.000 HD
ENDROOT
BRANCH   1  18
ATOM     13  C   UNL     1       4.325   5.784  17.892  0.00  0.00    +0.000 A 
ATOM     14  C   UNL     1       4.482   4.394  17.907  0.00  0.00    +0.000 A 
ATOM     15  C   UNL     1       3.378   3.528  17.897  0.00  0.00    +0.000 A 
ATOM     16  C   UNL     1       2.078   4.057  17.913  0.00  0.00    +0.000 A 
ATOM     17  C   UNL     1       1.922   5.448  17.907  0.00  0.00    +0.000 A 
ATOM     18  C   UNL     1       3.031   6.316  17.883  0.00  0.00    +0.000 A 
BRANCH  13  20
ATOM     19  C   UNL     1       6.369   6.088  16.693  0.00  0.00    +0.000 C 
ATOM     20  O   UNL     1       5.500   6.475  17.753  0.00  0.00    +0.000 OA
ENDBRANCH  13  20
BRANCH  15  21
ATOM     21  O   UNL     1       3.723   2.200  17.906  0.00  0.00    +0.000 OA
ATOM     22  C   UNL     1       4.045   1.641  19.175  0.00  0.00    +0.000 C 
ENDBRANCH  15  21
BRANCH  16  23
ATOM     23  O   UNL     1       1.025   3.182  17.944  0.00  0.00    +0.000 OA
ATOM     24  C   UNL     1       0.567   2.727  19.212  0.00  0.00    +0.000 C 
ENDBRANCH  16  23
ENDBRANCH   1  18
BRANCH   7  25
ATOM     25  C   UNL     1      -0.656  11.983  21.139  0.00  0.00    +0.000 A 
ATOM     26  C   UNL     1      -2.020  11.940  20.805  0.00  0.00    +0.000 A 
ATOM     27  C   UNL     1      -2.763  13.114  20.647  0.00  0.00    +0.000 A 
ATOM     28  C   UNL     1      -2.128  14.359  20.781  0.00  0.00    +0.000 A 
ATOM     29  C   UNL     1      -0.764  14.398  21.100  0.00  0.00    +0.000 A 
ATOM     30  C   UNL     1      -0.024  13.221  21.286  0.00  0.00    +0.000 A 
BRANCH  27  31
ATOM     31  O   UNL     1      -4.105  13.121  20.350  0.00  0.00    +0.000 OA
ATOM     32  C   UNL     1      -4.976  12.636  21.365  0.00  0.00    +0.000 C 
ENDBRANCH  27  31
BRANCH  28  33
ATOM     33  O   UNL     1      -2.914  15.472  20.610  0.00  0.00    +0.000 OA
ATOM     34  C   UNL     1      -2.251  16.725  20.488  0.00  0.00    +0.000 C 
ENDBRANCH  28  33
BRANCH  30  35
ATOM     35  O   UNL     1       1.265  13.467  21.682  0.00  0.00    +0.000 OA
ATOM     36  C   UNL     1       2.093  14.240  20.826  0.00  0.00    +0.000 C 
ENDBRANCH  30  35
ENDBRANCH   7  25
TORSDOF 8
ENDMDL
MODEL 4
REMARK VINA RESULT:      -7.1      2.141      9.980
REMARK  Name = 
REMARK  14 active torsions:
REMARK  status: ('A' for Active; 'I' for Inactive)
REMARK    1  A    between atoms: C_1  and  O_2
REMARK    2  A    between atoms: O_2  and  C_3
REMARK    3  A    between atoms: C_5  and  O_6
REMARK    4  A    between atoms: O_6  and  C_7
REMARK    5  A    between atoms: C_8  and  O_9
REMARK    6  A    between atoms: O_9  and  C_10
REMARK    7  A    between atoms: C_12  and  C_13
REMARK    8  A    between atoms: C_19  and  C_20
REMARK    9  A    between atoms: C_22  and  O_23
REMARK   10  A    between atoms: O_23  and  C_24
REMARK   11  A    between atoms: C_25  and  O_26
REMARK   12  A    between atoms: O_26  and  C_27
REMARK   13  A    between atoms: C_29  and  O_30
REMARK   14  A    between atoms: O_30  and  C_31
REMARK                            x       y       z     vdW  Elec       q    Type
REMARK                         _______ _______ _______ _____ _____    ______ ____
ROOT
ATOM      1  C   UNL     1       1.842   7.844  18.700  0.00  0.00    +0.000 C 
ATOM      2  CA  UNL     1       1.438   8.734  19.620  0.00  0.00    +0.000 A 
ATOM      3  N   UNL     1       1.763   8.635  20.951  0.00  0.00    +0.000 N 
ATOM      4  C   UNL     1       1.271   9.436  21.943  0.00  0.00    +0.000 A 
ATOM      5  O   UNL     1       1.618   9.300  23.112  0.00  0.00    +0.000 OA
ATOM      6  CA  UNL     1       0.261  10.453  21.498  0.00  0.00    +0.000 A 
ATOM      7  C   UNL     1      -0.393  11.132  22.454  0.00  0.00    +0.000 C 
ATOM      8  N   UNL     1       0.016  10.621  20.156  0.00  0.00    +0.000 N 
ATOM      9  C   UNL     1       0.553   9.857  19.158  0.00  0.00    +0.000 A 
ATOM     10  O   UNL     1       0.295  10.066  17.977  0.00  0.00    +0.000 OA
ATOM     11  H   UNL     1       2.380   7.894  21.264  0.00  0.00    +0.000 HD
ATOM     12  H   UNL     1      -0.638  11.331  19.848  0.00  0.00    +0.000 HD
ENDROOT
BRANCH   1  18
ATOM     13  C   UNL     1       3.755   6.230  18.297  0.00  0.00    +0.000 A 
ATOM     14  C   UNL     1       4.339   5.002  18.622  0.00  0.00    +0.000 A 
ATOM     15  C   UNL     1       3.822   4.187  19.641  0.00  0.00    +0.000 A 
ATOM     16  C   UNL     1       2.716   4.621  20.387  0.00  0.00    +0.000 A 
ATOM     17  C   UNL     1       2.138   5.855  20.066  0.00  0.00    +0.000 A 
ATOM     18  C   UNL     1       2.636   6.657  19.022  0.00  0.00    +0.000 A 
BRANCH  13  20
ATOM     19  C   UNL     1       5.076   6.011  16.318  0.00  0.00    +0.000 C 
ATOM     20  O   UNL     1       4.291   6.825  17.185  0.00  0.00    +0.000 OA
ENDBRANCH  13  20
BRANCH  15  21
ATOM     21  O   UNL     1       4.519   3.017  19.813  0.00  0.00    +0.000 OA
ATOM     22  C   UNL     1       4.041   1.886  19.093  0.00  0.00    +0.000 C 
ENDBRANCH  15  21
BRANCH  16  23
ATOM     23  O   UNL     1       2.264   3.819  21.400  0.00  0.00    +0.000 OA
ATOM     24  C   UNL     1       1.171   2.949  21.129  0.00  0.00    +0.000 C 
ENDBRANCH  16  23
ENDBRANCH   1  18
BRANCH   7  25
ATOM     25  C   UNL     1      -1.464  12.092  22.178  0.00  0.00    +0.000 A 
ATOM     26  C   UNL     1      -2.658  11.894  22.890  0.00  0.00    +0.000 A 
ATOM     27  C   UNL     1      -3.706  12.816  22.814  0.00  0.00    +0.000 A 
ATOM     28  C   UNL     1      -3.582  13.939  21.980  0.00  0.00    +0.000 A 
ATOM     29  C   UNL     1      -2.393  14.126  21.261  0.00  0.00    +0.000 A 
ATOM     30  C   UNL     1      -1.332  13.215  21.358  0.00  0.00    +0.000 A 
BRANCH  27  31
ATOM     31  O   UNL     1      -4.881  12.680  23.514  0.00  0.00    +0.000 OA
ATOM     32  C   UNL     1      -4.759  12.286  24.876  0.00  0.00    +0.000 C 
ENDBRANCH  27  31
BRANCH  28  33
ATOM     33  O   UNL     1      -4.649  14.804  21.949  0.00  0.00    +0.000 OA
ATOM     34  C   UNL     1      -5.297  14.992  20.698  0.00  0.00    +0.000 C 
ENDBRANCH  28  33
BRANCH  30  35
ATOM     35  O   UNL     1      -0.226  13.619  20.654  0.00  0.00    +0.000 OA
ATOM     36  C   UNL     1      -0.252  14.901  20.044  0.00  0.00    +0.000 C 
ENDBRANCH  30  35
ENDBRANCH   7  25
TORSDOF 8
ENDMDL
MODEL 5
REMARK VINA RESULT:      -7.1      1.109      1.994
REMARK  Name = 
REMARK  14 active torsions:
REMARK  status: ('A' for Active; 'I' for Inactive)
REMARK    1  A    between atoms: C_1  and  O_2
REMARK    2  A    between atoms: O_2  and  C_3
REMARK    3  A    between atoms: C_5  and  O_6
REMARK    4  A    between atoms: O_6  and  C_7
REMARK    5  A    between atoms: C_8  and  O_9
REMARK    6  A    between atoms: O_9  and  C_10
REMARK    7  A    between atoms: C_12  and  C_13
REMARK    8  A    between atoms: C_19  and  C_20
REMARK    9  A    between atoms: C_22  and  O_23
REMARK   10  A    between atoms: O_23  and  C_24
REMARK   11  A    between atoms: C_25  and  O_26
REMARK   12  A    between atoms: O_26  and  C_27
REMARK   13  A    between atoms: C_29  and  O_30
REMARK   14  A    between atoms: O_30  and  C_31
REMARK                            x       y       z     vdW  Elec       q    Type
REMARK                         _______ _______ _______ _____ _____    ______ ____
ROOT
ATOM      1  C   UNL     1      -0.070  10.598  21.369  0.00  0.00    +0.000 C 
ATOM      2  CA  UNL     1       0.759   9.982  20.512  0.00  0.00    +0.000 A 
ATOM      3  N   UNL     1       1.116  10.520  19.299  0.00  0.00    +0.000 N 
ATOM      4  C   UNL     1       1.849   9.879  18.339  0.00  0.00    +0.000 A 
ATOM      5  O   UNL     1       2.145  10.427  17.282  0.00  0.00    +0.000 OA
ATOM      6  CA  UNL     1       2.220   8.461  18.663  0.00  0.00    +0.000 A 
ATOM      7  C   UNL     1       2.768   7.727  17.681  0.00  0.00    +0.000 C 
ATOM      8  N   UNL     1       1.953   7.960  19.915  0.00  0.00    +0.000 N 
ATOM      9  C   UNL     1       1.271   8.624  20.897  0.00  0.00    +0.000 A 
ATOM     10  O   UNL     1       1.073   8.118  21.998  0.00  0.00    +0.000 OA
ATOM     11  H   UNL     1       0.794  11.447  19.045  0.00  0.00    +0.000 HD
ATOM     12  H   UNL     1       2.235   7.016  20.150  0.00  0.00    +0.000 HD
ENDROOT
BRANCH   1  18
ATOM     13  C   UNL     1      -0.105  13.132  21.282  0.00  0.00    +0.000 A 
ATOM     14  C   UNL     1      -0.873  14.288  21.110  0.00  0.00    +0.000 A 
ATOM     15  C   UNL     1      -2.232  14.224  20.764  0.00  0.00    +0.000 A 
ATOM     16  C   UNL     1      -2.837  12.978  20.542  0.00  0.00    +0.000 A 
ATOM     17  C   UNL     1      -2.065  11.822  20.707  0.00  0.00    +0.000 A 
ATOM     18  C   UNL     1      -0.710  11.885  21.087  0.00  0.00    +0.000 A 
BRANCH  13  20
ATOM     19  C   UNL     1       1.715  14.658  21.538  0.00  0.00    +0.000 C 
ATOM     20  O   UNL     1       1.156  13.368  21.764  0.00  0.00    +0.000 OA
ENDBRANCH  13  20
BRANCH  15  21
ATOM     21  O   UNL     1      -2.825  15.456  20.647  0.00  0.00    +0.000 OA
ATOM     22  C   UNL     1      -3.320  16.035  21.850  0.00  0.00    +0.000 C 
ENDBRANCH  15  21
BRANCH  16  23
ATOM     23  O   UNL     1      -4.153  12.956  20.167  0.00  0.00    +0.000 OA
ATOM     24  C   UNL     1      -5.130  12.666  21.160  0.00  0.00    +0.000 C 
ENDBRANCH  16  23
ENDBRANCH   1  18
BRANCH   7  25
ATOM     25  C   UNL     1       3.104   6.309  17.820  0.00  0.00    +0.000 A 
ATOM     26  C   UNL     1       2.012   5.431  17.920  0.00  0.00    +0.000 A 
ATOM     27  C   UNL     1       2.197   4.045  17.922  0.00  0.00    +0.000 A 
ATOM     28  C   UNL     1       3.497   3.520  17.868  0.00  0.00    +0.000 A 
ATOM     29  C   UNL     1       4.585   4.400  17.783  0.00  0.00    +0.000 A 
ATOM     30  C   UNL     1       4.399   5.789  17.752  0.00  0.00    +0.000 A 
BRANCH  27  31
ATOM     31  O   UNL     1       1.158   3.148  17.990  0.00  0.00    +0.000 OA
ATOM     32  C   UNL     1       0.625   2.900  19.286  0.00  0.00    +0.000 C 
ENDBRANCH  27  31
BRANCH  28  33
ATOM     33  O   UNL     1       3.609   2.151  17.879  0.00  0.00    +0.000 OA
ATOM     34  C   UNL     1       4.037   1.542  19.091  0.00  0.00    +0.000 C 
ENDBRANCH  28  33
BRANCH  30  35
ATOM     35  O   UNL     1       5.574   6.474  17.573  0.00  0.00    +0.000 OA
ATOM     36  C   UNL     1       6.782   5.730  17.527  0.00  0.00    +0.000 C 
ENDBRANCH  30  35
ENDBRANCH   7  25
TORSDOF 8
ENDMDL
MODEL 6
REMARK VINA RESULT:      -7.0      1.885      9.607
REMARK  Name = 
REMARK  14 active torsions:
REMARK  status: ('A' for Active; 'I' for Inactive)
REMARK    1  A    between atoms: C_1  and  O_2
REMARK    2  A    between atoms: O_2  and  C_3
REMARK    3  A    between atoms: C_5  and  O_6
REMARK    4  A    between atoms: O_6  and  C_7
REMARK    5  A    between atoms: C_8  and  O_9
REMARK    6  A    between atoms: O_9  and  C_10
REMARK    7  A    between atoms: C_12  and  C_13
REMARK    8  A    between atoms: C_19  and  C_20
REMARK    9  A    between atoms: C_22  and  O_23
REMARK   10  A    between atoms: O_23  and  C_24
REMARK   11  A    between atoms: C_25  and  O_26
REMARK   12  A    between atoms: O_26  and  C_27
REMARK   13  A    between atoms: C_29  and  O_30
REMARK   14  A    between atoms: O_30  and  C_31
REMARK                            x       y       z     vdW  Elec       q    Type
REMARK                         _______ _______ _______ _____ _____    ______ ____
ROOT
ATOM      1  C   UNL     1       3.156   6.008  19.238  0.00  0.00    +0.000 C 
ATOM      2  CA  UNL     1       2.401   7.115  19.163  0.00  0.00    +0.000 A 
ATOM      3  N   UNL     1       2.532   8.045  18.159  0.00  0.00    +0.000 N 
ATOM      4  C   UNL     1       1.882   9.246  18.109  0.00  0.00    +0.000 A 
ATOM      5  O   UNL     1       2.036  10.022  17.172  0.00  0.00    +0.000 OA
ATOM      6  CA  UNL     1       1.012   9.549  19.294  0.00  0.00    +0.000 A 
ATOM      7  C   UNL     1       0.507  10.789  19.387  0.00  0.00    +0.000 C 
ATOM      8  N   UNL     1       0.801   8.578  20.244  0.00  0.00    +0.000 N 
ATOM      9  C   UNL     1       1.406   7.352  20.262  0.00  0.00    +0.000 A 
ATOM     10  O   UNL     1       1.166   6.528  21.140  0.00  0.00    +0.000 OA
ATOM     11  H   UNL     1       3.184   7.877  17.401  0.00  0.00    +0.000 HD
ATOM     12  H   UNL     1       0.185   8.765  21.027  0.00  0.00    +0.000 HD
ENDROOT
BRANCH   1  18
ATOM     13  C   UNL     1       4.134   4.706  17.294  0.00  0.00    +0.000 A 
ATOM     14  C   UNL     1       5.273   4.406  16.540  0.00  0.00    +0.000 A 
ATOM     15  C   UNL     1       6.496   5.058  16.761  0.00  0.00    +0.000 A 
ATOM     16  C   UNL     1       6.582   6.066  17.734  0.00  0.00    +0.000 A 
ATOM     17  C   UNL     1       5.439   6.371  18.482  0.00  0.00    +0.000 A 
ATOM     18  C   UNL     1       4.222   5.693  18.283  0.00  0.00    +0.000 A 
BRANCH  13  20
ATOM     19  C   UNL     1       3.072   2.603  17.690  0.00  0.00    +0.000 C 
ATOM     20  O   UNL     1       3.071   3.876  17.051  0.00  0.00    +0.000 OA
ENDBRANCH  13  20
BRANCH  15  21
ATOM     21  O   UNL     1       7.503   4.630  15.933  0.00  0.00    +0.000 OA
ATOM     22  C   UNL     1       7.283   4.792  14.536  0.00  0.00    +0.000 C 
ENDBRANCH  15  21
BRANCH  16  23
ATOM     23  O   UNL     1       7.780   6.709  17.895  0.00  0.00    +0.000 OA
ATOM     24  C   UNL     1       7.834   8.106  17.629  0.00  0.00    +0.000 C 
ENDBRANCH  16  23
ENDBRANCH   1  18
BRANCH   7  25
ATOM     25  C   UNL     1      -0.287  11.257  20.525  0.00  0.00    +0.000 A 
ATOM     26  C   UNL     1      -1.462  11.955  20.202  0.00  0.00    +0.000 A 
ATOM     27  C   UNL     1      -2.371  12.337  21.194  0.00  0.00    +0.000 A 
ATOM     28  C   UNL     1      -2.086  12.058  22.540  0.00  0.00    +0.000 A 
ATOM     29  C   UNL     1      -0.905  11.374  22.859  0.00  0.00    +0.000 A 
ATOM     30  C   UNL     1      -0.006  10.966  21.863  0.00  0.00    +0.000 A 
BRANCH  27  31
ATOM     31  O   UNL     1      -3.546  12.996  20.923  0.00  0.00    +0.000 OA
ATOM     32  C   UNL     1      -4.284  12.529  19.799  0.00  0.00    +0.000 C 
ENDBRANCH  27  31
BRANCH  28  33
ATOM     33  O   UNL     1      -3.018  12.464  23.463  0.00  0.00    +0.000 OA
ATOM     34  C   UNL     1      -2.877  13.776  23.996  0.00  0.00    +0.000 C 
ENDBRANCH  28  33
BRANCH  30  35
ATOM     35  O   UNL     1       1.038  10.233  22.364  0.00  0.00    +0.000 OA
ATOM     36  C   UNL     1       0.781   9.357  23.451  0.00  0.00    +0.000 C 
ENDBRANCH  30  35
ENDBRANCH   7  25
TORSDOF 8
ENDMDL
MODEL 7
REMARK VINA RESULT:      -7.0      1.949      3.934
REMARK  Name = 
REMARK  14 active torsions:
REMARK  status: ('A' for Active; 'I' for Inactive)
REMARK    1  A    between atoms: C_1  and  O_2
REMARK    2  A    between atoms: O_2  and  C_3
REMARK    3  A    between atoms: C_5  and  O_6
REMARK    4  A    between atoms: O_6  and  C_7
REMARK    5  A    between atoms: C_8  and  O_9
REMARK    6  A    between atoms: O_9  and  C_10
REMARK    7  A    between atoms: C_12  and  C_13
REMARK    8  A    between atoms: C_19  and  C_20
REMARK    9  A    between atoms: C_22  and  O_23
REMARK   10  A    between atoms: O_23  and  C_24
REMARK   11  A    between atoms: C_25  and  O_26
REMARK   12  A    between atoms: O_26  and  C_27
REMARK   13  A    between atoms: C_29  and  O_30
REMARK   14  A    between atoms: O_30  and  C_31
REMARK                            x       y       z     vdW  Elec       q    Type
REMARK                         _______ _______ _______ _____ _____    ______ ____
ROOT
ATOM      1  C   UNL     1      -1.701  12.588  21.095  0.00  0.00    +0.000 C 
ATOM      2  CA  UNL     1      -1.103  11.403  21.290  0.00  0.00    +0.000 A 
ATOM      3  N   UNL     1      -0.636  10.992  22.516  0.00  0.00    +0.000 N 
ATOM      4  C   UNL     1       0.094   9.858  22.741  0.00  0.00    +0.000 A 
ATOM      5  O   UNL     1       0.465   9.545  23.867  0.00  0.00    +0.000 OA
ATOM      6  CA  UNL     1       0.429   9.063  21.512  0.00  0.00    +0.000 A 
ATOM      7  C   UNL     1       1.302   8.052  21.652  0.00  0.00    +0.000 C 
ATOM      8  N   UNL     1      -0.124   9.417  20.305  0.00  0.00    +0.000 N 
ATOM      9  C   UNL     1      -0.904  10.520  20.091  0.00  0.00    +0.000 A 
ATOM     10  O   UNL     1      -1.372  10.773  18.986  0.00  0.00    +0.000 OA
ATOM     11  H   UNL     1      -0.790  11.572  23.333  0.00  0.00    +0.000 HD
ATOM     12  H   UNL     1       0.070   8.862  19.480  0.00  0.00    +0.000 HD
ENDROOT
BRANCH   1  18
ATOM     13  C   UNL     1      -0.841  14.238  22.817  0.00  0.00    +0.000 A 
ATOM     14  C   UNL     1      -1.146  15.058  23.908  0.00  0.00    +0.000 A 
ATOM     15  C   UNL     1      -2.465  15.224  24.359  0.00  0.00    +0.000 A 
ATOM     16  C   UNL     1      -3.517  14.589  23.683  0.00  0.00    +0.000 A 
ATOM     17  C   UNL     1      -3.212  13.775  22.586  0.00  0.00    +0.000 A 
ATOM     18  C   UNL     1      -1.885  13.582  22.155  0.00  0.00    +0.000 A 
BRANCH  13  20
ATOM     19  C   UNL     1       1.146  14.979  21.717  0.00  0.00    +0.000 C 
ATOM     20  O   UNL     1       0.502  14.070  22.605  0.00  0.00    +0.000 OA
ENDBRANCH  13  20
BRANCH  15  21
ATOM     21  O   UNL     1      -2.572  16.058  25.444  0.00  0.00    +0.000 OA
ATOM     22  C   UNL     1      -1.369  16.318  26.161  0.00  0.00    +0.000 C 
ENDBRANCH  15  21
BRANCH  16  23
ATOM     23  O   UNL     1      -4.794  14.806  24.126  0.00  0.00    +0.000 OA
ATOM     24  C   UNL     1      -5.689  15.515  23.276  0.00  0.00    +0.000 C 
ENDBRANCH  16  23
ENDBRANCH   1  18
BRANCH   7  25
ATOM     25  C   UNL     1       1.790   7.244  20.534  0.00  0.00    +0.000 A 
ATOM     26  C   UNL     1       1.711   5.852  20.707  0.00  0.00    +0.000 A 
ATOM     27  C   UNL     1       2.021   4.975  19.663  0.00  0.00    +0.000 A 
ATOM     28  C   UNL     1       2.461   5.490  18.433  0.00  0.00    +0.000 A 
ATOM     29  C   UNL     1       2.553   6.879  18.269  0.00  0.00    +0.000 A 
ATOM     30  C   UNL     1       2.216   7.760  19.306  0.00  0.00    +0.000 A 
BRANCH  27  31
ATOM     31  O   UNL     1       1.930   3.608  19.777  0.00  0.00    +0.000 OA
ATOM     32  C   UNL     1       1.000   3.118  20.736  0.00  0.00    +0.000 C 
ENDBRANCH  27  31
BRANCH  28  33
ATOM     33  O   UNL     1       2.753   4.574  17.452  0.00  0.00    +0.000 OA
ATOM     34  C   UNL     1       4.108   4.486  17.027  0.00  0.00    +0.000 C 
ENDBRANCH  28  33
BRANCH  30  35
ATOM     35  O   UNL     1       2.282   9.075  18.923  0.00  0.00    +0.000 OA
ATOM     36  C   UNL     1       1.865   9.411  17.608  0.00  0.00    +0.000 C 
ENDBRANCH  30  35
ENDBRANCH   7  25
TORSDOF 8
ENDMDL
MODEL 8
REMARK VINA RESULT:      -7.0      2.097      2.346
REMARK  Name = 
REMARK  14 active torsions:
REMARK  status: ('A' for Active; 'I' for Inactive)
REMARK    1  A    between atoms: C_1  and  O_2
REMARK    2  A    between atoms: O_2  and  C_3
REMARK    3  A    between atoms: C_5  and  O_6
REMARK    4  A    between atoms: O_6  and  C_7
REMARK    5  A    between atoms: C_8  and  O_9
REMARK    6  A    between atoms: O_9  and  C_10
REMARK    7  A    between atoms: C_12  and  C_13
REMARK    8  A    between atoms: C_19  and  C_20
REMARK    9  A    between atoms: C_22  and  O_23
REMARK   10  A    between atoms: O_23  and  C_24
REMARK   11  A    between atoms: C_25  and  O_26
REMARK   12  A    between atoms: O_26  and  C_27
REMARK   13  A    between atoms: C_29  and  O_30
REMARK   14  A    between atoms: O_30  and  C_31
REMARK                            x       y       z     vdW  Elec       q    Type
REMARK                         _______ _______ _______ _____ _____    ______ ____
ROOT
ATOM      1  C   UNL     1      -0.249  11.079  22.411  0.00  0.00    +0.000 C 
ATOM      2  CA  UNL     1       0.388  10.408  21.438  0.00  0.00    +0.000 A 
ATOM      3  N   UNL     1       0.094  10.564  20.104  0.00  0.00    +0.000 N 
ATOM      4  C   UNL     1       0.619   9.814  19.090  0.00  0.00    +0.000 A 
ATOM      5  O   UNL     1       0.322  10.020  17.918  0.00  0.00    +0.000 OA
ATOM      6  CA  UNL     1       1.541   8.712  19.524  0.00  0.00    +0.000 A 
ATOM      7  C   UNL     1       1.929   7.829  18.591  0.00  0.00    +0.000 C 
ATOM      8  N   UNL     1       1.915   8.623  20.845  0.00  0.00    +0.000 N 
ATOM      9  C   UNL     1       1.434   9.413  21.851  0.00  0.00    +0.000 A 
ATOM     10  O   UNL     1       1.816   9.283  23.010  0.00  0.00    +0.000 OA
ATOM     11  H   UNL     1      -0.593  11.253  19.818  0.00  0.00    +0.000 HD
ATOM     12  H   UNL     1       2.565   7.903  21.136  0.00  0.00    +0.000 HD
ENDROOT
BRANCH   1  18
ATOM     13  C   UNL     1      -1.238  13.174  21.380  0.00  0.00    +0.000 A 
ATOM     14  C   UNL     1      -2.319  14.059  21.335  0.00  0.00    +0.000 A 
ATOM     15  C   UNL     1      -3.497  13.820  22.059  0.00  0.00    +0.000 A 
ATOM     16  C   UNL     1      -3.621  12.648  22.821  0.00  0.00    +0.000 A 
ATOM     17  C   UNL     1      -2.540  11.759  22.859  0.00  0.00    +0.000 A 
ATOM     18  C   UNL     1      -1.346  12.016  22.158  0.00  0.00    +0.000 A 
BRANCH  13  20
ATOM     19  C   UNL     1       0.753  14.492  21.463  0.00  0.00    +0.000 C 
ATOM     20  O   UNL     1      -0.117  13.631  20.736  0.00  0.00    +0.000 OA
ENDBRANCH  13  20
BRANCH  15  21
ATOM     21  O   UNL     1      -4.446  14.798  21.900  0.00  0.00    +0.000 OA
ATOM     22  C   UNL     1      -5.353  14.627  20.816  0.00  0.00    +0.000 C 
ENDBRANCH  15  21
BRANCH  16  23
ATOM     23  O   UNL     1      -4.799  12.429  23.483  0.00  0.00    +0.000 OA
ATOM     24  C   UNL     1      -4.766  12.344  24.903  0.00  0.00    +0.000 C 
ENDBRANCH  16  23
ENDBRANCH   1  18
BRANCH   7  25
ATOM     25  C   UNL     1       2.756   6.655  18.879  0.00  0.00    +0.000 A 
ATOM     26  C   UNL     1       2.277   5.806  19.890  0.00  0.00    +0.000 A 
ATOM     27  C   UNL     1       2.904   4.587  20.167  0.00  0.00    +0.000 A 
ATOM     28  C   UNL     1       4.056   4.223  19.453  0.00  0.00    +0.000 A 
ATOM     29  C   UNL     1       4.539   5.080  18.454  0.00  0.00    +0.000 A 
ATOM     30  C   UNL     1       3.895   6.289  18.157  0.00  0.00    +0.000 A 
BRANCH  27  31
ATOM     31  O   UNL     1       2.455   3.712  21.127  0.00  0.00    +0.000 OA
ATOM     32  C   UNL     1       1.139   3.202  20.947  0.00  0.00    +0.000 C 
ENDBRANCH  27  31
BRANCH  28  33
ATOM     33  O   UNL     1       4.625   3.015  19.777  0.00  0.00    +0.000 OA
ATOM     34  C   UNL     1       4.128   1.862  19.108  0.00  0.00    +0.000 C 
ENDBRANCH  28  33
BRANCH  30  35
ATOM     35  O   UNL     1       4.462   6.939  17.091  0.00  0.00    +0.000 OA
ATOM     36  C   UNL     1       5.166   6.165  16.132  0.00  0.00    +0.000 C 
ENDBRANCH  30  35
ENDBRANCH   7  25
TORSDOF 8
ENDMDL
MODEL 9
REMARK VINA RESULT:      -6.9      1.685      9.982
REMARK  Name = 
REMARK  14 active torsions:
REMARK  status: ('A' for Active; 'I' for Inactive)
REMARK    1  A    between atoms: C_1  and  O_2
REMARK    2  A    between atoms: O_2  and  C_3
REMARK    3  A    between atoms: C_5  and  O_6
REMARK    4  A    between atoms: O_6  and  C_7
REMARK    5  A    between atoms: C_8  and  O_9
REMARK    6  A    between atoms: O_9  and  C_10
REMARK    7  A    between atoms: C_12  and  C_13
REMARK    8  A    between atoms: C_19  and  C_20
REMARK    9  A    between atoms: C_22  and  O_23
REMARK   10  A    between atoms: O_23  and  C_24
REMARK   11  A    between atoms: C_25  and  O_26
REMARK   12  A    between atoms: O_26  and  C_27
REMARK   13  A    between atoms: C_29  and  O_30
REMARK   14  A    between atoms: O_30  and  C_31
REMARK                            x       y       z     vdW  Elec       q    Type
REMARK                         _______ _______ _______ _____ _____    ______ ____
ROOT
ATOM      1  C   UNL     1       2.458   6.465  19.605  0.00  0.00    +0.000 C 
ATOM      2  CA  UNL     1       2.010   7.720  19.445  0.00  0.00    +0.000 A 
ATOM      3  N   UNL     1       2.238   8.457  18.308  0.00  0.00    +0.000 N 
ATOM      4  C   UNL     1       1.919   9.777  18.148  0.00  0.00    +0.000 A 
ATOM      5  O   UNL     1       2.139  10.369  17.097  0.00  0.00    +0.000 OA
ATOM      6  CA  UNL     1       1.326  10.439  19.358  0.00  0.00    +0.000 A 
ATOM      7  C   UNL     1       1.175  11.773  19.319  0.00  0.00    +0.000 C 
ATOM      8  N   UNL     1       1.003   9.678  20.456  0.00  0.00    +0.000 N 
ATOM      9  C   UNL     1       1.269   8.344  20.593  0.00  0.00    +0.000 A 
ATOM     10  O   UNL     1       0.947   7.723  21.601  0.00  0.00    +0.000 OA
ATOM     11  H   UNL     1       2.715   8.033  17.521  0.00  0.00    +0.000 HD
ATOM     12  H   UNL     1       0.569  10.115  21.261  0.00  0.00    +0.000 HD
ENDROOT
BRANCH   1  18
ATOM     13  C   UNL     1       2.793   4.733  17.783  0.00  0.00    +0.000 A 
ATOM     14  C   UNL     1       3.702   4.049  16.971  0.00  0.00    +0.000 A 
ATOM     15  C   UNL     1       5.070   4.361  16.972  0.00  0.00    +0.000 A 
ATOM     16  C   UNL     1       5.545   5.410  17.774  0.00  0.00    +0.000 A 
ATOM     17  C   UNL     1       4.633   6.099  18.581  0.00  0.00    +0.000 A 
ATOM     18  C   UNL     1       3.266   5.764  18.604  0.00  0.00    +0.000 A 
BRANCH  13  20
ATOM     19  C   UNL     1       1.311   3.002  18.501  0.00  0.00    +0.000 C 
ATOM     20  O   UNL     1       1.528   4.205  17.771  0.00  0.00    +0.000 OA
ENDBRANCH  13  20
BRANCH  15  21
ATOM     21  O   UNL     1       5.811   3.582  16.118  0.00  0.00    +0.000 OA
ATOM     22  C   UNL     1       5.932   4.053  14.780  0.00  0.00    +0.000 C 
ENDBRANCH  15  21
BRANCH  16  23
ATOM     23  O   UNL     1       6.880   5.712  17.719  0.00  0.00    +0.000 OA
ATOM     24  C   UNL     1       7.627   5.670  18.929  0.00  0.00    +0.000 C 
ENDBRANCH  16  23
ENDBRANCH   1  18
BRANCH   7  25
ATOM     25  C   UNL     1       0.691  12.567  20.449  0.00  0.00    +0.000 A 
ATOM     26  C   UNL     1       1.584  13.532  20.943  0.00  0.00    +0.000 A 
ATOM     27  C   UNL     1       1.193  14.441  21.931  0.00  0.00    +0.000 A 
ATOM     28  C   UNL     1      -0.101  14.362  22.471  0.00  0.00    +0.000 A 
ATOM     29  C   UNL     1      -0.984  13.389  21.985  0.00  0.00    +0.000 A 
ATOM     30  C   UNL     1      -0.602  12.495  20.975  0.00  0.00    +0.000 A 
BRANCH  27  31
ATOM     31  O   UNL     1       2.022  15.420  22.424  0.00  0.00    +0.000 OA
ATOM     32  C   UNL     1       2.421  16.429  21.502  0.00  0.00    +0.000 C 
ENDBRANCH  27  31
BRANCH  28  33
ATOM     33  O   UNL     1      -0.419  15.282  23.440  0.00  0.00    +0.000 OA
ATOM     34  C   UNL     1      -1.389  14.898  24.407  0.00  0.00    +0.000 C 
ENDBRANCH  28  33
BRANCH  30  35
ATOM     35  O   UNL     1      -1.631  11.683  20.573  0.00  0.00    +0.000 OA
ATOM     36  C   UNL     1      -2.633  12.239  19.734  0.00  0.00    +0.000 C 
ENDBRANCH  30  35
ENDBRANCH   7  25
TORSDOF 8
ENDMDL
