MODEL 1
REMARK VINA RESULT:      -9.7      0.000      0.000
REMARK  Name = 
REMARK  4 active torsions:
REMARK  status: ('A' for Active; 'I' for Inactive)
REMARK    1  A    between atoms: N_2  and  C_4
REMARK    2  A    between atoms: C_7  and  C_8
REMARK    3  A    between atoms: C_9  and  C_10
REMARK    4  A    between atoms: C_19  and  O_20
REMARK                            x       y       z     vdW  Elec       q    Type
REMARK                         _______ _______ _______ _____ _____    ______ ____
ROOT
ATOM      1  C   UNL     1       2.951   7.010  18.227  0.00  0.00    +0.000 C 
ATOM      2  C   UNL     1       2.968   5.659  18.270  0.00  0.00    +0.000 C 
ATOM      3  C   UNL     1       4.012   5.219  17.335  0.00  0.00    +0.000 A 
ATOM      4  C   UNL     1       4.356   3.921  16.977  0.00  0.00    +0.000 A 
ATOM      5  C   UNL     1       5.481   3.730  16.180  0.00  0.00    +0.000 A 
ATOM      6  C   UNL     1       6.236   4.837  15.773  0.00  0.00    +0.000 A 
ATOM      7  C   UNL     1       5.849   6.144  16.080  0.00  0.00    +0.000 A 
ATOM      8  C   UNL     1       4.709   6.322  16.845  0.00  0.00    +0.000 A 
ATOM      9  C   UNL     1       4.017   7.574  17.296  0.00  0.00    +0.000 C 
ENDROOT
BRANCH   1  13
ATOM     10  C   UNL     1       0.503   9.744  20.411  0.00  0.00    +0.000 A 
ATOM     11  C   UNL     1       1.061   8.643  21.071  0.00  0.00    +0.000 A 
ATOM     12  C   UNL     1       1.855   7.732  20.355  0.00  0.00    +0.000 A 
ATOM     13  C   UNL     1       2.088   7.918  18.987  0.00  0.00    +0.000 A 
ATOM     14  C   UNL     1       1.496   9.009  18.333  0.00  0.00    +0.000 A 
ATOM     15  C   UNL     1       0.707   9.925  19.038  0.00  0.00    +0.000 A 
BRANCH  10  17
ATOM     16  O   UNL     1      -1.211  11.303  20.561  0.00  0.00    +0.000 OA
ATOM     17  N   UNL     1      -0.296  10.724  21.162  0.00  0.00    +0.000 N 
ATOM     18  O   UNL     1      -0.015  10.907  22.355  0.00  0.00    +0.000 OA
ENDBRANCH  10  17
ENDBRANCH   1  13
BRANCH   2  19
ATOM     19  C   UNL     1       2.254   4.770  19.183  0.00  0.00    +0.000 A 
ATOM     20  C   UNL     1       1.240   3.925  18.738  0.00  0.00    +0.000 A 
ATOM     21  C   UNL     1       0.747   2.934  19.591  0.00  0.00    +0.000 A 
ATOM     22  C   UNL     1       1.261   2.791  20.880  0.00  0.00    +0.000 A 
ATOM     23  C   UNL     1       2.262   3.651  21.335  0.00  0.00    +0.000 A 
ATOM     24  C   UNL     1       2.752   4.641  20.490  0.00  0.00    +0.000 A 
ENDBRANCH   2  19
BRANCH   6  25
ATOM     25  O   UNL     1       7.388   4.661  15.062  0.00  0.00    +0.000 OA
ATOM     26  H   UNL     1       7.162   4.242  14.214  0.00  0.00    +0.000 HD
ENDBRANCH   6  25
TORSDOF 4
ENDMDL
MODEL 2
REMARK VINA RESULT:      -9.6      0.467      1.067
REMARK  Name = 
REMARK  4 active torsions:
REMARK  status: ('A' for Active; 'I' for Inactive)
REMARK    1  A    between atoms: N_2  and  C_4
REMARK    2  A    between atoms: C_7  and  C_8
REMARK    3  A    between atoms: C_9  and  C_10
REMARK    4  A    between atoms: C_19  and  O_20
REMARK                            x       y       z     vdW  Elec       q    Type
REMARK                         _______ _______ _______ _____ _____    ______ ____
ROOT
ATOM      1  C   UNL     1       3.078   6.892  18.193  0.00  0.00    +0.000 C 
ATOM      2  C   UNL     1       3.204   5.547  18.155  0.00  0.00    +0.000 C 
ATOM      3  C   UNL     1       4.231   5.246  17.149  0.00  0.00    +0.000 A 
ATOM      4  C   UNL     1       4.659   4.003  16.699  0.00  0.00    +0.000 A 
ATOM      5  C   UNL     1       5.755   3.949  15.841  0.00  0.00    +0.000 A 
ATOM      6  C   UNL     1       6.398   5.135  15.467  0.00  0.00    +0.000 A 
ATOM      7  C   UNL     1       5.924   6.387  15.868  0.00  0.00    +0.000 A 
ATOM      8  C   UNL     1       4.813   6.428  16.694  0.00  0.00    +0.000 A 
ATOM      9  C   UNL     1       4.048   7.592  17.249  0.00  0.00    +0.000 C 
ENDROOT
BRANCH   1  13
ATOM     10  C   UNL     1       0.541   9.287  20.654  0.00  0.00    +0.000 A 
ATOM     11  C   UNL     1       1.108   8.122  21.181  0.00  0.00    +0.000 A 
ATOM     12  C   UNL     1       1.931   7.322  20.373  0.00  0.00    +0.000 A 
ATOM     13  C   UNL     1       2.185   7.682  19.043  0.00  0.00    +0.000 A 
ATOM     14  C   UNL     1       1.583   8.837  18.521  0.00  0.00    +0.000 A 
ATOM     15  C   UNL     1       0.765   9.644  19.319  0.00  0.00    +0.000 A 
BRANCH  10  17
ATOM     16  O   UNL     1      -0.755  11.183  21.002  0.00  0.00    +0.000 OA
ATOM     17  N   UNL     1      -0.289  10.152  21.507  0.00  0.00    +0.000 N 
ATOM     18  O   UNL     1      -0.485   9.794  22.677  0.00  0.00    +0.000 OA
ENDBRANCH  10  17
ENDBRANCH   1  13
BRANCH   2  19
ATOM     19  C   UNL     1       2.610   4.552  19.045  0.00  0.00    +0.000 A 
ATOM     20  C   UNL     1       3.118   4.313  20.319  0.00  0.00    +0.000 A 
ATOM     21  C   UNL     1       2.389   3.529  21.216  0.00  0.00    +0.000 A 
ATOM     22  C   UNL     1       1.160   2.984  20.840  0.00  0.00    +0.000 A 
ATOM     23  C   UNL     1       0.659   3.204  19.556  0.00  0.00    +0.000 A 
ATOM     24  C   UNL     1       1.386   3.981  18.660  0.00  0.00    +0.000 A 
ENDBRANCH   2  19
BRANCH   6  25
ATOM     25  O   UNL     1       7.523   5.094  14.695  0.00  0.00    +0.000 OA
ATOM     26  H   UNL     1       8.156   4.485  15.111  0.00  0.00    +0.000 HD
ENDBRANCH   6  25
TORSDOF 4
ENDMDL
MODEL 3
REMARK VINA RESULT:      -9.4      0.532      1.559
REMARK  Name = 
REMARK  4 active torsions:
REMARK  status: ('A' for Active; 'I' for Inactive)
REMARK    1  A    between atoms: N_2  and  C_4
REMARK    2  A    between atoms: C_7  and  C_8
REMARK    3  A    between atoms: C_9  and  C_10
REMARK    4  A    between atoms: C_19  and  O_20
REMARK                            x       y       z     vdW  Elec       q    Type
REMARK                         _______ _______ _______ _____ _____    ______ ____
ROOT
ATOM      1  C   UNL     1       3.189   6.813  18.091  0.00  0.00    +0.000 C 
ATOM      2  C   UNL     1       3.273   5.464  18.092  0.00  0.00    +0.000 C 
ATOM      3  C   UNL     1       4.290   5.103  17.094  0.00  0.00    +0.000 A 
ATOM      4  C   UNL     1       4.678   3.835  16.680  0.00  0.00    +0.000 A 
ATOM      5  C   UNL     1       5.771   3.723  15.824  0.00  0.00    +0.000 A 
ATOM      6  C   UNL     1       6.450   4.877  15.417  0.00  0.00    +0.000 A 
ATOM      7  C   UNL     1       6.017   6.155  15.782  0.00  0.00    +0.000 A 
ATOM      8  C   UNL     1       4.908   6.253  16.606  0.00  0.00    +0.000 A 
ATOM      9  C   UNL     1       4.179   7.456  17.128  0.00  0.00    +0.000 C 
ENDROOT
BRANCH   1  13
ATOM     10  C   UNL     1       0.593   9.175  20.523  0.00  0.00    +0.000 A 
ATOM     11  C   UNL     1       0.854   9.574  19.207  0.00  0.00    +0.000 A 
ATOM     12  C   UNL     1       1.719   8.810  18.407  0.00  0.00    +0.000 A 
ATOM     13  C   UNL     1       2.322   7.655  18.919  0.00  0.00    +0.000 A 
ATOM     14  C   UNL     1       2.074   7.285  20.249  0.00  0.00    +0.000 A 
ATOM     15  C   UNL     1       1.211   8.037  21.054  0.00  0.00    +0.000 A 
BRANCH  10  17
ATOM     16  O   UNL     1      -0.566   9.540  22.502  0.00  0.00    +0.000 OA
ATOM     17  N   UNL     1      -0.343   9.947  21.354  0.00  0.00    +0.000 N 
ATOM     18  O   UNL     1      -0.848  10.967  20.862  0.00  0.00    +0.000 OA
ENDBRANCH  10  17
ENDBRANCH   1  13
BRANCH   2  19
ATOM     19  C   UNL     1       2.649   4.514  19.009  0.00  0.00    +0.000 A 
ATOM     20  C   UNL     1       3.193   4.241  20.262  0.00  0.00    +0.000 A 
ATOM     21  C   UNL     1       2.448   3.510  21.191  0.00  0.00    +0.000 A 
ATOM     22  C   UNL     1       1.170   3.053  20.869  0.00  0.00    +0.000 A 
ATOM     23  C   UNL     1       0.632   3.307  19.607  0.00  0.00    +0.000 A 
ATOM     24  C   UNL     1       1.372   4.031  18.678  0.00  0.00    +0.000 A 
ENDBRANCH   2  19
BRANCH   6  25
ATOM     25  O   UNL     1       7.573   4.779  14.646  0.00  0.00    +0.000 OA
ATOM     26  H   UNL     1       8.031   3.954  14.878  0.00  0.00    +0.000 HD
ENDBRANCH   6  25
TORSDOF 4
ENDMDL
MODEL 4
REMARK VINA RESULT:      -8.8      2.386      6.727
REMARK  Name = 
REMARK  4 active torsions:
REMARK  status: ('A' for Active; 'I' for Inactive)
REMARK    1  A    between atoms: N_2  and  C_4
REMARK    2  A    between atoms: C_7  and  C_8
REMARK    3  A    between atoms: C_9  and  C_10
REMARK    4  A    between atoms: C_19  and  O_20
REMARK                            x       y       z     vdW  Elec       q    Type
REMARK                         _______ _______ _______ _____ _____    ______ ____
ROOT
ATOM      1  C   UNL     1       2.874   7.080  18.569  0.00  0.00    +0.000 C 
ATOM      2  C   UNL     1       2.181   6.584  19.618  0.00  0.00    +0.000 C 
ATOM      3  C   UNL     1       1.392   7.695  20.167  0.00  0.00    +0.000 A 
ATOM      4  C   UNL     1       0.578   7.700  21.293  0.00  0.00    +0.000 A 
ATOM      5  C   UNL     1      -0.197   8.828  21.546  0.00  0.00    +0.000 A 
ATOM      6  C   UNL     1      -0.146   9.913  20.663  0.00  0.00    +0.000 A 
ATOM      7  C   UNL     1       0.723   9.932  19.568  0.00  0.00    +0.000 A 
ATOM      8  C   UNL     1       1.513   8.816  19.347  0.00  0.00    +0.000 A 
ATOM      9  C   UNL     1       2.560   8.548  18.308  0.00  0.00    +0.000 C 
ENDROOT
BRANCH   1  13
ATOM     10  C   UNL     1       5.544   5.057  15.920  0.00  0.00    +0.000 A 
ATOM     11  C   UNL     1       4.527   4.335  16.555  0.00  0.00    +0.000 A 
ATOM     12  C   UNL     1       3.656   4.991  17.439  0.00  0.00    +0.000 A 
ATOM     13  C   UNL     1       3.799   6.361  17.689  0.00  0.00    +0.000 A 
ATOM     14  C   UNL     1       4.842   7.064  17.069  0.00  0.00    +0.000 A 
ATOM     15  C   UNL     1       5.714   6.422  16.183  0.00  0.00    +0.000 A 
BRANCH  10  17
ATOM     16  O   UNL     1       5.920   3.632  14.124  0.00  0.00    +0.000 OA
ATOM     17  N   UNL     1       6.435   4.386  14.962  0.00  0.00    +0.000 N 
ATOM     18  O   UNL     1       7.650   4.621  15.039  0.00  0.00    +0.000 OA
ENDBRANCH  10  17
ENDBRANCH   1  13
BRANCH   2  19
ATOM     19  C   UNL     1       2.052   5.194  20.048  0.00  0.00    +0.000 A 
ATOM     20  C   UNL     1       2.640   4.733  21.223  0.00  0.00    +0.000 A 
ATOM     21  C   UNL     1       2.303   3.468  21.711  0.00  0.00    +0.000 A 
ATOM     22  C   UNL     1       1.387   2.668  21.028  0.00  0.00    +0.000 A 
ATOM     23  C   UNL     1       0.813   3.119  19.838  0.00  0.00    +0.000 A 
ATOM     24  C   UNL     1       1.150   4.376  19.348  0.00  0.00    +0.000 A 
ENDBRANCH   2  19
BRANCH   6  25
ATOM     25  O   UNL     1      -0.961  10.993  20.850  0.00  0.00    +0.000 OA
ATOM     26  H   UNL     1      -0.738  11.398  21.706  0.00  0.00    +0.000 HD
ENDBRANCH   6  25
TORSDOF 4
ENDMDL
MODEL 5
REMARK VINA RESULT:      -8.7      2.387      6.799
REMARK  Name = 
REMARK  4 active torsions:
REMARK  status: ('A' for Active; 'I' for Inactive)
REMARK    1  A    between atoms: N_2  and  C_4
REMARK    2  A    between atoms: C_7  and  C_8
REMARK    3  A    between atoms: C_9  and  C_10
REMARK    4  A    between atoms: C_19  and  O_20
REMARK                            x       y       z     vdW  Elec       q    Type
REMARK                         _______ _______ _______ _____ _____    ______ ____
ROOT
ATOM      1  C   UNL     1       2.879   7.132  18.601  0.00  0.00    +0.000 C 
ATOM      2  C   UNL     1       2.180   6.618  19.637  0.00  0.00    +0.000 C 
ATOM      3  C   UNL     1       1.390   7.720  20.204  0.00  0.00    +0.000 A 
ATOM      4  C   UNL     1       0.571   7.705  21.325  0.00  0.00    +0.000 A 
ATOM      5  C   UNL     1      -0.202   8.830  21.597  0.00  0.00    +0.000 A 
ATOM      6  C   UNL     1      -0.144   9.932  20.735  0.00  0.00    +0.000 A 
ATOM      7  C   UNL     1       0.730   9.970  19.645  0.00  0.00    +0.000 A 
ATOM      8  C   UNL     1       1.518   8.856  19.406  0.00  0.00    +0.000 A 
ATOM      9  C   UNL     1       2.570   8.605  18.367  0.00  0.00    +0.000 C 
ENDROOT
BRANCH   1  13
ATOM     10  C   UNL     1       5.655   5.067  16.098  0.00  0.00    +0.000 A 
ATOM     11  C   UNL     1       5.234   6.353  15.742  0.00  0.00    +0.000 A 
ATOM     12  C   UNL     1       4.309   7.031  16.553  0.00  0.00    +0.000 A 
ATOM     13  C   UNL     1       3.807   6.428  17.712  0.00  0.00    +0.000 A 
ATOM     14  C   UNL     1       4.215   5.126  18.038  0.00  0.00    +0.000 A 
ATOM     15  C   UNL     1       5.139   4.443  17.240  0.00  0.00    +0.000 A 
BRANCH  10  17
ATOM     16  O   UNL     1       7.850   4.544  15.546  0.00  0.00    +0.000 OA
ATOM     17  N   UNL     1       6.653   4.366  15.276  0.00  0.00    +0.000 N 
ATOM     18  O   UNL     1       6.242   3.630  14.368  0.00  0.00    +0.000 OA
ENDBRANCH  10  17
ENDBRANCH   1  13
BRANCH   2  19
ATOM     19  C   UNL     1       2.045   5.220  20.039  0.00  0.00    +0.000 A 
ATOM     20  C   UNL     1       2.547   4.755  21.253  0.00  0.00    +0.000 A 
ATOM     21  C   UNL     1       2.197   3.478  21.698  0.00  0.00    +0.000 A 
ATOM     22  C   UNL     1       1.356   2.669  20.934  0.00  0.00    +0.000 A 
ATOM     23  C   UNL     1       0.870   3.124  19.707  0.00  0.00    +0.000 A 
ATOM     24  C   UNL     1       1.219   4.393  19.259  0.00  0.00    +0.000 A 
ENDBRANCH   2  19
BRANCH   6  25
ATOM     25  O   UNL     1      -0.957  11.010  20.939  0.00  0.00    +0.000 OA
ATOM     26  H   UNL     1      -1.331  10.945  21.834  0.00  0.00    +0.000 HD
ENDBRANCH   6  25
TORSDOF 4
ENDMDL
MODEL 6
REMARK VINA RESULT:      -8.3      2.383      6.686
REMARK  Name = 
REMARK  4 active torsions:
REMARK  status: ('A' for Active; 'I' for Inactive)
REMARK    1  A    between atoms: N_2  and  C_4
REMARK    2  A    between atoms: C_7  and  C_8
REMARK    3  A    between atoms: C_9  and  C_10
REMARK    4  A    between atoms: C_19  and  O_20
REMARK                            x       y       z     vdW  Elec       q    Type
REMARK                         _______ _______ _______ _____ _____    ______ ____
ROOT
ATOM      1  C   UNL     1       2.783   7.041  18.773  0.00  0.00    +0.000 C 
ATOM      2  C   UNL     1       2.016   6.568  19.780  0.00  0.00    +0.000 C 
ATOM      3  C   UNL     1       1.240   7.705  20.292  0.00  0.00    +0.000 A 
ATOM      4  C   UNL     1       0.366   7.737  21.372  0.00  0.00    +0.000 A 
ATOM      5  C   UNL     1      -0.378   8.893  21.589  0.00  0.00    +0.000 A 
ATOM      6  C   UNL     1      -0.238   9.979  20.716  0.00  0.00    +0.000 A 
ATOM      7  C   UNL     1       0.689   9.968  19.670  0.00  0.00    +0.000 A 
ATOM      8  C   UNL     1       1.447   8.824  19.486  0.00  0.00    +0.000 A 
ATOM      9  C   UNL     1       2.539   8.520  18.504  0.00  0.00    +0.000 C 
ENDROOT
BRANCH   1  13
ATOM     10  C   UNL     1       5.524   4.935  16.266  0.00  0.00    +0.000 A 
ATOM     11  C   UNL     1       4.379   4.280  16.734  0.00  0.00    +0.000 A 
ATOM     12  C   UNL     1       3.482   4.962  17.571  0.00  0.00    +0.000 A 
ATOM     13  C   UNL     1       3.727   6.291  17.940  0.00  0.00    +0.000 A 
ATOM     14  C   UNL     1       4.894   6.923  17.488  0.00  0.00    +0.000 A 
ATOM     15  C   UNL     1       5.794   6.254  16.650  0.00  0.00    +0.000 A 
BRANCH  10  17
ATOM     16  O   UNL     1       7.663   4.382  15.550  0.00  0.00    +0.000 OA
ATOM     17  N   UNL     1       6.448   4.241  15.356  0.00  0.00    +0.000 N 
ATOM     18  O   UNL     1       5.959   3.545  14.454  0.00  0.00    +0.000 OA
ENDBRANCH  10  17
ENDBRANCH   1  13
BRANCH   2  19
ATOM     19  C   UNL     1       1.811   5.182  20.194  0.00  0.00    +0.000 A 
ATOM     20  C   UNL     1       0.957   4.328  19.500  0.00  0.00    +0.000 A 
ATOM     21  C   UNL     1       0.967   2.961  19.787  0.00  0.00    +0.000 A 
ATOM     22  C   UNL     1       1.823   2.451  20.763  0.00  0.00    +0.000 A 
ATOM     23  C   UNL     1       2.665   3.307  21.475  0.00  0.00    +0.000 A 
ATOM     24  C   UNL     1       2.654   4.669  21.195  0.00  0.00    +0.000 A 
ENDBRANCH   2  19
BRANCH   6  25
ATOM     25  O   UNL     1      -1.021  11.088  20.865  0.00  0.00    +0.000 OA
ATOM     26  H   UNL     1      -1.371  11.094  21.772  0.00  0.00    +0.000 HD
ENDBRANCH   6  25
TORSDOF 4
ENDMDL
MODEL 7
REMARK VINA RESULT:      -8.3      2.395      6.711
REMARK  Name = 
REMARK  4 active torsions:
REMARK  status: ('A' for Active; 'I' for Inactive)
REMARK    1  A    between atoms: N_2  and  C_4
REMARK    2  A    between atoms: C_7  and  C_8
REMARK    3  A    between atoms: C_9  and  C_10
REMARK    4  A    between atoms: C_19  and  O_20
REMARK                            x       y       z     vdW  Elec       q    Type
REMARK                         _______ _______ _______ _____ _____    ______ ____
ROOT
ATOM      1  C   UNL     1       2.809   7.082  18.831  0.00  0.00    +0.000 C 
ATOM      2  C   UNL     1       2.023   6.563  19.801  0.00  0.00    +0.000 C 
ATOM      3  C   UNL     1       1.254   7.681  20.365  0.00  0.00    +0.000 A 
ATOM      4  C   UNL     1       0.367   7.663  21.434  0.00  0.00    +0.000 A 
ATOM      5  C   UNL     1      -0.367   8.815  21.706  0.00  0.00    +0.000 A 
ATOM      6  C   UNL     1      -0.203   9.946  20.897  0.00  0.00    +0.000 A 
ATOM      7  C   UNL     1       0.739   9.982  19.864  0.00  0.00    +0.000 A 
ATOM      8  C   UNL     1       1.486   8.840  19.626  0.00  0.00    +0.000 A 
ATOM      9  C   UNL     1       2.587   8.577  18.642  0.00  0.00    +0.000 C 
ENDROOT
BRANCH   1  13
ATOM     10  C   UNL     1       5.642   4.997  16.410  0.00  0.00    +0.000 A 
ATOM     11  C   UNL     1       5.145   6.232  15.977  0.00  0.00    +0.000 A 
ATOM     12  C   UNL     1       4.202   6.915  16.761  0.00  0.00    +0.000 A 
ATOM     13  C   UNL     1       3.756   6.368  17.971  0.00  0.00    +0.000 A 
ATOM     14  C   UNL     1       4.240   5.115  18.376  0.00  0.00    +0.000 A 
ATOM     15  C   UNL     1       5.184   4.428  17.604  0.00  0.00    +0.000 A 
BRANCH  10  17
ATOM     16  O   UNL     1       6.269   3.524  14.727  0.00  0.00    +0.000 OA
ATOM     17  N   UNL     1       6.660   4.294  15.615  0.00  0.00    +0.000 N 
ATOM     18  O   UNL     1       7.852   4.521  15.870  0.00  0.00    +0.000 OA
ENDBRANCH  10  17
ENDBRANCH   1  13
BRANCH   2  19
ATOM     19  C   UNL     1       1.797   5.159  20.134  0.00  0.00    +0.000 A 
ATOM     20  C   UNL     1       1.178   4.286  19.244  0.00  0.00    +0.000 A 
ATOM     21  C   UNL     1       1.189   2.913  19.506  0.00  0.00    +0.000 A 
ATOM     22  C   UNL     1       1.812   2.418  20.652  0.00  0.00    +0.000 A 
ATOM     23  C   UNL     1       2.414   3.294  21.557  0.00  0.00    +0.000 A 
ATOM     24  C   UNL     1       2.400   4.660  21.301  0.00  0.00    +0.000 A 
ENDBRANCH   2  19
BRANCH   6  25
ATOM     25  O   UNL     1      -0.974  11.054  21.097  0.00  0.00    +0.000 OA
ATOM     26  H   UNL     1      -1.608  10.860  21.808  0.00  0.00    +0.000 HD
ENDBRANCH   6  25
TORSDOF 4
ENDMDL
MODEL 8
REMARK VINA RESULT:      -7.7      4.414      8.050
REMARK  Name = 
REMARK  4 active torsions:
REMARK  status: ('A' for Active; 'I' for Inactive)
REMARK    1  A    between atoms: N_2  and  C_4
REMARK    2  A    between atoms: C_7  and  C_8
REMARK    3  A    between atoms: C_9  and  C_10
REMARK    4  A    between atoms: C_19  and  O_20
REMARK                            x       y       z     vdW  Elec       q    Type
REMARK                         _______ _______ _______ _____ _____    ______ ____
ROOT
ATOM      1  C   UNL     1       4.312   4.209  16.800  0.00  0.00    +0.000 C 
ATOM      2  C   UNL     1       4.550   4.967  17.894  0.00  0.00    +0.000 C 
ATOM      3  C   UNL     1       3.510   4.631  18.876  0.00  0.00    +0.000 A 
ATOM      4  C   UNL     1       3.289   5.197  20.125  0.00  0.00    +0.000 A 
ATOM      5  C   UNL     1       2.332   4.621  20.955  0.00  0.00    +0.000 A 
ATOM      6  C   UNL     1       1.632   3.489  20.519  0.00  0.00    +0.000 A 
ATOM      7  C   UNL     1       1.809   2.961  19.237  0.00  0.00    +0.000 A 
ATOM      8  C   UNL     1       2.741   3.566  18.410  0.00  0.00    +0.000 A 
ATOM      9  C   UNL     1       3.124   3.274  16.989  0.00  0.00    +0.000 C 
ENDROOT
BRANCH   1  13
ATOM     10  C   UNL     1       6.509   4.007  13.144  0.00  0.00    +0.000 A 
ATOM     11  C   UNL     1       7.178   4.327  14.331  0.00  0.00    +0.000 A 
ATOM     12  C   UNL     1       6.459   4.410  15.534  0.00  0.00    +0.000 A 
ATOM     13  C   UNL     1       5.078   4.177  15.551  0.00  0.00    +0.000 A 
ATOM     14  C   UNL     1       4.417   3.888  14.349  0.00  0.00    +0.000 A 
ATOM     15  C   UNL     1       5.125   3.798  13.145  0.00  0.00    +0.000 A 
BRANCH  10  17
ATOM     16  O   UNL     1       7.454   2.737  11.444  0.00  0.00    +0.000 OA
ATOM     17  N   UNL     1       7.262   3.878  11.887  0.00  0.00    +0.000 N 
ATOM     18  O   UNL     1       7.653   4.918  11.337  0.00  0.00    +0.000 OA
ENDBRANCH  10  17
ENDBRANCH   1  13
BRANCH   2  19
ATOM     19  C   UNL     1       5.701   5.820  18.176  0.00  0.00    +0.000 A 
ATOM     20  C   UNL     1       6.737   5.401  19.007  0.00  0.00    +0.000 A 
ATOM     21  C   UNL     1       7.917   6.147  19.066  0.00  0.00    +0.000 A 
ATOM     22  C   UNL     1       8.060   7.305  18.301  0.00  0.00    +0.000 A 
ATOM     23  C   UNL     1       7.015   7.739  17.484  0.00  0.00    +0.000 A 
ATOM     24  C   UNL     1       5.837   7.001  17.427  0.00  0.00    +0.000 A 
ENDBRANCH   2  19
BRANCH   6  25
ATOM     25  O   UNL     1       0.750   2.861  21.352  0.00  0.00    +0.000 OA
ATOM     26  H   UNL     1       1.090   2.927  22.261  0.00  0.00    +0.000 HD
ENDBRANCH   6  25
TORSDOF 4
ENDMDL
MODEL 9
REMARK VINA RESULT:      -7.5      3.919      5.957
REMARK  Name = 
REMARK  4 active torsions:
REMARK  status: ('A' for Active; 'I' for Inactive)
REMARK    1  A    between atoms: N_2  and  C_4
REMARK    2  A    between atoms: C_7  and  C_8
REMARK    3  A    between atoms: C_9  and  C_10
REMARK    4  A    between atoms: C_19  and  O_20
REMARK                            x       y       z     vdW  Elec       q    Type
REMARK                         _______ _______ _______ _____ _____    ______ ____
ROOT
ATOM      1  C   UNL     1       5.154   4.106  16.516  0.00  0.00    +0.000 C 
ATOM      2  C   UNL     1       6.263   4.864  16.365  0.00  0.00    +0.000 C 
ATOM      3  C   UNL     1       6.706   4.692  14.974  0.00  0.00    +0.000 A 
ATOM      4  C   UNL     1       7.841   5.209  14.362  0.00  0.00    +0.000 A 
ATOM      5  C   UNL     1       7.989   5.040  12.988  0.00  0.00    +0.000 A 
ATOM      6  C   UNL     1       6.995   4.369  12.264  0.00  0.00    +0.000 A 
ATOM      7  C   UNL     1       5.888   3.793  12.893  0.00  0.00    +0.000 A 
ATOM      8  C   UNL     1       5.771   3.940  14.265  0.00  0.00    +0.000 A 
ATOM      9  C   UNL     1       4.745   3.411  15.223  0.00  0.00    +0.000 C 
ENDROOT
BRANCH   1  13
ATOM     10  C   UNL     1       2.759   3.535  20.005  0.00  0.00    +0.000 A 
ATOM     11  C   UNL     1       2.394   4.514  19.073  0.00  0.00    +0.000 A 
ATOM     12  C   UNL     1       3.185   4.717  17.932  0.00  0.00    +0.000 A 
ATOM     13  C   UNL     1       4.337   3.948  17.722  0.00  0.00    +0.000 A 
ATOM     14  C   UNL     1       4.706   2.993  18.680  0.00  0.00    +0.000 A 
ATOM     15  C   UNL     1       3.922   2.779  19.819  0.00  0.00    +0.000 A 
BRANCH  10  17
ATOM     16  O   UNL     1       0.709   3.066  20.992  0.00  0.00    +0.000 OA
ATOM     17  N   UNL     1       1.913   3.289  21.182  0.00  0.00    +0.000 N 
ATOM     18  O   UNL     1       2.454   3.306  22.297  0.00  0.00    +0.000 OA
ENDBRANCH  10  17
ENDBRANCH   1  13
BRANCH   2  19
ATOM     19  C   UNL     1       6.839   5.829  17.297  0.00  0.00    +0.000 A 
ATOM     20  C   UNL     1       7.521   5.424  18.442  0.00  0.00    +0.000 A 
ATOM     21  C   UNL     1       8.249   6.363  19.178  0.00  0.00    +0.000 A 
ATOM     22  C   UNL     1       8.292   7.697  18.774  0.00  0.00    +0.000 A 
ATOM     23  C   UNL     1       7.591   8.110  17.639  0.00  0.00    +0.000 A 
ATOM     24  C   UNL     1       6.863   7.179  16.907  0.00  0.00    +0.000 A 
ENDBRANCH   2  19
BRANCH   6  25
ATOM     25  O   UNL     1       7.083   4.267  10.905  0.00  0.00    +0.000 OA
ATOM     26  H   UNL     1       6.307   3.776  10.586  0.00  0.00    +0.000 HD
ENDBRANCH   6  25
TORSDOF 4
ENDMDL
