MODEL 1
REMARK VINA RESULT:      -8.8      0.000      0.000
REMARK  Name = 
REMARK  11 active torsions:
REMARK  status: ('A' for Active; 'I' for Inactive)
REMARK    1  A    between atoms: C_1  and  C_2
REMARK    2  A    between atoms: C_2  and  C_3
REMARK    3  A    between atoms: C_3  and  C_4
REMARK    4  A    between atoms: C_7  and  C_8
REMARK    5  A    between atoms: C_8  and  C_9
REMARK    6  A    between atoms: C_13  and  C_14
REMARK    7  A    between atoms: C_19  and  O_20
REMARK    8  A    between atoms: C_23  and  O_24
REMARK    9  A    between atoms: O_24  and  C_25
REMARK   10  A    between atoms: C_26  and  O_27
REMARK   11  A    between atoms: O_27  and  C_28
REMARK                            x       y       z     vdW  Elec       q    Type
REMARK                         _______ _______ _______ _____ _____    ______ ____
ROOT
ATOM      1  C   UNL     1       2.791   4.698  20.347  0.00  0.00    +0.000 A 
ATOM      2  N   UNL     1       3.762   4.076  19.637  0.00  0.00    +0.000 NA
ATOM      3  C   UNL     1       4.381   4.787  18.675  0.00  0.00    +0.000 A 
ATOM      4  C   UNL     1       4.060   6.093  18.337  0.00  0.00    +0.000 A 
ATOM      5  C   UNL     1       2.984   6.725  19.030  0.00  0.00    +0.000 A 
ATOM      6  C   UNL     1       2.454   8.018  18.700  0.00  0.00    +0.000 A 
ATOM      7  C   UNL     1       1.425   8.658  19.436  0.00  0.00    +0.000 A 
ATOM      8  C   UNL     1       0.911   8.002  20.552  0.00  0.00    +0.000 A 
ATOM      9  C   UNL     1       1.383   6.706  20.833  0.00  0.00    +0.000 A 
ATOM     10  C   UNL     1       2.376   6.034  20.085  0.00  0.00    +0.000 A 
ENDROOT
BRANCH   7  11
ATOM     11  O   UNL     1       0.868   9.734  18.797  0.00  0.00    +0.000 OA
ATOM     12  C   UNL     1       1.705  10.844  18.498  0.00  0.00    +0.000 C 
ENDBRANCH   7  11
BRANCH   8  13
ATOM     13  O   UNL     1      -0.055   8.323  21.456  0.00  0.00    +0.000 OA
ATOM     14  C   UNL     1       0.036   9.430  22.321  0.00  0.00    +0.000 C 
ENDBRANCH   8  13
BRANCH   1  15
ATOM     15  C   UNL     1       2.146   3.827  21.395  0.00  0.00    +0.000 C 
BRANCH  15  17
ATOM     16  C   UNL     1       0.583   2.889  19.656  0.00  0.00    +0.000 C 
ATOM     17  C   UNL     1       1.546   2.557  20.784  0.00  0.00    +0.000 C 
ENDBRANCH  15  17
ENDBRANCH   1  15
BRANCH   4  18
ATOM     18  C   UNL     1       4.943   6.785  17.330  0.00  0.00    +0.000 C 
BRANCH  18  19
ATOM     19  C   UNL     1       5.633   5.949  16.282  0.00  0.00    +0.000 A 
ATOM     20  C   UNL     1       4.959   5.098  15.413  0.00  0.00    +0.000 A 
ATOM     21  C   UNL     1       5.613   4.555  14.302  0.00  0.00    +0.000 A 
ATOM     22  C   UNL     1       4.919   3.788  13.358  0.00  0.00    +0.000 A 
ATOM     23  C   UNL     1       5.547   3.332  12.198  0.00  0.00    +0.000 A 
ATOM     24  C   UNL     1       4.806   2.515  11.190  0.00  0.00    +0.000 C 
ATOM     25  C   UNL     1       6.900   3.642  12.004  0.00  0.00    +0.000 A 
ATOM     26  C   UNL     1       7.594   4.384  12.960  0.00  0.00    +0.000 A 
ATOM     27  C   UNL     1       6.981   4.862  14.113  0.00  0.00    +0.000 A 
ATOM     28  N   UNL     1       7.671   5.614  14.983  0.00  0.00    +0.000 NA
ATOM     29  C   UNL     1       6.983   6.137  16.012  0.00  0.00    +0.000 A 
BRANCH  29  30
ATOM     30  O   UNL     1       7.737   6.968  16.775  0.00  0.00    +0.000 OA
ATOM     31  H   UNL     1       8.324   7.332  16.088  0.00  0.00    +0.000 HD
ENDBRANCH  29  30
ENDBRANCH  18  19
ENDBRANCH   4  18
TORSDOF 7
ENDMDL
MODEL 2
REMARK VINA RESULT:      -8.2      3.946      6.768
REMARK  Name = 
REMARK  11 active torsions:
REMARK  status: ('A' for Active; 'I' for Inactive)
REMARK    1  A    between atoms: C_1  and  C_2
REMARK    2  A    between atoms: C_2  and  C_3
REMARK    3  A    between atoms: C_3  and  C_4
REMARK    4  A    between atoms: C_7  and  C_8
REMARK    5  A    between atoms: C_8  and  C_9
REMARK    6  A    between atoms: C_13  and  C_14
REMARK    7  A    between atoms: C_19  and  O_20
REMARK    8  A    between atoms: C_23  and  O_24
REMARK    9  A    between atoms: O_24  and  C_25
REMARK   10  A    between atoms: C_26  and  O_27
REMARK   11  A    between atoms: O_27  and  C_28
REMARK                            x       y       z     vdW  Elec       q    Type
REMARK                         _______ _______ _______ _____ _____    ______ ____
ROOT
ATOM      1  C   UNL     1      -0.348  11.339  20.639  0.00  0.00    +0.000 A 
ATOM      2  N   UNL     1       0.852  10.822  20.996  0.00  0.00    +0.000 NA
ATOM      3  C   UNL     1       1.470  10.020  20.108  0.00  0.00    +0.000 A 
ATOM      4  C   UNL     1       0.942   9.658  18.877  0.00  0.00    +0.000 A 
ATOM      5  C   UNL     1      -0.357  10.138  18.533  0.00  0.00    +0.000 A 
ATOM      6  C   UNL     1      -1.084   9.741  17.360  0.00  0.00    +0.000 A 
ATOM      7  C   UNL     1      -2.348  10.273  17.001  0.00  0.00    +0.000 A 
ATOM      8  C   UNL     1      -2.909  11.247  17.823  0.00  0.00    +0.000 A 
ATOM      9  C   UNL     1      -2.227  11.584  19.008  0.00  0.00    +0.000 A 
ATOM     10  C   UNL     1      -0.988  11.033  19.405  0.00  0.00    +0.000 A 
ENDROOT
BRANCH   7  11
ATOM     11  O   UNL     1      -2.996   9.563  16.024  0.00  0.00    +0.000 OA
ATOM     12  C   UNL     1      -3.325  10.233  14.814  0.00  0.00    +0.000 C 
ENDBRANCH   7  11
BRANCH   8  13
ATOM     13  O   UNL     1      -4.074  11.949  17.773  0.00  0.00    +0.000 OA
ATOM     14  C   UNL     1      -5.018  11.952  18.817  0.00  0.00    +0.000 C 
ENDBRANCH   8  13
BRANCH   1  15
ATOM     15  C   UNL     1      -0.974  12.216  21.695  0.00  0.00    +0.000 C 
BRANCH  15  17
ATOM     16  C   UNL     1      -2.799  11.980  23.416  0.00  0.00    +0.000 C 
ATOM     17  C   UNL     1      -1.507  11.392  22.871  0.00  0.00    +0.000 C 
ENDBRANCH  15  17
ENDBRANCH   1  15
BRANCH   4  18
ATOM     18  C   UNL     1       1.827   8.864  17.950  0.00  0.00    +0.000 C 
BRANCH  18  19
ATOM     19  C   UNL     1       2.459   7.596  18.467  0.00  0.00    +0.000 A 
ATOM     20  C   UNL     1       1.928   6.843  19.508  0.00  0.00    +0.000 A 
ATOM     21  C   UNL     1       2.405   5.554  19.767  0.00  0.00    +0.000 A 
ATOM     22  C   UNL     1       1.806   4.744  20.739  0.00  0.00    +0.000 A 
ATOM     23  C   UNL     1       2.214   3.422  20.927  0.00  0.00    +0.000 A 
ATOM     24  C   UNL     1       1.574   2.556  21.962  0.00  0.00    +0.000 C 
ATOM     25  C   UNL     1       3.255   2.925  20.131  0.00  0.00    +0.000 A 
ATOM     26  C   UNL     1       3.867   3.744  19.182  0.00  0.00    +0.000 A 
ATOM     27  C   UNL     1       3.461   5.057  18.969  0.00  0.00    +0.000 A 
ATOM     28  N   UNL     1       4.042   5.797  18.013  0.00  0.00    +0.000 NA
ATOM     29  C   UNL     1       3.521   7.014  17.785  0.00  0.00    +0.000 A 
BRANCH  29  30
ATOM     30  O   UNL     1       4.100   7.642  16.731  0.00  0.00    +0.000 OA
ATOM     31  H   UNL     1       3.380   8.252  16.488  0.00  0.00    +0.000 HD
ENDBRANCH  29  30
ENDBRANCH  18  19
ENDBRANCH   4  18
TORSDOF 7
ENDMDL
MODEL 3
REMARK VINA RESULT:      -8.1      3.430      8.081
REMARK  Name = 
REMARK  11 active torsions:
REMARK  status: ('A' for Active; 'I' for Inactive)
REMARK    1  A    between atoms: C_1  and  C_2
REMARK    2  A    between atoms: C_2  and  C_3
REMARK    3  A    between atoms: C_3  and  C_4
REMARK    4  A    between atoms: C_7  and  C_8
REMARK    5  A    between atoms: C_8  and  C_9
REMARK    6  A    between atoms: C_13  and  C_14
REMARK    7  A    between atoms: C_19  and  O_20
REMARK    8  A    between atoms: C_23  and  O_24
REMARK    9  A    between atoms: O_24  and  C_25
REMARK   10  A    between atoms: C_26  and  O_27
REMARK   11  A    between atoms: O_27  and  C_28
REMARK                            x       y       z     vdW  Elec       q    Type
REMARK                         _______ _______ _______ _____ _____    ______ ____
ROOT
ATOM      1  C   UNL     1       4.093   6.135  17.276  0.00  0.00    +0.000 A 
ATOM      2  N   UNL     1       3.933   7.470  17.115  0.00  0.00    +0.000 NA
ATOM      3  C   UNL     1       3.164   8.115  18.013  0.00  0.00    +0.000 A 
ATOM      4  C   UNL     1       2.494   7.497  19.059  0.00  0.00    +0.000 A 
ATOM      5  C   UNL     1       2.598   6.080  19.183  0.00  0.00    +0.000 A 
ATOM      6  C   UNL     1       1.859   5.291  20.129  0.00  0.00    +0.000 A 
ATOM      7  C   UNL     1       2.018   3.891  20.281  0.00  0.00    +0.000 A 
ATOM      8  C   UNL     1       2.956   3.246  19.479  0.00  0.00    +0.000 A 
ATOM      9  C   UNL     1       3.629   4.008  18.505  0.00  0.00    +0.000 A 
ATOM     10  C   UNL     1       3.452   5.396  18.309  0.00  0.00    +0.000 A 
ENDROOT
BRANCH   7  11
ATOM     11  O   UNL     1       1.029   3.293  21.016  0.00  0.00    +0.000 OA
ATOM     12  C   UNL     1       1.412   2.436  22.084  0.00  0.00    +0.000 C 
ENDBRANCH   7  11
BRANCH   8  13
ATOM     13  O   UNL     1       3.351   1.947  19.369  0.00  0.00    +0.000 OA
ATOM     14  C   UNL     1       3.803   1.378  18.164  0.00  0.00    +0.000 C 
ENDBRANCH   8  13
BRANCH   1  15
ATOM     15  C   UNL     1       4.960   5.493  16.222  0.00  0.00    +0.000 C 
BRANCH  15  17
ATOM     16  C   UNL     1       7.125   4.800  17.309  0.00  0.00    +0.000 C 
ATOM     17  C   UNL     1       6.440   5.830  16.425  0.00  0.00    +0.000 C 
ENDBRANCH  15  17
ENDBRANCH   1  15
BRANCH   4  18
ATOM     18  C   UNL     1       1.788   8.387  20.050  0.00  0.00    +0.000 C 
BRANCH  18  19
ATOM     19  C   UNL     1       0.788   9.390  19.534  0.00  0.00    +0.000 A 
ATOM     20  C   UNL     1       0.133   9.263  18.314  0.00  0.00    +0.000 A 
ATOM     21  C   UNL     1      -0.964  10.075  18.009  0.00  0.00    +0.000 A 
ATOM     22  C   UNL     1      -1.701   9.883  16.834  0.00  0.00    +0.000 A 
ATOM     23  C   UNL     1      -2.856  10.624  16.578  0.00  0.00    +0.000 A 
ATOM     24  C   UNL     1      -3.644  10.418  15.325  0.00  0.00    +0.000 C 
ATOM     25  C   UNL     1      -3.256  11.584  17.518  0.00  0.00    +0.000 A 
ATOM     26  C   UNL     1      -2.504  11.790  18.675  0.00  0.00    +0.000 A 
ATOM     27  C   UNL     1      -1.361  11.049  18.954  0.00  0.00    +0.000 A 
ATOM     28  N   UNL     1      -0.694  11.243  20.101  0.00  0.00    +0.000 NA
ATOM     29  C   UNL     1       0.331  10.412  20.357  0.00  0.00    +0.000 A 
BRANCH  29  30
ATOM     30  O   UNL     1       0.873  10.614  21.584  0.00  0.00    +0.000 OA
ATOM     31  H   UNL     1       0.061  10.617  22.123  0.00  0.00    +0.000 HD
ENDBRANCH  29  30
ENDBRANCH  18  19
ENDBRANCH   4  18
TORSDOF 7
ENDMDL
MODEL 4
REMARK VINA RESULT:      -8.0      3.107      7.723
REMARK  Name = 
REMARK  11 active torsions:
REMARK  status: ('A' for Active; 'I' for Inactive)
REMARK    1  A    between atoms: C_1  and  C_2
REMARK    2  A    between atoms: C_2  and  C_3
REMARK    3  A    between atoms: C_3  and  C_4
REMARK    4  A    between atoms: C_7  and  C_8
REMARK    5  A    between atoms: C_8  and  C_9
REMARK    6  A    between atoms: C_13  and  C_14
REMARK    7  A    between atoms: C_19  and  O_20
REMARK    8  A    between atoms: C_23  and  O_24
REMARK    9  A    between atoms: O_24  and  C_25
REMARK   10  A    between atoms: C_26  and  O_27
REMARK   11  A    between atoms: O_27  and  C_28
REMARK                            x       y       z     vdW  Elec       q    Type
REMARK                         _______ _______ _______ _____ _____    ______ ____
ROOT
ATOM      1  C   UNL     1       1.670   4.770  19.575  0.00  0.00    +0.000 A 
ATOM      2  N   UNL     1       1.024   5.527  20.493  0.00  0.00    +0.000 NA
ATOM      3  C   UNL     1       1.271   6.851  20.491  0.00  0.00    +0.000 A 
ATOM      4  C   UNL     1       2.171   7.479  19.643  0.00  0.00    +0.000 A 
ATOM      5  C   UNL     1       2.912   6.673  18.728  0.00  0.00    +0.000 A 
ATOM      6  C   UNL     1       3.969   7.162  17.887  0.00  0.00    +0.000 A 
ATOM      7  C   UNL     1       4.654   6.360  16.940  0.00  0.00    +0.000 A 
ATOM      8  C   UNL     1       4.270   5.029  16.805  0.00  0.00    +0.000 A 
ATOM      9  C   UNL     1       3.282   4.534  17.678  0.00  0.00    +0.000 A 
ATOM     10  C   UNL     1       2.619   5.306  18.659  0.00  0.00    +0.000 A 
ENDROOT
BRANCH   7  11
ATOM     11  O   UNL     1       5.804   6.927  16.457  0.00  0.00    +0.000 OA
ATOM     12  C   UNL     1       6.925   7.015  17.328  0.00  0.00    +0.000 C 
ENDBRANCH   7  11
BRANCH   8  13
ATOM     13  O   UNL     1       4.706   4.010  16.014  0.00  0.00    +0.000 OA
ATOM     14  C   UNL     1       5.811   4.124  15.150  0.00  0.00    +0.000 C 
ENDBRANCH   8  13
BRANCH   1  15
ATOM     15  C   UNL     1       1.343   3.300  19.655  0.00  0.00    +0.000 C 
BRANCH  15  17
ATOM     16  C   UNL     1       2.563   2.571  21.735  0.00  0.00    +0.000 C 
ATOM     17  C   UNL     1       1.204   2.830  21.105  0.00  0.00    +0.000 C 
ENDBRANCH  15  17
ENDBRANCH   1  15
BRANCH   4  18
ATOM     18  C   UNL     1       2.224   8.985  19.683  0.00  0.00    +0.000 C 
BRANCH  18  19
ATOM     19  C   UNL     1       0.989   9.761  19.301  0.00  0.00    +0.000 A 
ATOM     20  C   UNL     1       0.327   9.601  18.089  0.00  0.00    +0.000 A 
ATOM     21  C   UNL     1      -0.947  10.147  17.899  0.00  0.00    +0.000 A 
ATOM     22  C   UNL     1      -1.671   9.901  16.725  0.00  0.00    +0.000 A 
ATOM     23  C   UNL     1      -2.981  10.359  16.577  0.00  0.00    +0.000 A 
ATOM     24  C   UNL     1      -3.754  10.094  15.327  0.00  0.00    +0.000 C 
ATOM     25  C   UNL     1      -3.555  11.092  17.625  0.00  0.00    +0.000 A 
ATOM     26  C   UNL     1      -2.821  11.357  18.781  0.00  0.00    +0.000 A 
ATOM     27  C   UNL     1      -1.521  10.894  18.953  0.00  0.00    +0.000 A 
ATOM     28  N   UNL     1      -0.867  11.128  20.100  0.00  0.00    +0.000 NA
ATOM     29  C   UNL     1       0.339  10.551  20.241  0.00  0.00    +0.000 A 
BRANCH  29  30
ATOM     30  O   UNL     1       0.875  10.754  21.471  0.00  0.00    +0.000 OA
ATOM     31  H   UNL     1       0.462  10.014  21.953  0.00  0.00    +0.000 HD
ENDBRANCH  29  30
ENDBRANCH  18  19
ENDBRANCH   4  18
TORSDOF 7
ENDMDL
MODEL 5
REMARK VINA RESULT:      -7.8      2.928      8.855
REMARK  Name = 
REMARK  11 active torsions:
REMARK  status: ('A' for Active; 'I' for Inactive)
REMARK    1  A    between atoms: C_1  and  C_2
REMARK    2  A    between atoms: C_2  and  C_3
REMARK    3  A    between atoms: C_3  and  C_4
REMARK    4  A    between atoms: C_7  and  C_8
REMARK    5  A    between atoms: C_8  and  C_9
REMARK    6  A    between atoms: C_13  and  C_14
REMARK    7  A    between atoms: C_19  and  O_20
REMARK    8  A    between atoms: C_23  and  O_24
REMARK    9  A    between atoms: O_24  and  C_25
REMARK   10  A    between atoms: C_26  and  O_27
REMARK   11  A    between atoms: O_27  and  C_28
REMARK                            x       y       z     vdW  Elec       q    Type
REMARK                         _______ _______ _______ _____ _____    ______ ____
ROOT
ATOM      1  C   UNL     1       2.113   5.338  20.234  0.00  0.00    +0.000 A 
ATOM      2  N   UNL     1       1.305   6.225  20.863  0.00  0.00    +0.000 NA
ATOM      3  C   UNL     1       1.267   7.481  20.379  0.00  0.00    +0.000 A 
ATOM      4  C   UNL     1       2.029   7.933  19.312  0.00  0.00    +0.000 A 
ATOM      5  C   UNL     1       2.939   7.022  18.698  0.00  0.00    +0.000 A 
ATOM      6  C   UNL     1       3.884   7.381  17.677  0.00  0.00    +0.000 A 
ATOM      7  C   UNL     1       4.739   6.451  17.035  0.00  0.00    +0.000 A 
ATOM      8  C   UNL     1       4.648   5.111  17.403  0.00  0.00    +0.000 A 
ATOM      9  C   UNL     1       3.771   4.772  18.451  0.00  0.00    +0.000 A 
ATOM     10  C   UNL     1       2.943   5.691  19.134  0.00  0.00    +0.000 A 
ENDROOT
BRANCH   7  11
ATOM     11  O   UNL     1       5.752   7.029  16.316  0.00  0.00    +0.000 OA
ATOM     12  C   UNL     1       6.974   7.313  16.986  0.00  0.00    +0.000 C 
ENDBRANCH   7  11
BRANCH   8  13
ATOM     13  O   UNL     1       5.302   3.988  16.997  0.00  0.00    +0.000 OA
ATOM     14  C   UNL     1       5.734   3.784  15.674  0.00  0.00    +0.000 C 
ENDBRANCH   8  13
BRANCH   1  15
ATOM     15  C   UNL     1       2.102   3.960  20.848  0.00  0.00    +0.000 C 
BRANCH  15  17
ATOM     16  C   UNL     1       1.121   2.318  19.208  0.00  0.00    +0.000 C 
ATOM     17  C   UNL     1       0.856   3.169  20.439  0.00  0.00    +0.000 C 
ENDBRANCH  15  17
ENDBRANCH   1  15
BRANCH   4  18
ATOM     18  C   UNL     1       1.762   9.331  18.814  0.00  0.00    +0.000 C 
BRANCH  18  19
ATOM     19  C   UNL     1       0.564  10.072  19.352  0.00  0.00    +0.000 A 
ATOM     20  C   UNL     1       0.543  10.696  20.594  0.00  0.00    +0.000 A 
ATOM     21  C   UNL     1      -0.489  11.581  20.925  0.00  0.00    +0.000 A 
ATOM     22  C   UNL     1      -0.465  12.301  22.126  0.00  0.00    +0.000 A 
ATOM     23  C   UNL     1      -1.439  13.259  22.412  0.00  0.00    +0.000 A 
ATOM     24  C   UNL     1      -1.413  14.029  23.692  0.00  0.00    +0.000 C 
ATOM     25  C   UNL     1      -2.460  13.473  21.475  0.00  0.00    +0.000 A 
ATOM     26  C   UNL     1      -2.494  12.735  20.292  0.00  0.00    +0.000 A 
ATOM     27  C   UNL     1      -1.522  11.790  19.983  0.00  0.00    +0.000 A 
ATOM     28  N   UNL     1      -1.564  11.136  18.813  0.00  0.00    +0.000 NA
ATOM     29  C   UNL     1      -0.529  10.325  18.533  0.00  0.00    +0.000 A 
BRANCH  29  30
ATOM     30  O   UNL     1      -0.605   9.794  17.287  0.00  0.00    +0.000 OA
ATOM     31  H   UNL     1      -1.078  10.514  16.831  0.00  0.00    +0.000 HD
ENDBRANCH  29  30
ENDBRANCH  18  19
ENDBRANCH   4  18
TORSDOF 7
ENDMDL
MODEL 6
REMARK VINA RESULT:      -7.5      3.403      8.246
REMARK  Name = 
REMARK  11 active torsions:
REMARK  status: ('A' for Active; 'I' for Inactive)
REMARK    1  A    between atoms: C_1  and  C_2
REMARK    2  A    between atoms: C_2  and  C_3
REMARK    3  A    between atoms: C_3  and  C_4
REMARK    4  A    between atoms: C_7  and  C_8
REMARK    5  A    between atoms: C_8  and  C_9
REMARK    6  A    between atoms: C_13  and  C_14
REMARK    7  A    between atoms: C_19  and  O_20
REMARK    8  A    between atoms: C_23  and  O_24
REMARK    9  A    between atoms: O_24  and  C_25
REMARK   10  A    between atoms: C_26  and  O_27
REMARK   11  A    between atoms: O_27  and  C_28
REMARK                            x       y       z     vdW  Elec       q    Type
REMARK                         _______ _______ _______ _____ _____    ______ ____
ROOT
ATOM      1  C   UNL     1       1.925   6.091  20.302  0.00  0.00    +0.000 A 
ATOM      2  N   UNL     1       1.289   7.176  20.804  0.00  0.00    +0.000 NA
ATOM      3  C   UNL     1       1.374   8.324  20.105  0.00  0.00    +0.000 A 
ATOM      4  C   UNL     1       2.103   8.477  18.935  0.00  0.00    +0.000 A 
ATOM      5  C   UNL     1       2.839   7.356  18.447  0.00  0.00    +0.000 A 
ATOM      6  C   UNL     1       3.740   7.401  17.329  0.00  0.00    +0.000 A 
ATOM      7  C   UNL     1       4.417   6.265  16.819  0.00  0.00    +0.000 A 
ATOM      8  C   UNL     1       4.184   5.033  17.425  0.00  0.00    +0.000 A 
ATOM      9  C   UNL     1       3.355   5.004  18.562  0.00  0.00    +0.000 A 
ATOM     10  C   UNL     1       2.706   6.132  19.113  0.00  0.00    +0.000 A 
ENDROOT
BRANCH   7  11
ATOM     11  O   UNL     1       5.438   6.565  15.955  0.00  0.00    +0.000 OA
ATOM     12  C   UNL     1       6.762   6.207  16.330  0.00  0.00    +0.000 C 
ENDBRANCH   7  11
BRANCH   8  13
ATOM     13  O   UNL     1       4.656   3.777  17.193  0.00  0.00    +0.000 OA
ATOM     14  C   UNL     1       4.092   2.624  17.769  0.00  0.00    +0.000 C 
ENDBRANCH   8  13
BRANCH   1  15
ATOM     15  C   UNL     1       1.785   4.853  21.152  0.00  0.00    +0.000 C 
BRANCH  15  17
ATOM     16  C   UNL     1       1.548   2.407  20.596  0.00  0.00    +0.000 C 
ATOM     17  C   UNL     1       0.927   3.788  20.463  0.00  0.00    +0.000 C 
ENDBRANCH  15  17
ENDBRANCH   1  15
BRANCH   4  18
ATOM     18  C   UNL     1       1.980   9.793  18.209  0.00  0.00    +0.000 C 
BRANCH  18  19
ATOM     19  C   UNL     1       0.744  10.627  18.433  0.00  0.00    +0.000 A 
ATOM     20  C   UNL     1      -0.496  10.324  17.882  0.00  0.00    +0.000 A 
ATOM     21  C   UNL     1      -1.650  10.974  18.330  0.00  0.00    +0.000 A 
ATOM     22  C   UNL     1      -2.917  10.601  17.864  0.00  0.00    +0.000 A 
ATOM     23  C   UNL     1      -4.075  11.179  18.387  0.00  0.00    +0.000 A 
ATOM     24  C   UNL     1      -5.428  10.780  17.891  0.00  0.00    +0.000 C 
ATOM     25  C   UNL     1      -3.944  12.160  19.379  0.00  0.00    +0.000 A 
ATOM     26  C   UNL     1      -2.679  12.546  19.821  0.00  0.00    +0.000 A 
ATOM     27  C   UNL     1      -1.515  11.970  19.325  0.00  0.00    +0.000 A 
ATOM     28  N   UNL     1      -0.320  12.335  19.812  0.00  0.00    +0.000 NA
ATOM     29  C   UNL     1       0.751  11.652  19.370  0.00  0.00    +0.000 A 
BRANCH  29  30
ATOM     30  O   UNL     1       1.897  12.016  19.997  0.00  0.00    +0.000 OA
ATOM     31  H   UNL     1       1.531  12.308  20.852  0.00  0.00    +0.000 HD
ENDBRANCH  29  30
ENDBRANCH  18  19
ENDBRANCH   4  18
TORSDOF 7
ENDMDL
MODEL 7
REMARK VINA RESULT:      -7.5      2.705      8.668
REMARK  Name = 
REMARK  11 active torsions:
REMARK  status: ('A' for Active; 'I' for Inactive)
REMARK    1  A    between atoms: C_1  and  C_2
REMARK    2  A    between atoms: C_2  and  C_3
REMARK    3  A    between atoms: C_3  and  C_4
REMARK    4  A    between atoms: C_7  and  C_8
REMARK    5  A    between atoms: C_8  and  C_9
REMARK    6  A    between atoms: C_13  and  C_14
REMARK    7  A    between atoms: C_19  and  O_20
REMARK    8  A    between atoms: C_23  and  O_24
REMARK    9  A    between atoms: O_24  and  C_25
REMARK   10  A    between atoms: C_26  and  O_27
REMARK   11  A    between atoms: O_27  and  C_28
REMARK                            x       y       z     vdW  Elec       q    Type
REMARK                         _______ _______ _______ _____ _____    ______ ____
ROOT
ATOM      1  C   UNL     1       1.784   4.611  19.487  0.00  0.00    +0.000 A 
ATOM      2  N   UNL     1       1.101   5.322  20.416  0.00  0.00    +0.000 NA
ATOM      3  C   UNL     1       1.308   6.652  20.453  0.00  0.00    +0.000 A 
ATOM      4  C   UNL     1       2.200   7.331  19.638  0.00  0.00    +0.000 A 
ATOM      5  C   UNL     1       2.979   6.573  18.712  0.00  0.00    +0.000 A 
ATOM      6  C   UNL     1       4.032   7.117  17.901  0.00  0.00    +0.000 A 
ATOM      7  C   UNL     1       4.755   6.364  16.943  0.00  0.00    +0.000 A 
ATOM      8  C   UNL     1       4.415   5.025  16.766  0.00  0.00    +0.000 A 
ATOM      9  C   UNL     1       3.430   4.477  17.609  0.00  0.00    +0.000 A 
ATOM     10  C   UNL     1       2.729   5.200  18.600  0.00  0.00    +0.000 A 
ENDROOT
BRANCH   7  11
ATOM     11  O   UNL     1       5.895   6.979  16.494  0.00  0.00    +0.000 OA
ATOM     12  C   UNL     1       7.074   6.861  17.279  0.00  0.00    +0.000 C 
ENDBRANCH   7  11
BRANCH   8  13
ATOM     13  O   UNL     1       4.893   4.043  15.953  0.00  0.00    +0.000 OA
ATOM     14  C   UNL     1       5.522   4.301  14.721  0.00  0.00    +0.000 C 
ENDBRANCH   8  13
BRANCH   1  15
ATOM     15  C   UNL     1       1.501   3.130  19.521  0.00  0.00    +0.000 C 
BRANCH  15  17
ATOM     16  C   UNL     1       2.687   2.522  21.659  0.00  0.00    +0.000 C 
ATOM     17  C   UNL     1       1.343   2.617  20.955  0.00  0.00    +0.000 C 
ENDBRANCH  15  17
ENDBRANCH   1  15
BRANCH   4  18
ATOM     18  C   UNL     1       2.207   8.836  19.720  0.00  0.00    +0.000 C 
BRANCH  18  19
ATOM     19  C   UNL     1       0.888   9.558  19.831  0.00  0.00    +0.000 A 
ATOM     20  C   UNL     1       0.348   9.987  21.038  0.00  0.00    +0.000 A 
ATOM     21  C   UNL     1      -0.736  10.872  21.056  0.00  0.00    +0.000 A 
ATOM     22  C   UNL     1      -1.218  11.399  22.260  0.00  0.00    +0.000 A 
ATOM     23  C   UNL     1      -2.231  12.360  22.272  0.00  0.00    +0.000 A 
ATOM     24  C   UNL     1      -2.744  12.925  23.556  0.00  0.00    +0.000 C 
ATOM     25  C   UNL     1      -2.773  12.775  21.047  0.00  0.00    +0.000 A 
ATOM     26  C   UNL     1      -2.307  12.227  19.852  0.00  0.00    +0.000 A 
ATOM     27  C   UNL     1      -1.287  11.283  19.820  0.00  0.00    +0.000 A 
ATOM     28  N   UNL     1      -0.834  10.817  18.647  0.00  0.00    +0.000 NA
ATOM     29  C   UNL     1       0.230   9.997  18.688  0.00  0.00    +0.000 A 
BRANCH  29  30
ATOM     30  O   UNL     1       0.683   9.666  17.453  0.00  0.00    +0.000 OA
ATOM     31  H   UNL     1       1.640   9.796  17.590  0.00  0.00    +0.000 HD
ENDBRANCH  29  30
ENDBRANCH  18  19
ENDBRANCH   4  18
TORSDOF 7
ENDMDL
MODEL 8
REMARK VINA RESULT:      -7.5      2.351      8.246
REMARK  Name = 
REMARK  11 active torsions:
REMARK  status: ('A' for Active; 'I' for Inactive)
REMARK    1  A    between atoms: C_1  and  C_2
REMARK    2  A    between atoms: C_2  and  C_3
REMARK    3  A    between atoms: C_3  and  C_4
REMARK    4  A    between atoms: C_7  and  C_8
REMARK    5  A    between atoms: C_8  and  C_9
REMARK    6  A    between atoms: C_13  and  C_14
REMARK    7  A    between atoms: C_19  and  O_20
REMARK    8  A    between atoms: C_23  and  O_24
REMARK    9  A    between atoms: O_24  and  C_25
REMARK   10  A    between atoms: C_26  and  O_27
REMARK   11  A    between atoms: O_27  and  C_28
REMARK                            x       y       z     vdW  Elec       q    Type
REMARK                         _______ _______ _______ _____ _____    ______ ____
ROOT
ATOM      1  C   UNL     1       2.632   3.782  18.139  0.00  0.00    +0.000 A 
ATOM      2  N   UNL     1       1.820   4.326  19.077  0.00  0.00    +0.000 NA
ATOM      3  C   UNL     1       2.062   5.599  19.444  0.00  0.00    +0.000 A 
ATOM      4  C   UNL     1       3.108   6.370  18.958  0.00  0.00    +0.000 A 
ATOM      5  C   UNL     1       4.011   5.773  18.030  0.00  0.00    +0.000 A 
ATOM      6  C   UNL     1       5.210   6.400  17.546  0.00  0.00    +0.000 A 
ATOM      7  C   UNL     1       6.065   5.818  16.577  0.00  0.00    +0.000 A 
ATOM      8  C   UNL     1       5.715   4.576  16.052  0.00  0.00    +0.000 A 
ATOM      9  C   UNL     1       4.579   3.933  16.577  0.00  0.00    +0.000 A 
ATOM     10  C   UNL     1       3.738   4.477  17.575  0.00  0.00    +0.000 A 
ENDROOT
BRANCH   7  11
ATOM     11  O   UNL     1       7.286   6.430  16.471  0.00  0.00    +0.000 OA
ATOM     12  C   UNL     1       7.622   7.428  17.427  0.00  0.00    +0.000 C 
ENDBRANCH   7  11
BRANCH   8  13
ATOM     13  O   UNL     1       6.296   3.758  15.131  0.00  0.00    +0.000 OA
ATOM     14  C   UNL     1       6.221   3.983  13.744  0.00  0.00    +0.000 C 
ENDBRANCH   8  13
BRANCH   1  15
ATOM     15  C   UNL     1       2.297   2.352  17.795  0.00  0.00    +0.000 C 
BRANCH  15  17
ATOM     16  C   UNL     1       3.958   1.844  19.621  0.00  0.00    +0.000 C 
ATOM     17  C   UNL     1       3.372   1.383  18.296  0.00  0.00    +0.000 C 
ENDBRANCH  15  17
ENDBRANCH   1  15
BRANCH   4  18
ATOM     18  C   UNL     1       3.151   7.818  19.373  0.00  0.00    +0.000 C 
BRANCH  18  19
ATOM     19  C   UNL     1       1.856   8.588  19.442  0.00  0.00    +0.000 A 
ATOM     20  C   UNL     1       1.217   8.909  20.634  0.00  0.00    +0.000 A 
ATOM     21  C   UNL     1       0.172   9.839  20.651  0.00  0.00    +0.000 A 
ATOM     22  C   UNL     1      -0.406  10.255  21.857  0.00  0.00    +0.000 A 
ATOM     23  C   UNL     1      -1.377  11.257  21.883  0.00  0.00    +0.000 A 
ATOM     24  C   UNL     1      -1.992  11.703  23.169  0.00  0.00    +0.000 C 
ATOM     25  C   UNL     1      -1.780  11.829  20.668  0.00  0.00    +0.000 A 
ATOM     26  C   UNL     1      -1.220  11.393  19.467  0.00  0.00    +0.000 A 
ATOM     27  C   UNL     1      -0.239  10.408  19.424  0.00  0.00    +0.000 A 
ATOM     28  N   UNL     1       0.309  10.052  18.253  0.00  0.00    +0.000 NA
ATOM     29  C   UNL     1       1.331   9.180  18.300  0.00  0.00    +0.000 A 
BRANCH  29  30
ATOM     30  O   UNL     1       1.890   8.964  17.083  0.00  0.00    +0.000 OA
ATOM     31  H   UNL     1       1.112   9.119  16.516  0.00  0.00    +0.000 HD
ENDBRANCH  29  30
ENDBRANCH  18  19
ENDBRANCH   4  18
TORSDOF 7
ENDMDL
MODEL 9
REMARK VINA RESULT:      -7.5      3.998      6.931
REMARK  Name = 
REMARK  11 active torsions:
REMARK  status: ('A' for Active; 'I' for Inactive)
REMARK    1  A    between atoms: C_1  and  C_2
REMARK    2  A    between atoms: C_2  and  C_3
REMARK    3  A    between atoms: C_3  and  C_4
REMARK    4  A    between atoms: C_7  and  C_8
REMARK    5  A    between atoms: C_8  and  C_9
REMARK    6  A    between atoms: C_13  and  C_14
REMARK    7  A    between atoms: C_19  and  O_20
REMARK    8  A    between atoms: C_23  and  O_24
REMARK    9  A    between atoms: O_24  and  C_25
REMARK   10  A    between atoms: C_26  and  O_27
REMARK   11  A    between atoms: O_27  and  C_28
REMARK                            x       y       z     vdW  Elec       q    Type
REMARK                         _______ _______ _______ _____ _____    ______ ____
ROOT
ATOM      1  C   UNL     1      -0.470  11.343  21.256  0.00  0.00    +0.000 A 
ATOM      2  N   UNL     1       0.750  10.825  21.534  0.00  0.00    +0.000 NA
ATOM      3  C   UNL     1       1.374  10.146  20.552  0.00  0.00    +0.000 A 
ATOM      4  C   UNL     1       0.832   9.906  19.298  0.00  0.00    +0.000 A 
ATOM      5  C   UNL     1      -0.486  10.382  19.030  0.00  0.00    +0.000 A 
ATOM      6  C   UNL     1      -1.225  10.096  17.832  0.00  0.00    +0.000 A 
ATOM      7  C   UNL     1      -2.509  10.627  17.555  0.00  0.00    +0.000 A 
ATOM      8  C   UNL     1      -3.081  11.487  18.489  0.00  0.00    +0.000 A 
ATOM      9  C   UNL     1      -2.386  11.711  19.693  0.00  0.00    +0.000 A 
ATOM     10  C   UNL     1      -1.125  11.156  20.007  0.00  0.00    +0.000 A 
ENDROOT
BRANCH   7  11
ATOM     11  O   UNL     1      -3.156  10.010  16.516  0.00  0.00    +0.000 OA
ATOM     12  C   UNL     1      -2.864  10.442  15.193  0.00  0.00    +0.000 C 
ENDBRANCH   7  11
BRANCH   8  13
ATOM     13  O   UNL     1      -4.267  12.155  18.536  0.00  0.00    +0.000 OA
ATOM     14  C   UNL     1      -4.793  12.710  19.718  0.00  0.00    +0.000 C 
ENDBRANCH   8  13
BRANCH   1  15
ATOM     15  C   UNL     1      -1.099  12.078  22.413  0.00  0.00    +0.000 C 
BRANCH  15  17
ATOM     16  C   UNL     1       0.380  14.050  21.890  0.00  0.00    +0.000 C 
ATOM     17  C   UNL     1      -1.032  13.596  22.222  0.00  0.00    +0.000 C 
ENDBRANCH  15  17
ENDBRANCH   1  15
BRANCH   4  18
ATOM     18  C   UNL     1       1.721   9.247  18.274  0.00  0.00    +0.000 C 
BRANCH  18  19
ATOM     19  C   UNL     1       2.330   7.908  18.605  0.00  0.00    +0.000 A 
ATOM     20  C   UNL     1       1.895   7.104  19.652  0.00  0.00    +0.000 A 
ATOM     21  C   UNL     1       2.316   5.774  19.748  0.00  0.00    +0.000 A 
ATOM     22  C   UNL     1       1.800   4.921  20.732  0.00  0.00    +0.000 A 
ATOM     23  C   UNL     1       2.141   3.568  20.765  0.00  0.00    +0.000 A 
ATOM     24  C   UNL     1       1.589   2.658  21.814  0.00  0.00    +0.000 C 
ATOM     25  C   UNL     1       3.031   3.080  19.799  0.00  0.00    +0.000 A 
ATOM     26  C   UNL     1       3.563   3.938  18.836  0.00  0.00    +0.000 A 
ATOM     27  C   UNL     1       3.221   5.285  18.777  0.00  0.00    +0.000 A 
ATOM     28  N   UNL     1       3.716   6.065  17.806  0.00  0.00    +0.000 NA
ATOM     29  C   UNL     1       3.251   7.325  17.742  0.00  0.00    +0.000 A 
BRANCH  29  30
ATOM     30  O   UNL     1       3.724   8.003  16.667  0.00  0.00    +0.000 OA
ATOM     31  H   UNL     1       2.904   8.442  16.376  0.00  0.00    +0.000 HD
ENDBRANCH  29  30
ENDBRANCH  18  19
ENDBRANCH   4  18
TORSDOF 7
ENDMDL
