MODEL 1
REMARK VINA RESULT:      -8.4      0.000      0.000
REMARK  Name = 
REMARK  6 active torsions:
REMARK  status: ('A' for Active; 'I' for Inactive)
REMARK    1  A    between atoms: C_1  and  C_2
REMARK    2  A    between atoms: N_5  and  C_6
REMARK    3  A    between atoms: C_6  and  C_7
REMARK    4  A    between atoms: C_7  and  C_8
REMARK    5  A    between atoms: C_8  and  C_9
REMARK    6  A    between atoms: C_21  and  C_22
REMARK                            x       y       z     vdW  Elec       q    Type
REMARK                         _______ _______ _______ _____ _____    ______ ____
ROOT
ATOM      1  C   UNL     1       3.747   6.221  17.297  0.00  0.00    +0.000 C 
ATOM      2  C   UNL     1       3.648   4.898  18.107  0.00  0.00    +0.000 C 
ATOM      3  C   UNL     1       2.404   4.832  19.013  0.00  0.00    +0.000 C 
ATOM      4  C   UNL     1       2.292   3.493  19.733  0.00  0.00    +0.000 C 
ATOM      5  C   UNL     1       2.270   2.337  18.746  0.00  0.00    +0.000 C 
ATOM      6  C   UNL     1       3.496   2.360  17.842  0.00  0.00    +0.000 C 
ATOM      7  C   UNL     1       3.661   3.706  17.121  0.00  0.00    +0.000 C 
ATOM      8  C   UNL     1       4.949   3.698  16.292  0.00  0.00    +0.000 C 
ATOM      9  C   UNL     1       5.206   5.020  15.575  0.00  0.00    +0.000 C 
ATOM     10  C   UNL     1       6.663   5.108  15.215  0.00  0.00    +0.000 C 
ATOM     11  O   UNL     1       7.197   4.547  14.274  0.00  0.00    +0.000 OA
ATOM     12  O   UNL     1       7.324   5.865  16.136  0.00  0.00    +0.000 OA
ATOM     13  C   UNL     1       6.403   6.333  17.137  0.00  0.00    +0.000 C 
ATOM     14  C   UNL     1       6.881   7.713  17.560  0.00  0.00    +0.000 C 
ATOM     15  C   UNL     1       5.040   6.266  16.443  0.00  0.00    +0.000 C 
ENDROOT
BRANCH   1  16
ATOM     16  C   UNL     1       3.516   7.468  18.168  0.00  0.00    +0.000 C 
BRANCH  16  17
ATOM     17  C   UNL     1       2.382   8.353  17.648  0.00  0.00    +0.000 C 
BRANCH  17  18
ATOM     18  C   UNL     1       1.817   9.224  18.768  0.00  0.00    +0.000 C 
BRANCH  18  23
ATOM     19  C   UNL     1      -0.635  11.347  22.139  0.00  0.00    +0.000 C 
ATOM     20  C   UNL     1      -0.346  11.471  20.646  0.00  0.00    +0.000 C 
ATOM     21  C   UNL     1      -0.838  10.228  19.888  0.00  0.00    +0.000 C 
ATOM     22  C   UNL     1      -0.366  10.212  18.429  0.00  0.00    +0.000 C 
ATOM     23  N   UNL     1       1.087  10.404  18.278  0.00  0.00    +0.000 NA
ATOM     24  C   UNL     1       1.475  11.673  18.914  0.00  0.00    +0.000 C 
ATOM     25  C   UNL     1       1.148  11.718  20.407  0.00  0.00    +0.000 C 
ENDBRANCH  18  23
ENDBRANCH  17  18
ENDBRANCH  16  17
ENDBRANCH   1  16
TORSDOF 4
ENDMDL
MODEL 2
REMARK VINA RESULT:      -8.2      0.876      1.057
REMARK  Name = 
REMARK  6 active torsions:
REMARK  status: ('A' for Active; 'I' for Inactive)
REMARK    1  A    between atoms: C_1  and  C_2
REMARK    2  A    between atoms: N_5  and  C_6
REMARK    3  A    between atoms: C_6  and  C_7
REMARK    4  A    between atoms: C_7  and  C_8
REMARK    5  A    between atoms: C_8  and  C_9
REMARK    6  A    between atoms: C_21  and  C_22
REMARK                            x       y       z     vdW  Elec       q    Type
REMARK                         _______ _______ _______ _____ _____    ______ ____
ROOT
ATOM      1  C   UNL     1       3.210   6.023  17.896  0.00  0.00    +0.000 C 
ATOM      2  C   UNL     1       3.109   4.946  19.012  0.00  0.00    +0.000 C 
ATOM      3  C   UNL     1       1.971   5.214  20.014  0.00  0.00    +0.000 C 
ATOM      4  C   UNL     1       1.847   4.101  21.048  0.00  0.00    +0.000 C 
ATOM      5  C   UNL     1       1.635   2.751  20.381  0.00  0.00    +0.000 C 
ATOM      6  C   UNL     1       2.753   2.444  19.393  0.00  0.00    +0.000 C 
ATOM      7  C   UNL     1       2.930   3.558  18.352  0.00  0.00    +0.000 C 
ATOM      8  C   UNL     1       4.115   3.232  17.438  0.00  0.00    +0.000 C 
ATOM      9  C   UNL     1       4.382   4.317  16.397  0.00  0.00    +0.000 C 
ATOM     10  C   UNL     1       5.793   4.179  15.896  0.00  0.00    +0.000 C 
ATOM     11  O   UNL     1       6.180   3.363  15.078  0.00  0.00    +0.000 OA
ATOM     12  O   UNL     1       6.603   5.067  16.539  0.00  0.00    +0.000 OA
ATOM     13  C   UNL     1       5.833   5.843  17.474  0.00  0.00    +0.000 C 
ATOM     14  C   UNL     1       6.450   7.233  17.501  0.00  0.00    +0.000 C 
ATOM     15  C   UNL     1       4.401   5.743  16.944  0.00  0.00    +0.000 C 
ENDROOT
BRANCH   1  16
ATOM     16  C   UNL     1       3.165   7.458  18.451  0.00  0.00    +0.000 C 
BRANCH  16  17
ATOM     17  C   UNL     1       1.993   8.271  17.899  0.00  0.00    +0.000 C 
BRANCH  17  18
ATOM     18  C   UNL     1       1.472   9.253  18.946  0.00  0.00    +0.000 C 
BRANCH  18  23
ATOM     19  C   UNL     1      -0.621  11.952  22.142  0.00  0.00    +0.000 C 
ATOM     20  C   UNL     1      -0.339  11.916  20.643  0.00  0.00    +0.000 C 
ATOM     21  C   UNL     1      -1.006  10.694  19.991  0.00  0.00    +0.000 C 
ATOM     22  C   UNL     1      -0.562  10.497  18.536  0.00  0.00    +0.000 C 
ATOM     23  N   UNL     1       0.901  10.478  18.364  0.00  0.00    +0.000 NA
ATOM     24  C   UNL     1       1.465  11.730  18.894  0.00  0.00    +0.000 C 
ATOM     25  C   UNL     1       1.170  11.938  20.379  0.00  0.00    +0.000 C 
ENDBRANCH  18  23
ENDBRANCH  17  18
ENDBRANCH  16  17
ENDBRANCH   1  16
TORSDOF 4
ENDMDL
MODEL 3
REMARK VINA RESULT:      -8.2      1.164      1.684
REMARK  Name = 
REMARK  6 active torsions:
REMARK  status: ('A' for Active; 'I' for Inactive)
REMARK    1  A    between atoms: C_1  and  C_2
REMARK    2  A    between atoms: N_5  and  C_6
REMARK    3  A    between atoms: C_6  and  C_7
REMARK    4  A    between atoms: C_7  and  C_8
REMARK    5  A    between atoms: C_8  and  C_9
REMARK    6  A    between atoms: C_21  and  C_22
REMARK                            x       y       z     vdW  Elec       q    Type
REMARK                         _______ _______ _______ _____ _____    ______ ____
ROOT
ATOM      1  C   UNL     1       3.036   5.944  18.022  0.00  0.00    +0.000 C 
ATOM      2  C   UNL     1       2.977   4.850  19.124  0.00  0.00    +0.000 C 
ATOM      3  C   UNL     1       1.833   5.065  20.133  0.00  0.00    +0.000 C 
ATOM      4  C   UNL     1       1.752   3.934  21.153  0.00  0.00    +0.000 C 
ATOM      5  C   UNL     1       1.588   2.586  20.470  0.00  0.00    +0.000 C 
ATOM      6  C   UNL     1       2.713   2.332  19.475  0.00  0.00    +0.000 C 
ATOM      7  C   UNL     1       2.847   3.465  18.447  0.00  0.00    +0.000 C 
ATOM      8  C   UNL     1       4.040   3.194  17.526  0.00  0.00    +0.000 C 
ATOM      9  C   UNL     1       4.265   4.300  16.499  0.00  0.00    +0.000 C 
ATOM     10  C   UNL     1       5.679   4.219  15.993  0.00  0.00    +0.000 C 
ATOM     11  O   UNL     1       6.093   3.428  15.164  0.00  0.00    +0.000 OA
ATOM     12  O   UNL     1       6.458   5.128  16.645  0.00  0.00    +0.000 OA
ATOM     13  C   UNL     1       5.662   5.865  17.592  0.00  0.00    +0.000 C 
ATOM     14  C   UNL     1       6.229   7.276  17.634  0.00  0.00    +0.000 C 
ATOM     15  C   UNL     1       4.233   5.719  17.063  0.00  0.00    +0.000 C 
ENDROOT
BRANCH   1  16
ATOM     16  C   UNL     1       2.940   7.369  18.594  0.00  0.00    +0.000 C 
BRANCH  16  17
ATOM     17  C   UNL     1       2.532   8.404  17.545  0.00  0.00    +0.000 C 
BRANCH  17  18
ATOM     18  C   UNL     1       1.307   9.192  18.007  0.00  0.00    +0.000 C 
BRANCH  18  23
ATOM     19  C   UNL     1      -2.362  11.857  19.153  0.00  0.00    +0.000 C 
ATOM     20  C   UNL     1      -0.937  11.565  19.614  0.00  0.00    +0.000 C 
ATOM     21  C   UNL     1       0.078  11.937  18.521  0.00  0.00    +0.000 C 
ATOM     22  C   UNL     1       1.494  11.451  18.854  0.00  0.00    +0.000 C 
ATOM     23  N   UNL     1       1.560  10.019  19.197  0.00  0.00    +0.000 NA
ATOM     24  C   UNL     1       0.661   9.753  20.331  0.00  0.00    +0.000 C 
ATOM     25  C   UNL     1      -0.798  10.097  20.032  0.00  0.00    +0.000 C 
ENDBRANCH  18  23
ENDBRANCH  17  18
ENDBRANCH  16  17
ENDBRANCH   1  16
TORSDOF 4
ENDMDL
MODEL 4
REMARK VINA RESULT:      -8.1      1.129      1.570
REMARK  Name = 
REMARK  6 active torsions:
REMARK  status: ('A' for Active; 'I' for Inactive)
REMARK    1  A    between atoms: C_1  and  C_2
REMARK    2  A    between atoms: N_5  and  C_6
REMARK    3  A    between atoms: C_6  and  C_7
REMARK    4  A    between atoms: C_7  and  C_8
REMARK    5  A    between atoms: C_8  and  C_9
REMARK    6  A    between atoms: C_21  and  C_22
REMARK                            x       y       z     vdW  Elec       q    Type
REMARK                         _______ _______ _______ _____ _____    ______ ____
ROOT
ATOM      1  C   UNL     1       3.079   5.979  17.987  0.00  0.00    +0.000 C 
ATOM      2  C   UNL     1       3.010   4.899  19.104  0.00  0.00    +0.000 C 
ATOM      3  C   UNL     1       1.867   5.137  20.108  0.00  0.00    +0.000 C 
ATOM      4  C   UNL     1       1.776   4.021  21.143  0.00  0.00    +0.000 C 
ATOM      5  C   UNL     1       1.601   2.665  20.478  0.00  0.00    +0.000 C 
ATOM      6  C   UNL     1       2.724   2.389  19.486  0.00  0.00    +0.000 C 
ATOM      7  C   UNL     1       2.869   3.507  18.444  0.00  0.00    +0.000 C 
ATOM      8  C   UNL     1       4.060   3.213  17.528  0.00  0.00    +0.000 C 
ATOM      9  C   UNL     1       4.295   4.304  16.487  0.00  0.00    +0.000 C 
ATOM     10  C   UNL     1       5.708   4.205  15.982  0.00  0.00    +0.000 C 
ATOM     11  O   UNL     1       6.115   3.400  15.164  0.00  0.00    +0.000 OA
ATOM     12  O   UNL     1       6.495   5.116  16.624  0.00  0.00    +0.000 OA
ATOM     13  C   UNL     1       5.705   5.871  17.560  0.00  0.00    +0.000 C 
ATOM     14  C   UNL     1       6.283   7.278  17.584  0.00  0.00    +0.000 C 
ATOM     15  C   UNL     1       4.275   5.731  17.033  0.00  0.00    +0.000 C 
ENDROOT
BRANCH   1  16
ATOM     16  C   UNL     1       2.995   7.412  18.541  0.00  0.00    +0.000 C 
BRANCH  16  17
ATOM     17  C   UNL     1       2.248   8.365  17.609  0.00  0.00    +0.000 C 
BRANCH  17  18
ATOM     18  C   UNL     1       1.803   9.620  18.358  0.00  0.00    +0.000 C 
BRANCH  18  23
ATOM     19  C   UNL     1       0.471  13.515  20.581  0.00  0.00    +0.000 C 
ATOM     20  C   UNL     1      -0.039  12.110  20.271  0.00  0.00    +0.000 C 
ATOM     21  C   UNL     1       0.879  11.045  20.893  0.00  0.00    +0.000 C 
ATOM     22  C   UNL     1       0.532   9.629  20.417  0.00  0.00    +0.000 C 
ATOM     23  N   UNL     1       0.461   9.501  18.951  0.00  0.00    +0.000 NA
ATOM     24  C   UNL     1      -0.526  10.460  18.429  0.00  0.00    +0.000 C 
ATOM     25  C   UNL     1      -0.182  11.912  18.757  0.00  0.00    +0.000 C 
ENDBRANCH  18  23
ENDBRANCH  17  18
ENDBRANCH  16  17
ENDBRANCH   1  16
TORSDOF 4
ENDMDL
MODEL 5
REMARK VINA RESULT:      -8.1      0.691      1.037
REMARK  Name = 
REMARK  6 active torsions:
REMARK  status: ('A' for Active; 'I' for Inactive)
REMARK    1  A    between atoms: C_1  and  C_2
REMARK    2  A    between atoms: N_5  and  C_6
REMARK    3  A    between atoms: C_6  and  C_7
REMARK    4  A    between atoms: C_7  and  C_8
REMARK    5  A    between atoms: C_8  and  C_9
REMARK    6  A    between atoms: C_21  and  C_22
REMARK                            x       y       z     vdW  Elec       q    Type
REMARK                         _______ _______ _______ _____ _____    ______ ____
ROOT
ATOM      1  C   UNL     1       3.729   6.354  17.247  0.00  0.00    +0.000 C 
ATOM      2  C   UNL     1       3.594   5.059  18.097  0.00  0.00    +0.000 C 
ATOM      3  C   UNL     1       2.326   5.034  18.970  0.00  0.00    +0.000 C 
ATOM      4  C   UNL     1       2.181   3.720  19.729  0.00  0.00    +0.000 C 
ATOM      5  C   UNL     1       2.173   2.533  18.780  0.00  0.00    +0.000 C 
ATOM      6  C   UNL     1       3.423   2.516  17.909  0.00  0.00    +0.000 C 
ATOM      7  C   UNL     1       3.621   3.835  17.150  0.00  0.00    +0.000 C 
ATOM      8  C   UNL     1       4.930   3.788  16.357  0.00  0.00    +0.000 C 
ATOM      9  C   UNL     1       5.220   5.084  15.605  0.00  0.00    +0.000 C 
ATOM     10  C   UNL     1       6.687   5.146  15.280  0.00  0.00    +0.000 C 
ATOM     11  O   UNL     1       7.240   4.549  14.373  0.00  0.00    +0.000 OA
ATOM     12  O   UNL     1       7.332   5.926  16.194  0.00  0.00    +0.000 OA
ATOM     13  C   UNL     1       6.389   6.435  17.155  0.00  0.00    +0.000 C 
ATOM     14  C   UNL     1       6.870   7.824  17.546  0.00  0.00    +0.000 C 
ATOM     15  C   UNL     1       5.044   6.359  16.427  0.00  0.00    +0.000 C 
ENDROOT
BRANCH   1  16
ATOM     16  C   UNL     1       3.488   7.631  18.071  0.00  0.00    +0.000 C 
BRANCH  16  17
ATOM     17  C   UNL     1       2.319   8.464  17.545  0.00  0.00    +0.000 C 
BRANCH  17  18
ATOM     18  C   UNL     1       1.944   9.561  18.540  0.00  0.00    +0.000 C 
BRANCH  18  23
ATOM     19  C   UNL     1       0.681  13.289  21.068  0.00  0.00    +0.000 C 
ATOM     20  C   UNL     1       0.100  11.980  20.540  0.00  0.00    +0.000 C 
ATOM     21  C   UNL     1       0.855  10.773  21.119  0.00  0.00    +0.000 C 
ATOM     22  C   UNL     1       0.452   9.457  20.443  0.00  0.00    +0.000 C 
ATOM     23  N   UNL     1       0.538   9.500  18.972  0.00  0.00    +0.000 NA
ATOM     24  C   UNL     1      -0.305  10.597  18.472  0.00  0.00    +0.000 C 
ATOM     25  C   UNL     1       0.114  11.967  19.007  0.00  0.00    +0.000 C 
ENDBRANCH  18  23
ENDBRANCH  17  18
ENDBRANCH  16  17
ENDBRANCH   1  16
TORSDOF 4
ENDMDL
MODEL 6
REMARK VINA RESULT:      -8.0      0.896      1.491
REMARK  Name = 
REMARK  6 active torsions:
REMARK  status: ('A' for Active; 'I' for Inactive)
REMARK    1  A    between atoms: C_1  and  C_2
REMARK    2  A    between atoms: N_5  and  C_6
REMARK    3  A    between atoms: C_6  and  C_7
REMARK    4  A    between atoms: C_7  and  C_8
REMARK    5  A    between atoms: C_8  and  C_9
REMARK    6  A    between atoms: C_21  and  C_22
REMARK                            x       y       z     vdW  Elec       q    Type
REMARK                         _______ _______ _______ _____ _____    ______ ____
ROOT
ATOM      1  C   UNL     1       3.752   6.469  17.215  0.00  0.00    +0.000 C 
ATOM      2  C   UNL     1       3.601   5.181  18.073  0.00  0.00    +0.000 C 
ATOM      3  C   UNL     1       2.289   5.140  18.880  0.00  0.00    +0.000 C 
ATOM      4  C   UNL     1       2.133   3.832  19.648  0.00  0.00    +0.000 C 
ATOM      5  C   UNL     1       2.198   2.634  18.714  0.00  0.00    +0.000 C 
ATOM      6  C   UNL     1       3.492   2.633  17.909  0.00  0.00    +0.000 C 
ATOM      7  C   UNL     1       3.702   3.948  17.145  0.00  0.00    +0.000 C 
ATOM      8  C   UNL     1       5.051   3.919  16.421  0.00  0.00    +0.000 C 
ATOM      9  C   UNL     1       5.352   5.212  15.668  0.00  0.00    +0.000 C 
ATOM     10  C   UNL     1       6.833   5.301  15.419  0.00  0.00    +0.000 C 
ATOM     11  O   UNL     1       7.444   4.706  14.550  0.00  0.00    +0.000 OA
ATOM     12  O   UNL     1       7.413   6.106  16.355  0.00  0.00    +0.000 OA
ATOM     13  C   UNL     1       6.411   6.605  17.259  0.00  0.00    +0.000 C 
ATOM     14  C   UNL     1       6.843   8.009  17.657  0.00  0.00    +0.000 C 
ATOM     15  C   UNL     1       5.108   6.492  16.464  0.00  0.00    +0.000 C 
ENDROOT
BRANCH   1  16
ATOM     16  C   UNL     1       3.443   7.750  18.009  0.00  0.00    +0.000 C 
BRANCH  16  17
ATOM     17  C   UNL     1       2.041   8.295  17.733  0.00  0.00    +0.000 C 
BRANCH  17  18
ATOM     18  C   UNL     1       2.008   9.814  17.891  0.00  0.00    +0.000 C 
BRANCH  18  23
ATOM     19  C   UNL     1      -2.203  11.847  18.023  0.00  0.00    +0.000 C 
ATOM     20  C   UNL     1      -1.045  11.489  18.950  0.00  0.00    +0.000 C 
ATOM     21  C   UNL     1       0.240  12.218  18.526  0.00  0.00    +0.000 C 
ATOM     22  C   UNL     1       1.472  11.715  19.289  0.00  0.00    +0.000 C 
ATOM     23  N   UNL     1       1.635  10.252  19.245  0.00  0.00    +0.000 NA
ATOM     24  C   UNL     1       0.421   9.615  19.782  0.00  0.00    +0.000 C 
ATOM     25  C   UNL     1      -0.840   9.971  18.994  0.00  0.00    +0.000 C 
ENDBRANCH  18  23
ENDBRANCH  17  18
ENDBRANCH  16  17
ENDBRANCH   1  16
TORSDOF 4
ENDMDL
MODEL 7
REMARK VINA RESULT:      -7.6      3.489      7.358
REMARK  Name = 
REMARK  6 active torsions:
REMARK  status: ('A' for Active; 'I' for Inactive)
REMARK    1  A    between atoms: C_1  and  C_2
REMARK    2  A    between atoms: N_5  and  C_6
REMARK    3  A    between atoms: C_6  and  C_7
REMARK    4  A    between atoms: C_7  and  C_8
REMARK    5  A    between atoms: C_8  and  C_9
REMARK    6  A    between atoms: C_21  and  C_22
REMARK                            x       y       z     vdW  Elec       q    Type
REMARK                         _______ _______ _______ _____ _____    ______ ____
ROOT
ATOM      1  C   UNL     1       3.204   6.536  18.763  0.00  0.00    +0.000 C 
ATOM      2  C   UNL     1       2.215   5.340  18.684  0.00  0.00    +0.000 C 
ATOM      3  C   UNL     1       2.786   4.130  17.922  0.00  0.00    +0.000 C 
ATOM      4  C   UNL     1       1.826   2.945  17.930  0.00  0.00    +0.000 C 
ATOM      5  C   UNL     1       1.469   2.535  19.350  0.00  0.00    +0.000 C 
ATOM      6  C   UNL     1       0.885   3.706  20.131  0.00  0.00    +0.000 C 
ATOM      7  C   UNL     1       1.811   4.931  20.120  0.00  0.00    +0.000 C 
ATOM      8  C   UNL     1       1.139   6.097  20.851  0.00  0.00    +0.000 C 
ATOM      9  C   UNL     1       1.982   7.369  20.848  0.00  0.00    +0.000 C 
ATOM     10  C   UNL     1       1.091   8.549  21.121  0.00  0.00    +0.000 C 
ATOM     11  O   UNL     1       0.672   8.884  22.215  0.00  0.00    +0.000 OA
ATOM     12  O   UNL     1       0.764   9.165  19.950  0.00  0.00    +0.000 OA
ATOM     13  C   UNL     1       1.389   8.483  18.847  0.00  0.00    +0.000 C 
ATOM     14  C   UNL     1       1.733   9.546  17.815  0.00  0.00    +0.000 C 
ATOM     15  C   UNL     1       2.569   7.749  19.490  0.00  0.00    +0.000 C 
ENDROOT
BRANCH   1  16
ATOM     16  C   UNL     1       3.838   6.873  17.402  0.00  0.00    +0.000 C 
BRANCH  16  17
ATOM     17  C   UNL     1       5.352   6.660  17.384  0.00  0.00    +0.000 C 
BRANCH  17  18
ATOM     18  C   UNL     1       5.831   6.280  15.984  0.00  0.00    +0.000 C 
BRANCH  18  23
ATOM     19  C   UNL     1       5.245   3.553  12.229  0.00  0.00    +0.000 C 
ATOM     20  C   UNL     1       6.093   3.636  13.496  0.00  0.00    +0.000 C 
ATOM     21  C   UNL     1       5.209   3.560  14.751  0.00  0.00    +0.000 C 
ATOM     22  C   UNL     1       5.992   3.866  16.033  0.00  0.00    +0.000 C 
ATOM     23  N   UNL     1       6.748   5.130  15.974  0.00  0.00    +0.000 NA
ATOM     24  C   UNL     1       7.667   5.089  14.824  0.00  0.00    +0.000 C 
ATOM     25  C   UNL     1       6.946   4.910  13.488  0.00  0.00    +0.000 C 
ENDBRANCH  18  23
ENDBRANCH  17  18
ENDBRANCH  16  17
ENDBRANCH   1  16
TORSDOF 4
ENDMDL
MODEL 8
REMARK VINA RESULT:      -7.4      3.365      7.011
REMARK  Name = 
REMARK  6 active torsions:
REMARK  status: ('A' for Active; 'I' for Inactive)
REMARK    1  A    between atoms: C_1  and  C_2
REMARK    2  A    between atoms: N_5  and  C_6
REMARK    3  A    between atoms: C_6  and  C_7
REMARK    4  A    between atoms: C_7  and  C_8
REMARK    5  A    between atoms: C_8  and  C_9
REMARK    6  A    between atoms: C_21  and  C_22
REMARK                            x       y       z     vdW  Elec       q    Type
REMARK                         _______ _______ _______ _____ _____    ______ ____
ROOT
ATOM      1  C   UNL     1       1.926   4.331  18.213  0.00  0.00    +0.000 C 
ATOM      2  C   UNL     1       2.338   5.730  18.750  0.00  0.00    +0.000 C 
ATOM      3  C   UNL     1       2.376   6.814  17.657  0.00  0.00    +0.000 C 
ATOM      4  C   UNL     1       2.704   8.189  18.227  0.00  0.00    +0.000 C 
ATOM      5  C   UNL     1       1.713   8.587  19.309  0.00  0.00    +0.000 C 
ATOM      6  C   UNL     1       1.660   7.544  20.419  0.00  0.00    +0.000 C 
ATOM      7  C   UNL     1       1.362   6.137  19.880  0.00  0.00    +0.000 C 
ATOM      8  C   UNL     1       1.400   5.123  21.026  0.00  0.00    +0.000 C 
ATOM      9  C   UNL     1       1.152   3.690  20.563  0.00  0.00    +0.000 C 
ATOM     10  C   UNL     1       1.681   2.740  21.602  0.00  0.00    +0.000 C 
ATOM     11  O   UNL     1       1.127   2.449  22.647  0.00  0.00    +0.000 OA
ATOM     12  O   UNL     1       2.914   2.289  21.234  0.00  0.00    +0.000 OA
ATOM     13  C   UNL     1       3.290   2.868  19.971  0.00  0.00    +0.000 C 
ATOM     14  C   UNL     1       4.106   1.817  19.235  0.00  0.00    +0.000 C 
ATOM     15  C   UNL     1       1.954   3.262  19.335  0.00  0.00    +0.000 C 
ENDROOT
BRANCH   1  16
ATOM     16  C   UNL     1       2.695   3.935  16.939  0.00  0.00    +0.000 C 
BRANCH  16  17
ATOM     17  C   UNL     1       4.156   4.384  16.965  0.00  0.00    +0.000 C 
BRANCH  17  18
ATOM     18  C   UNL     1       4.889   3.920  15.707  0.00  0.00    +0.000 C 
BRANCH  18  23
ATOM     19  C   UNL     1       7.694   6.092  18.756  0.00  0.00    +0.000 C 
ATOM     20  C   UNL     1       7.317   6.131  17.278  0.00  0.00    +0.000 C 
ATOM     21  C   UNL     1       5.827   6.466  17.103  0.00  0.00    +0.000 C 
ATOM     22  C   UNL     1       5.359   6.293  15.652  0.00  0.00    +0.000 C 
ATOM     23  N   UNL     1       5.694   4.978  15.078  0.00  0.00    +0.000 NA
ATOM     24  C   UNL     1       7.149   4.772  15.162  0.00  0.00    +0.000 C 
ATOM     25  C   UNL     1       7.677   4.806  16.596  0.00  0.00    +0.000 C 
ENDBRANCH  18  23
ENDBRANCH  17  18
ENDBRANCH  16  17
ENDBRANCH   1  16
TORSDOF 4
ENDMDL
MODEL 9
REMARK VINA RESULT:      -7.3      3.526      6.968
REMARK  Name = 
REMARK  6 active torsions:
REMARK  status: ('A' for Active; 'I' for Inactive)
REMARK    1  A    between atoms: C_1  and  C_2
REMARK    2  A    between atoms: N_5  and  C_6
REMARK    3  A    between atoms: C_6  and  C_7
REMARK    4  A    between atoms: C_7  and  C_8
REMARK    5  A    between atoms: C_8  and  C_9
REMARK    6  A    between atoms: C_21  and  C_22
REMARK                            x       y       z     vdW  Elec       q    Type
REMARK                         _______ _______ _______ _____ _____    ______ ____
ROOT
ATOM      1  C   UNL     1       2.322   4.125  18.195  0.00  0.00    +0.000 C 
ATOM      2  C   UNL     1       2.669   5.565  18.665  0.00  0.00    +0.000 C 
ATOM      3  C   UNL     1       2.816   6.565  17.502  0.00  0.00    +0.000 C 
ATOM      4  C   UNL     1       3.077   7.983  17.998  0.00  0.00    +0.000 C 
ATOM      5  C   UNL     1       1.978   8.449  18.939  0.00  0.00    +0.000 C 
ATOM      6  C   UNL     1       1.814   7.491  20.113  0.00  0.00    +0.000 C 
ATOM      7  C   UNL     1       1.580   6.044  19.654  0.00  0.00    +0.000 C 
ATOM      8  C   UNL     1       1.503   5.118  20.871  0.00  0.00    +0.000 C 
ATOM      9  C   UNL     1       1.311   3.652  20.494  0.00  0.00    +0.000 C 
ATOM     10  C   UNL     1       1.733   2.789  21.651  0.00  0.00    +0.000 C 
ATOM     11  O   UNL     1       1.074   2.570  22.652  0.00  0.00    +0.000 OA
ATOM     12  O   UNL     1       3.000   2.327  21.448  0.00  0.00    +0.000 OA
ATOM     13  C   UNL     1       3.502   2.814  20.190  0.00  0.00    +0.000 C 
ATOM     14  C   UNL     1       4.395   1.721  19.624  0.00  0.00    +0.000 C 
ATOM     15  C   UNL     1       2.238   3.143  19.392  0.00  0.00    +0.000 C 
ENDROOT
BRANCH   1  16
ATOM     16  C   UNL     1       3.220   3.645  17.041  0.00  0.00    +0.000 C 
BRANCH  16  17
ATOM     17  C   UNL     1       4.399   4.582  16.778  0.00  0.00    +0.000 C 
BRANCH  17  18
ATOM     18  C   UNL     1       5.496   4.382  17.822  0.00  0.00    +0.000 C 
BRANCH  18  23
ATOM     19  C   UNL     1       7.536   8.591  17.874  0.00  0.00    +0.000 C 
ATOM     20  C   UNL     1       7.817   7.158  17.430  0.00  0.00    +0.000 C 
ATOM     21  C   UNL     1       6.812   6.712  16.356  0.00  0.00    +0.000 C 
ATOM     22  C   UNL     1       6.917   5.213  16.049  0.00  0.00    +0.000 C 
ATOM     23  N   UNL     1       6.851   4.360  17.248  0.00  0.00    +0.000 NA
ATOM     24  C   UNL     1       7.918   4.755  18.182  0.00  0.00    +0.000 C 
ATOM     25  C   UNL     1       7.808   6.211  18.635  0.00  0.00    +0.000 C 
ENDBRANCH  18  23
ENDBRANCH  17  18
ENDBRANCH  16  17
ENDBRANCH   1  16
TORSDOF 4
ENDMDL
