MODEL 1
REMARK VINA RESULT:      -9.5      0.000      0.000
REMARK  Name = 
REMARK  3 active torsions:
REMARK  status: ('A' for Active; 'I' for Inactive)
REMARK    1  A    between atoms: C_1  and  C_2
REMARK    2  A    between atoms: C_12  and  C_13
REMARK    3  A    between atoms: C_19  and  C_20
REMARK                            x       y       z     vdW  Elec       q    Type
REMARK                         _______ _______ _______ _____ _____    ______ ____
ROOT
ATOM      1  C   UNL     1       2.518   6.657  19.514  0.00  0.00    +0.000 A 
ATOM      2  C   UNL     1       2.084   6.034  20.672  0.00  0.00    +0.000 A 
ATOM      3  N   UNL     1       2.731   4.831  20.785  0.00  0.00    +0.000 N 
ATOM      4  C   UNL     1       3.597   4.657  19.729  0.00  0.00    +0.000 A 
ATOM      5  C   UNL     1       4.475   3.608  19.444  0.00  0.00    +0.000 A 
ATOM      6  C   UNL     1       5.249   3.710  18.278  0.00  0.00    +0.000 A 
ATOM      7  C   UNL     1       5.159   4.817  17.427  0.00  0.00    +0.000 A 
ATOM      8  C   UNL     1       4.273   5.855  17.754  0.00  0.00    +0.000 A 
ATOM      9  C   UNL     1       3.473   5.778  18.913  0.00  0.00    +0.000 A 
ATOM     10  H   UNL     1       2.614   4.173  21.543  0.00  0.00    +0.000 HD
ENDROOT
BRANCH   1  22
ATOM     11  C   UNL     1      -1.472  12.558  19.733  0.00  0.00    +0.000 C 
ATOM     12  C   UNL     1      -0.142  12.027  20.270  0.00  0.00    +0.000 C 
ATOM     13  C   UNL     1       0.143  12.512  21.700  0.00  0.00    +0.000 C 
ATOM     14  C   UNL     1      -0.778  11.863  22.729  0.00  0.00    +0.000 C 
ATOM     15  C   UNL     1      -0.705  10.342  22.631  0.00  0.00    +0.000 C 
ATOM     16  C   UNL     1      -0.958   9.842  21.212  0.00  0.00    +0.000 C 
ATOM     17  N   UNL     1      -0.139  10.559  20.237  0.00  0.00    +0.000 N 
ATOM     18  C   UNL     1       0.766   9.856  19.459  0.00  0.00    +0.000 A 
ATOM     19  C   UNL     1       1.185  10.325  18.204  0.00  0.00    +0.000 A 
ATOM     20  N   UNL     1       2.051   9.683  17.381  0.00  0.00    +0.000 NA
ATOM     21  C   UNL     1       2.495   8.500  17.853  0.00  0.00    +0.000 A 
ATOM     22  C   UNL     1       2.099   7.984  19.080  0.00  0.00    +0.000 A 
ATOM     23  N   UNL     1       1.231   8.657  19.887  0.00  0.00    +0.000 NA
ENDBRANCH   1  22
BRANCH   7  24
ATOM     24  C   UNL     1       5.966   4.878  16.218  0.00  0.00    +0.000 A 
ATOM     25  N   UNL     1       7.038   5.599  15.947  0.00  0.00    +0.000 NA
ATOM     26  N   UNL     1       7.436   5.239  14.674  0.00  0.00    +0.000 NA
ATOM     27  C   UNL     1       6.581   4.335  14.263  0.00  0.00    +0.000 A 
ATOM     28  N   UNL     1       6.528   3.659  13.111  0.00  0.00    +0.000 N 
ATOM     29  O   UNL     1       5.607   4.063  15.173  0.00  0.00    +0.000 OA
ATOM     30  H   UNL     1       7.094   4.009  12.348  0.00  0.00    +0.000 HD
ATOM     31  H   UNL     1       5.645   3.249  12.839  0.00  0.00    +0.000 HD
ENDBRANCH   7  24
TORSDOF 2
ENDMDL
MODEL 2
REMARK VINA RESULT:      -9.2      3.342      8.237
REMARK  Name = 
REMARK  3 active torsions:
REMARK  status: ('A' for Active; 'I' for Inactive)
REMARK    1  A    between atoms: C_1  and  C_2
REMARK    2  A    between atoms: C_12  and  C_13
REMARK    3  A    between atoms: C_19  and  C_20
REMARK                            x       y       z     vdW  Elec       q    Type
REMARK                         _______ _______ _______ _____ _____    ______ ____
ROOT
ATOM      1  C   UNL     1       1.112   9.309  19.888  0.00  0.00    +0.000 A 
ATOM      2  C   UNL     1       1.377   9.698  21.190  0.00  0.00    +0.000 A 
ATOM      3  N   UNL     1       0.423  10.604  21.574  0.00  0.00    +0.000 N 
ATOM      4  C   UNL     1      -0.477  10.808  20.552  0.00  0.00    +0.000 A 
ATOM      5  C   UNL     1      -1.617  11.614  20.499  0.00  0.00    +0.000 A 
ATOM      6  C   UNL     1      -2.353  11.616  19.304  0.00  0.00    +0.000 A 
ATOM      7  C   UNL     1      -1.974  10.842  18.203  0.00  0.00    +0.000 A 
ATOM      8  C   UNL     1      -0.829  10.037  18.299  0.00  0.00    +0.000 A 
ATOM      9  C   UNL     1      -0.060  10.020  19.481  0.00  0.00    +0.000 A 
ATOM     10  H   UNL     1       0.367  11.045  22.481  0.00  0.00    +0.000 HD
ENDROOT
BRANCH   1  22
ATOM     11  C   UNL     1       4.222   2.968  18.940  0.00  0.00    +0.000 C 
ATOM     12  C   UNL     1       2.901   3.677  18.640  0.00  0.00    +0.000 C 
ATOM     13  C   UNL     1       1.692   2.741  18.787  0.00  0.00    +0.000 C 
ATOM     14  C   UNL     1       1.413   2.374  20.243  0.00  0.00    +0.000 C 
ATOM     15  C   UNL     1       1.251   3.633  21.090  0.00  0.00    +0.000 C 
ATOM     16  C   UNL     1       2.429   4.589  20.936  0.00  0.00    +0.000 C 
ATOM     17  N   UNL     1       2.740   4.834  19.529  0.00  0.00    +0.000 N 
ATOM     18  C   UNL     1       2.669   6.124  19.029  0.00  0.00    +0.000 A 
ATOM     19  C   UNL     1       3.416   6.528  17.913  0.00  0.00    +0.000 A 
ATOM     20  N   UNL     1       3.412   7.776  17.381  0.00  0.00    +0.000 NA
ATOM     21  C   UNL     1       2.622   8.655  18.031  0.00  0.00    +0.000 A 
ATOM     22  C   UNL     1       1.876   8.310  19.149  0.00  0.00    +0.000 A 
ATOM     23  N   UNL     1       1.897   7.045  19.656  0.00  0.00    +0.000 NA
ENDBRANCH   1  22
BRANCH   7  24
ATOM     24  C   UNL     1      -2.755  10.884  16.975  0.00  0.00    +0.000 A 
ATOM     25  N   UNL     1      -3.899  11.491  16.716  0.00  0.00    +0.000 NA
ATOM     26  N   UNL     1      -4.172  11.246  15.383  0.00  0.00    +0.000 NA
ATOM     27  C   UNL     1      -3.185  10.511  14.932  0.00  0.00    +0.000 A 
ATOM     28  N   UNL     1      -2.965  10.019  13.710  0.00  0.00    +0.000 N 
ATOM     29  O   UNL     1      -2.255  10.221  15.882  0.00  0.00    +0.000 OA
ATOM     30  H   UNL     1      -3.746  10.028  13.065  0.00  0.00    +0.000 HD
ATOM     31  H   UNL     1      -2.341   9.229  13.619  0.00  0.00    +0.000 HD
ENDBRANCH   7  24
TORSDOF 2
ENDMDL
MODEL 3
REMARK VINA RESULT:      -9.0      3.126      5.225
REMARK  Name = 
REMARK  3 active torsions:
REMARK  status: ('A' for Active; 'I' for Inactive)
REMARK    1  A    between atoms: C_1  and  C_2
REMARK    2  A    between atoms: C_12  and  C_13
REMARK    3  A    between atoms: C_19  and  C_20
REMARK                            x       y       z     vdW  Elec       q    Type
REMARK                         _______ _______ _______ _____ _____    ______ ____
ROOT
ATOM      1  C   UNL     1       1.054   9.776  19.822  0.00  0.00    +0.000 A 
ATOM      2  C   UNL     1       1.222  10.683  18.790  0.00  0.00    +0.000 A 
ATOM      3  N   UNL     1       1.926  10.070  17.786  0.00  0.00    +0.000 N 
ATOM      4  C   UNL     1       2.211   8.769  18.132  0.00  0.00    +0.000 A 
ATOM      5  C   UNL     1       2.877   7.769  17.418  0.00  0.00    +0.000 A 
ATOM      6  C   UNL     1       3.017   6.516  18.035  0.00  0.00    +0.000 A 
ATOM      7  C   UNL     1       2.509   6.264  19.314  0.00  0.00    +0.000 A 
ATOM      8  C   UNL     1       1.837   7.290  19.994  0.00  0.00    +0.000 A 
ATOM      9  C   UNL     1       1.689   8.564  19.407  0.00  0.00    +0.000 A 
ATOM     10  H   UNL     1       2.181  10.497  16.906  0.00  0.00    +0.000 HD
ENDROOT
BRANCH   1  22
ATOM     11  C   UNL     1      -3.144  13.617  24.113  0.00  0.00    +0.000 C 
ATOM     12  C   UNL     1      -3.247  12.507  23.066  0.00  0.00    +0.000 C 
ATOM     13  C   UNL     1      -4.499  12.651  22.188  0.00  0.00    +0.000 C 
ATOM     14  C   UNL     1      -4.407  13.838  21.233  0.00  0.00    +0.000 C 
ATOM     15  C   UNL     1      -3.139  13.749  20.388  0.00  0.00    +0.000 C 
ATOM     16  C   UNL     1      -1.887  13.578  21.242  0.00  0.00    +0.000 C 
ATOM     17  N   UNL     1      -2.048  12.504  22.220  0.00  0.00    +0.000 N 
ATOM     18  C   UNL     1      -1.193  11.414  22.183  0.00  0.00    +0.000 A 
ATOM     19  C   UNL     1      -0.927  10.643  23.325  0.00  0.00    +0.000 A 
ATOM     20  N   UNL     1      -0.089   9.577  23.369  0.00  0.00    +0.000 NA
ATOM     21  C   UNL     1       0.519   9.299  22.198  0.00  0.00    +0.000 A 
ATOM     22  C   UNL     1       0.304  10.041  21.044  0.00  0.00    +0.000 A 
ATOM     23  N   UNL     1      -0.550  11.103  21.032  0.00  0.00    +0.000 NA
ENDBRANCH   1  22
BRANCH   7  24
ATOM     24  C   UNL     1       2.689   4.956  19.928  0.00  0.00    +0.000 A 
ATOM     25  N   UNL     1       3.640   4.057  19.750  0.00  0.00    +0.000 NA
ATOM     26  N   UNL     1       3.356   3.017  20.614  0.00  0.00    +0.000 NA
ATOM     27  C   UNL     1       2.259   3.353  21.248  0.00  0.00    +0.000 A 
ATOM     28  N   UNL     1       1.577   2.703  22.195  0.00  0.00    +0.000 N 
ATOM     29  O   UNL     1       1.762   4.558  20.859  0.00  0.00    +0.000 OA
ATOM     30  H   UNL     1       1.796   1.724  22.327  0.00  0.00    +0.000 HD
ATOM     31  H   UNL     1       0.607   2.950  22.339  0.00  0.00    +0.000 HD
ENDBRANCH   7  24
TORSDOF 2
ENDMDL
MODEL 4
REMARK VINA RESULT:      -8.8      0.824      1.013
REMARK  Name = 
REMARK  3 active torsions:
REMARK  status: ('A' for Active; 'I' for Inactive)
REMARK    1  A    between atoms: C_1  and  C_2
REMARK    2  A    between atoms: C_12  and  C_13
REMARK    3  A    between atoms: C_19  and  C_20
REMARK                            x       y       z     vdW  Elec       q    Type
REMARK                         _______ _______ _______ _____ _____    ______ ____
ROOT
ATOM      1  C   UNL     1       2.254   6.787  19.674  0.00  0.00    +0.000 A 
ATOM      2  C   UNL     1       1.805   6.296  20.888  0.00  0.00    +0.000 A 
ATOM      3  N   UNL     1       2.306   5.031  21.056  0.00  0.00    +0.000 N 
ATOM      4  C   UNL     1       3.091   4.685  19.980  0.00  0.00    +0.000 A 
ATOM      5  C   UNL     1       3.820   3.520  19.731  0.00  0.00    +0.000 A 
ATOM      6  C   UNL     1       4.542   3.452  18.529  0.00  0.00    +0.000 A 
ATOM      7  C   UNL     1       4.545   4.506  17.610  0.00  0.00    +0.000 A 
ATOM      8  C   UNL     1       3.810   5.665  17.901  0.00  0.00    +0.000 A 
ATOM      9  C   UNL     1       3.064   5.761  19.095  0.00  0.00    +0.000 A 
ATOM     10  H   UNL     1       2.147   4.441  21.861  0.00  0.00    +0.000 HD
ENDROOT
BRANCH   1  22
ATOM     11  C   UNL     1      -1.172  13.033  19.478  0.00  0.00    +0.000 C 
ATOM     12  C   UNL     1       0.079  12.406  20.095  0.00  0.00    +0.000 C 
ATOM     13  C   UNL     1       0.351  12.926  21.515  0.00  0.00    +0.000 C 
ATOM     14  C   UNL     1      -0.667  12.411  22.528  0.00  0.00    +0.000 C 
ATOM     15  C   UNL     1      -0.733  10.887  22.494  0.00  0.00    +0.000 C 
ATOM     16  C   UNL     1      -0.975  10.349  21.088  0.00  0.00    +0.000 C 
ATOM     17  N   UNL     1      -0.053  10.944  20.122  0.00  0.00    +0.000 N 
ATOM     18  C   UNL     1       0.813  10.128  19.413  0.00  0.00    +0.000 A 
ATOM     19  C   UNL     1       1.324  10.500  18.160  0.00  0.00    +0.000 A 
ATOM     20  N   UNL     1       2.159   9.746  17.403  0.00  0.00    +0.000 NA
ATOM     21  C   UNL     1       2.471   8.549  17.941  0.00  0.00    +0.000 A 
ATOM     22  C   UNL     1       1.979   8.127  19.169  0.00  0.00    +0.000 A 
ATOM     23  N   UNL     1       1.146   8.911  19.909  0.00  0.00    +0.000 NA
ENDBRANCH   1  22
BRANCH   7  24
ATOM     24  C   UNL     1       5.294   4.391  16.366  0.00  0.00    +0.000 A 
ATOM     25  N   UNL     1       5.080   3.623  15.314  0.00  0.00    +0.000 NA
ATOM     26  N   UNL     1       6.061   3.945  14.395  0.00  0.00    +0.000 NA
ATOM     27  C   UNL     1       6.797   4.875  14.952  0.00  0.00    +0.000 A 
ATOM     28  N   UNL     1       7.860   5.532  14.478  0.00  0.00    +0.000 N 
ATOM     29  O   UNL     1       6.390   5.202  16.208  0.00  0.00    +0.000 OA
ATOM     30  H   UNL     1       8.308   5.146  13.657  0.00  0.00    +0.000 HD
ATOM     31  H   UNL     1       8.483   5.972  15.142  0.00  0.00    +0.000 HD
ENDBRANCH   7  24
TORSDOF 2
ENDMDL
MODEL 5
REMARK VINA RESULT:      -8.7      3.567      8.643
REMARK  Name = 
REMARK  3 active torsions:
REMARK  status: ('A' for Active; 'I' for Inactive)
REMARK    1  A    between atoms: C_1  and  C_2
REMARK    2  A    between atoms: C_12  and  C_13
REMARK    3  A    between atoms: C_19  and  C_20
REMARK                            x       y       z     vdW  Elec       q    Type
REMARK                         _______ _______ _______ _____ _____    ______ ____
ROOT
ATOM      1  C   UNL     1       1.177   9.213  20.292  0.00  0.00    +0.000 A 
ATOM      2  C   UNL     1       1.556   9.460  21.601  0.00  0.00    +0.000 A 
ATOM      3  N   UNL     1       0.685  10.369  22.140  0.00  0.00    +0.000 N 
ATOM      4  C   UNL     1      -0.273  10.715  21.214  0.00  0.00    +0.000 A 
ATOM      5  C   UNL     1      -1.367  11.577  21.325  0.00  0.00    +0.000 A 
ATOM      6  C   UNL     1      -2.187  11.732  20.197  0.00  0.00    +0.000 A 
ATOM      7  C   UNL     1      -1.932  11.051  19.001  0.00  0.00    +0.000 A 
ATOM      8  C   UNL     1      -0.830  10.186  18.933  0.00  0.00    +0.000 A 
ATOM      9  C   UNL     1       0.020  10.016  20.046  0.00  0.00    +0.000 A 
ATOM     10  H   UNL     1       0.719  10.722  23.086  0.00  0.00    +0.000 HD
ENDROOT
BRANCH   1  22
ATOM     11  C   UNL     1       3.996   2.898  18.573  0.00  0.00    +0.000 C 
ATOM     12  C   UNL     1       2.669   3.650  18.472  0.00  0.00    +0.000 C 
ATOM     13  C   UNL     1       1.459   2.729  18.689  0.00  0.00    +0.000 C 
ATOM     14  C   UNL     1       1.332   2.266  20.138  0.00  0.00    +0.000 C 
ATOM     15  C   UNL     1       1.298   3.464  21.081  0.00  0.00    +0.000 C 
ATOM     16  C   UNL     1       2.477   4.407  20.863  0.00  0.00    +0.000 C 
ATOM     17  N   UNL     1       2.637   4.745  19.450  0.00  0.00    +0.000 N 
ATOM     18  C   UNL     1       2.546   6.068  19.050  0.00  0.00    +0.000 A 
ATOM     19  C   UNL     1       3.176   6.536  17.887  0.00  0.00    +0.000 A 
ATOM     20  N   UNL     1       3.146   7.818  17.446  0.00  0.00    +0.000 NA
ATOM     21  C   UNL     1       2.456   8.664  18.238  0.00  0.00    +0.000 A 
ATOM     22  C   UNL     1       1.828   8.254  19.407  0.00  0.00    +0.000 A 
ATOM     23  N   UNL     1       1.872   6.957  19.820  0.00  0.00    +0.000 NA
ENDBRANCH   1  22
BRANCH   7  24
ATOM     24  C   UNL     1      -2.796  11.251  17.847  0.00  0.00    +0.000 A 
ATOM     25  N   UNL     1      -2.540  11.110  16.559  0.00  0.00    +0.000 NA
ATOM     26  N   UNL     1      -3.723  11.379  15.898  0.00  0.00    +0.000 NA
ATOM     27  C   UNL     1      -4.606  11.667  16.823  0.00  0.00    +0.000 A 
ATOM     28  N   UNL     1      -5.899  11.984  16.712  0.00  0.00    +0.000 N 
ATOM     29  O   UNL     1      -4.095  11.627  18.083  0.00  0.00    +0.000 OA
ATOM     30  H   UNL     1      -6.230  12.241  15.790  0.00  0.00    +0.000 HD
ATOM     31  H   UNL     1      -6.337  12.475  17.479  0.00  0.00    +0.000 HD
ENDBRANCH   7  24
TORSDOF 2
ENDMDL
MODEL 6
REMARK VINA RESULT:      -8.4      3.786      8.930
REMARK  Name = 
REMARK  3 active torsions:
REMARK  status: ('A' for Active; 'I' for Inactive)
REMARK    1  A    between atoms: C_1  and  C_2
REMARK    2  A    between atoms: C_12  and  C_13
REMARK    3  A    between atoms: C_19  and  C_20
REMARK                            x       y       z     vdW  Elec       q    Type
REMARK                         _______ _______ _______ _____ _____    ______ ____
ROOT
ATOM      1  C   UNL     1       0.399   9.449  21.294  0.00  0.00    +0.000 A 
ATOM      2  C   UNL     1      -0.176   8.790  22.367  0.00  0.00    +0.000 A 
ATOM      3  N   UNL     1      -0.801   9.716  23.160  0.00  0.00    +0.000 N 
ATOM      4  C   UNL     1      -0.663  10.974  22.619  0.00  0.00    +0.000 A 
ATOM      5  C   UNL     1      -1.153  12.206  23.060  0.00  0.00    +0.000 A 
ATOM      6  C   UNL     1      -0.850  13.338  22.288  0.00  0.00    +0.000 A 
ATOM      7  C   UNL     1      -0.092  13.250  21.116  0.00  0.00    +0.000 A 
ATOM      8  C   UNL     1       0.372  11.993  20.699  0.00  0.00    +0.000 A 
ATOM      9  C   UNL     1       0.095  10.837  21.459  0.00  0.00    +0.000 A 
ATOM     10  H   UNL     1      -1.313   9.511  24.007  0.00  0.00    +0.000 HD
ENDROOT
BRANCH   1  22
ATOM     11  C   UNL     1       3.905   4.090  18.168  0.00  0.00    +0.000 C 
ATOM     12  C   UNL     1       2.485   4.645  18.286  0.00  0.00    +0.000 C 
ATOM     13  C   UNL     1       1.429   3.531  18.360  0.00  0.00    +0.000 C 
ATOM     14  C   UNL     1       1.473   2.774  19.684  0.00  0.00    +0.000 C 
ATOM     15  C   UNL     1       1.348   3.740  20.858  0.00  0.00    +0.000 C 
ATOM     16  C   UNL     1       2.370   4.870  20.789  0.00  0.00    +0.000 C 
ATOM     17  N   UNL     1       2.379   5.504  19.472  0.00  0.00    +0.000 N 
ATOM     18  C   UNL     1       2.081   6.853  19.362  0.00  0.00    +0.000 A 
ATOM     19  C   UNL     1       2.555   7.631  18.296  0.00  0.00    +0.000 A 
ATOM     20  N   UNL     1       2.321   8.958  18.133  0.00  0.00    +0.000 NA
ATOM     21  C   UNL     1       1.584   9.517  19.115  0.00  0.00    +0.000 A 
ATOM     22  C   UNL     1       1.105   8.794  20.199  0.00  0.00    +0.000 A 
ATOM     23  N   UNL     1       1.353   7.460  20.330  0.00  0.00    +0.000 NA
ENDBRANCH   1  22
BRANCH   7  24
ATOM     24  C   UNL     1       0.215  14.449  20.350  0.00  0.00    +0.000 A 
ATOM     25  N   UNL     1       1.358  15.093  20.203  0.00  0.00    +0.000 NA
ATOM     26  N   UNL     1       1.104  16.138  19.335  0.00  0.00    +0.000 NA
ATOM     27  C   UNL     1      -0.166  16.057  19.022  0.00  0.00    +0.000 A 
ATOM     28  N   UNL     1      -0.904  16.819  18.209  0.00  0.00    +0.000 N 
ATOM     29  O   UNL     1      -0.806  15.027  19.638  0.00  0.00    +0.000 OA
ATOM     30  H   UNL     1      -0.509  17.709  17.931  0.00  0.00    +0.000 HD
ATOM     31  H   UNL     1      -1.908  16.812  18.330  0.00  0.00    +0.000 HD
ENDBRANCH   7  24
TORSDOF 2
ENDMDL
MODEL 7
REMARK VINA RESULT:      -8.3      3.447      8.391
REMARK  Name = 
REMARK  3 active torsions:
REMARK  status: ('A' for Active; 'I' for Inactive)
REMARK    1  A    between atoms: C_1  and  C_2
REMARK    2  A    between atoms: C_12  and  C_13
REMARK    3  A    between atoms: C_19  and  C_20
REMARK                            x       y       z     vdW  Elec       q    Type
REMARK                         _______ _______ _______ _____ _____    ______ ____
ROOT
ATOM      1  C   UNL     1       0.728   9.546  20.613  0.00  0.00    +0.000 A 
ATOM      2  C   UNL     1      -0.047   9.047  21.646  0.00  0.00    +0.000 A 
ATOM      3  N   UNL     1      -0.568  10.103  22.347  0.00  0.00    +0.000 N 
ATOM      4  C   UNL     1      -0.163  11.292  21.783  0.00  0.00    +0.000 A 
ATOM      5  C   UNL     1      -0.465  12.609  22.138  0.00  0.00    +0.000 A 
ATOM      6  C   UNL     1       0.100  13.634  21.364  0.00  0.00    +0.000 A 
ATOM      7  C   UNL     1       0.932  13.361  20.273  0.00  0.00    +0.000 A 
ATOM      8  C   UNL     1       1.203  12.025  19.942  0.00  0.00    +0.000 A 
ATOM      9  C   UNL     1       0.660  10.971  20.706  0.00  0.00    +0.000 A 
ATOM     10  H   UNL     1      -1.182  10.029  23.146  0.00  0.00    +0.000 HD
ENDROOT
BRANCH   1  22
ATOM     11  C   UNL     1       3.943   3.669  18.183  0.00  0.00    +0.000 C 
ATOM     12  C   UNL     1       2.556   4.312  18.217  0.00  0.00    +0.000 C 
ATOM     13  C   UNL     1       1.439   3.275  18.407  0.00  0.00    +0.000 C 
ATOM     14  C   UNL     1       1.432   2.678  19.812  0.00  0.00    +0.000 C 
ATOM     15  C   UNL     1       1.355   3.782  20.863  0.00  0.00    +0.000 C 
ATOM     16  C   UNL     1       2.440   4.837  20.674  0.00  0.00    +0.000 C 
ATOM     17  N   UNL     1       2.492   5.309  19.292  0.00  0.00    +0.000 N 
ATOM     18  C   UNL     1       2.272   6.650  19.021  0.00  0.00    +0.000 A 
ATOM     19  C   UNL     1       2.795   7.270  17.876  0.00  0.00    +0.000 A 
ATOM     20  N   UNL     1       2.637   8.579  17.557  0.00  0.00    +0.000 NA
ATOM     21  C   UNL     1       1.927   9.290  18.457  0.00  0.00    +0.000 A 
ATOM     22  C   UNL     1       1.402   8.728  19.612  0.00  0.00    +0.000 A 
ATOM     23  N   UNL     1       1.574   7.407  19.902  0.00  0.00    +0.000 NA
ENDBRANCH   1  22
BRANCH   7  24
ATOM     24  C   UNL     1       1.513  14.452  19.505  0.00  0.00    +0.000 A 
ATOM     25  N   UNL     1       1.306  15.754  19.586  0.00  0.00    +0.000 NA
ATOM     26  N   UNL     1       2.148  16.338  18.659  0.00  0.00    +0.000 NA
ATOM     27  C   UNL     1       2.799  15.357  18.082  0.00  0.00    +0.000 A 
ATOM     28  N   UNL     1       3.736  15.387  17.130  0.00  0.00    +0.000 N 
ATOM     29  O   UNL     1       2.442  14.130  18.546  0.00  0.00    +0.000 OA
ATOM     30  H   UNL     1       3.843  16.255  16.619  0.00  0.00    +0.000 HD
ATOM     31  H   UNL     1       3.893  14.547  16.590  0.00  0.00    +0.000 HD
ENDBRANCH   7  24
TORSDOF 2
ENDMDL
MODEL 8
REMARK VINA RESULT:      -8.3      2.872      4.857
REMARK  Name = 
REMARK  3 active torsions:
REMARK  status: ('A' for Active; 'I' for Inactive)
REMARK    1  A    between atoms: C_1  and  C_2
REMARK    2  A    between atoms: C_12  and  C_13
REMARK    3  A    between atoms: C_19  and  C_20
REMARK                            x       y       z     vdW  Elec       q    Type
REMARK                         _______ _______ _______ _____ _____    ______ ____
ROOT
ATOM      1  C   UNL     1       1.154   9.829  19.649  0.00  0.00    +0.000 A 
ATOM      2  C   UNL     1       1.342  10.758  18.640  0.00  0.00    +0.000 A 
ATOM      3  N   UNL     1       2.116  10.187  17.664  0.00  0.00    +0.000 N 
ATOM      4  C   UNL     1       2.429   8.890  18.005  0.00  0.00    +0.000 A 
ATOM      5  C   UNL     1       3.164   7.926  17.310  0.00  0.00    +0.000 A 
ATOM      6  C   UNL     1       3.317   6.669  17.915  0.00  0.00    +0.000 A 
ATOM      7  C   UNL     1       2.755   6.377  19.163  0.00  0.00    +0.000 A 
ATOM      8  C   UNL     1       2.014   7.369  19.824  0.00  0.00    +0.000 A 
ATOM      9  C   UNL     1       1.851   8.646  19.249  0.00  0.00    +0.000 A 
ATOM     10  H   UNL     1       2.400  10.636  16.805  0.00  0.00    +0.000 HD
ENDROOT
BRANCH   1  22
ATOM     11  C   UNL     1      -2.724  13.724  24.186  0.00  0.00    +0.000 C 
ATOM     12  C   UNL     1      -2.911  12.827  22.961  0.00  0.00    +0.000 C 
ATOM     13  C   UNL     1      -4.013  13.344  22.024  0.00  0.00    +0.000 C 
ATOM     14  C   UNL     1      -3.605  14.620  21.294  0.00  0.00    +0.000 C 
ATOM     15  C   UNL     1      -2.289  14.413  20.548  0.00  0.00    +0.000 C 
ATOM     16  C   UNL     1      -1.189  13.874  21.456  0.00  0.00    +0.000 C 
ATOM     17  N   UNL     1      -1.647  12.717  22.223  0.00  0.00    +0.000 N 
ATOM     18  C   UNL     1      -1.003  11.499  22.070  0.00  0.00    +0.000 A 
ATOM     19  C   UNL     1      -1.008  10.527  23.082  0.00  0.00    +0.000 A 
ATOM     20  N   UNL     1      -0.385   9.324  23.011  0.00  0.00    +0.000 NA
ATOM     21  C   UNL     1       0.287   9.112  21.861  0.00  0.00    +0.000 A 
ATOM     22  C   UNL     1       0.336  10.048  20.836  0.00  0.00    +0.000 A 
ATOM     23  N   UNL     1      -0.306  11.246  20.936  0.00  0.00    +0.000 NA
ENDBRANCH   1  22
BRANCH   7  24
ATOM     24  C   UNL     1       2.950   5.067  19.765  0.00  0.00    +0.000 A 
ATOM     25  N   UNL     1       2.274   4.464  20.726  0.00  0.00    +0.000 NA
ATOM     26  N   UNL     1       2.849   3.217  20.880  0.00  0.00    +0.000 NA
ATOM     27  C   UNL     1       3.828   3.152  20.011  0.00  0.00    +0.000 A 
ATOM     28  N   UNL     1       4.682   2.159  19.746  0.00  0.00    +0.000 N 
ATOM     29  O   UNL     1       3.971   4.289  19.278  0.00  0.00    +0.000 OA
ATOM     30  H   UNL     1       4.739   1.411  20.426  0.00  0.00    +0.000 HD
ATOM     31  H   UNL     1       5.552   2.389  19.285  0.00  0.00    +0.000 HD
ENDBRANCH   7  24
TORSDOF 2
ENDMDL
MODEL 9
REMARK VINA RESULT:      -8.0      6.602     11.351
REMARK  Name = 
REMARK  3 active torsions:
REMARK  status: ('A' for Active; 'I' for Inactive)
REMARK    1  A    between atoms: C_1  and  C_2
REMARK    2  A    between atoms: C_12  and  C_13
REMARK    3  A    between atoms: C_19  and  C_20
REMARK                            x       y       z     vdW  Elec       q    Type
REMARK                         _______ _______ _______ _____ _____    ______ ____
ROOT
ATOM      1  C   UNL     1      -4.900  11.837  17.643  0.00  0.00    +0.000 A 
ATOM      2  C   UNL     1      -5.467  12.216  16.438  0.00  0.00    +0.000 A 
ATOM      3  N   UNL     1      -6.651  12.855  16.697  0.00  0.00    +0.000 N 
ATOM      4  C   UNL     1      -6.868  12.919  18.055  0.00  0.00    +0.000 A 
ATOM      5  C   UNL     1      -7.916  13.495  18.777  0.00  0.00    +0.000 A 
ATOM      6  C   UNL     1      -7.865  13.406  20.177  0.00  0.00    +0.000 A 
ATOM      7  C   UNL     1      -6.808  12.771  20.837  0.00  0.00    +0.000 A 
ATOM      8  C   UNL     1      -5.768  12.214  20.078  0.00  0.00    +0.000 A 
ATOM      9  C   UNL     1      -5.794  12.277  18.669  0.00  0.00    +0.000 A 
ATOM     10  H   UNL     1      -7.269  13.248  16.001  0.00  0.00    +0.000 HD
ENDROOT
BRANCH   1  22
ATOM     11  C   UNL     1       1.347  10.488  20.795  0.00  0.00    +0.000 C 
ATOM     12  C   UNL     1      -0.080   9.941  20.750  0.00  0.00    +0.000 C 
ATOM     13  C   UNL     1      -0.555   9.440  22.122  0.00  0.00    +0.000 C 
ATOM     14  C   UNL     1      -0.795  10.580  23.108  0.00  0.00    +0.000 C 
ATOM     15  C   UNL     1      -1.765  11.601  22.521  0.00  0.00    +0.000 C 
ATOM     16  C   UNL     1      -1.325  12.091  21.145  0.00  0.00    +0.000 C 
ATOM     17  N   UNL     1      -0.998  10.976  20.258  0.00  0.00    +0.000 N 
ATOM     18  C   UNL     1      -1.709  10.810  19.081  0.00  0.00    +0.000 A 
ATOM     19  C   UNL     1      -1.162  10.145  17.973  0.00  0.00    +0.000 A 
ATOM     20  N   UNL     1      -1.790   9.963  16.784  0.00  0.00    +0.000 NA
ATOM     21  C   UNL     1      -3.025  10.500  16.719  0.00  0.00    +0.000 A 
ATOM     22  C   UNL     1      -3.605  11.181  17.781  0.00  0.00    +0.000 A 
ATOM     23  N   UNL     1      -2.950  11.343  18.964  0.00  0.00    +0.000 NA
ENDBRANCH   1  22
BRANCH   7  24
ATOM     24  C   UNL     1      -6.799  12.684  22.290  0.00  0.00    +0.000 A 
ATOM     25  N   UNL     1      -7.796  12.765  23.152  0.00  0.00    +0.000 NA
ATOM     26  N   UNL     1      -7.242  12.569  24.403  0.00  0.00    +0.000 NA
ATOM     27  C   UNL     1      -5.957  12.389  24.214  0.00  0.00    +0.000 A 
ATOM     28  N   UNL     1      -4.982  12.147  25.094  0.00  0.00    +0.000 N 
ATOM     29  O   UNL     1      -5.592  12.466  22.906  0.00  0.00    +0.000 OA
ATOM     30  H   UNL     1      -5.193  12.315  26.070  0.00  0.00    +0.000 HD
ATOM     31  H   UNL     1      -4.030  12.350  24.818  0.00  0.00    +0.000 HD
ENDBRANCH   7  24
TORSDOF 2
ENDMDL
