MODEL 1
REMARK VINA RESULT:      -7.5      0.000      0.000
REMARK  Name = 
REMARK  6 active torsions:
REMARK  status: ('A' for Active; 'I' for Inactive)
REMARK    1  A    between atoms: C_1  and  C_2
REMARK    2  A    between atoms: C_5  and  N_6
REMARK    3  A    between atoms: C_9  and  O_10
REMARK    4  A    between atoms: O_10  and  C_11
REMARK    5  A    between atoms: C_11  and  C_12
REMARK    6  A    between atoms: C_12  and  N_13
REMARK                            x       y       z     vdW  Elec       q    Type
REMARK                         _______ _______ _______ _____ _____    ______ ____
ROOT
ATOM      1  C   UNL     1       3.938   7.642  16.901  0.00  0.00    +0.000 C 
ENDROOT
BRANCH   1   2
ATOM      2  O   UNL     1       5.286   7.400  17.301  0.00  0.00    +0.000 OA
BRANCH   2   8
ATOM      3  C   UNL     1       5.405   4.036  13.692  0.00  0.00    +0.000 C 
ATOM      4  C   UNL     1       6.043   4.632  14.915  0.00  0.00    +0.000 A 
ATOM      5  C   UNL     1       7.064   3.986  15.607  0.00  0.00    +0.000 A 
ATOM      6  C   UNL     1       7.503   4.491  16.834  0.00  0.00    +0.000 A 
ATOM      7  C   UNL     1       6.876   5.625  17.381  0.00  0.00    +0.000 A 
ATOM      8  C   UNL     1       5.874   6.311  16.697  0.00  0.00    +0.000 A 
ATOM      9  C   UNL     1       5.503   5.812  15.436  0.00  0.00    +0.000 A 
BRANCH   7  10
ATOM     10  N   UNL     1       7.264   6.040  18.714  0.00  0.00    +0.000 N 
ATOM     11  O   UNL     1       8.144   6.904  18.791  0.00  0.00    +0.000 OA
ATOM     12  O   UNL     1       6.745   5.458  19.671  0.00  0.00    +0.000 OA
ENDBRANCH   7  10
ENDBRANCH   2   8
ENDBRANCH   1   2
BRANCH   1  13
ATOM     13  C   UNL     1       2.997   8.001  18.051  0.00  0.00    +0.000 C 
BRANCH  13  14
ATOM     14  N   UNL     1       2.382   6.828  18.696  0.00  0.00    +0.000 NA
ATOM     15  C   UNL     1       2.063   6.993  20.130  0.00  0.00    +0.000 C 
ATOM     16  C   UNL     1       1.617   5.719  20.895  0.00  0.00    +0.000 C 
ATOM     17  C   UNL     1       1.605   4.461  20.067  0.00  0.00    +0.000 A 
ATOM     18  C   UNL     1       0.873   3.341  20.468  0.00  0.00    +0.000 A 
ATOM     19  C   UNL     1       0.767   2.242  19.615  0.00  0.00    +0.000 A 
ATOM     20  C   UNL     1       1.393   2.253  18.370  0.00  0.00    +0.000 A 
ATOM     21  C   UNL     1       2.182   3.338  17.995  0.00  0.00    +0.000 A 
ATOM     22  C   UNL     1       2.309   4.431  18.853  0.00  0.00    +0.000 A 
ATOM     23  C   UNL     1       3.169   5.613  18.499  0.00  0.00    +0.000 C 
ENDBRANCH  13  14
ENDBRANCH   1  13
TORSDOF 5
ENDMDL
MODEL 2
REMARK VINA RESULT:      -7.3      4.205      6.779
REMARK  Name = 
REMARK  6 active torsions:
REMARK  status: ('A' for Active; 'I' for Inactive)
REMARK    1  A    between atoms: C_1  and  C_2
REMARK    2  A    between atoms: C_5  and  N_6
REMARK    3  A    between atoms: C_9  and  O_10
REMARK    4  A    between atoms: O_10  and  C_11
REMARK    5  A    between atoms: C_11  and  C_12
REMARK    6  A    between atoms: C_12  and  N_13
REMARK                            x       y       z     vdW  Elec       q    Type
REMARK                         _______ _______ _______ _____ _____    ______ ____
ROOT
ATOM      1  C   UNL     1       1.497   9.124  17.647  0.00  0.00    +0.000 C 
ENDROOT
BRANCH   1   2
ATOM      2  O   UNL     1       1.370  10.274  18.481  0.00  0.00    +0.000 OA
BRANCH   2   8
ATOM      3  C   UNL     1      -3.383  10.285  17.152  0.00  0.00    +0.000 C 
ATOM      4  C   UNL     1      -2.316  10.732  18.111  0.00  0.00    +0.000 A 
ATOM      5  C   UNL     1      -2.528  11.755  19.032  0.00  0.00    +0.000 A 
ATOM      6  C   UNL     1      -1.457  12.254  19.778  0.00  0.00    +0.000 A 
ATOM      7  C   UNL     1      -0.164  11.749  19.557  0.00  0.00    +0.000 A 
ATOM      8  C   UNL     1       0.075  10.705  18.667  0.00  0.00    +0.000 A 
ATOM      9  C   UNL     1      -1.037  10.182  17.981  0.00  0.00    +0.000 A 
BRANCH   7  10
ATOM     10  N   UNL     1       0.941  12.383  20.250  0.00  0.00    +0.000 N 
ATOM     11  O   UNL     1       1.485  13.331  19.675  0.00  0.00    +0.000 OA
ATOM     12  O   UNL     1       1.302  11.893  21.324  0.00  0.00    +0.000 OA
ENDBRANCH   7  10
ENDBRANCH   2   8
ENDBRANCH   1   2
BRANCH   1  13
ATOM     13  C   UNL     1       2.703   8.244  17.972  0.00  0.00    +0.000 C 
BRANCH  13  14
ATOM     14  N   UNL     1       2.338   6.928  18.529  0.00  0.00    +0.000 NA
ATOM     15  C   UNL     1       2.040   6.918  19.977  0.00  0.00    +0.000 C 
ATOM     16  C   UNL     1       1.864   5.527  20.641  0.00  0.00    +0.000 C 
ATOM     17  C   UNL     1       2.059   4.357  19.711  0.00  0.00    +0.000 A 
ATOM     18  C   UNL     1       1.561   3.092  20.031  0.00  0.00    +0.000 A 
ATOM     19  C   UNL     1       1.633   2.063  19.092  0.00  0.00    +0.000 A 
ATOM     20  C   UNL     1       2.205   2.289  17.841  0.00  0.00    +0.000 A 
ATOM     21  C   UNL     1       2.766   3.529  17.543  0.00  0.00    +0.000 A 
ATOM     22  C   UNL     1       2.716   4.556  18.487  0.00  0.00    +0.000 A 
ATOM     23  C   UNL     1       3.330   5.902  18.217  0.00  0.00    +0.000 C 
ENDBRANCH  13  14
ENDBRANCH   1  13
TORSDOF 5
ENDMDL
MODEL 3
REMARK VINA RESULT:      -7.3      3.999      5.686
REMARK  Name = 
REMARK  6 active torsions:
REMARK  status: ('A' for Active; 'I' for Inactive)
REMARK    1  A    between atoms: C_1  and  C_2
REMARK    2  A    between atoms: C_5  and  N_6
REMARK    3  A    between atoms: C_9  and  O_10
REMARK    4  A    between atoms: O_10  and  C_11
REMARK    5  A    between atoms: C_11  and  C_12
REMARK    6  A    between atoms: C_12  and  N_13
REMARK                            x       y       z     vdW  Elec       q    Type
REMARK                         _______ _______ _______ _____ _____    ______ ____
ROOT
ATOM      1  C   UNL     1       2.226   8.259  18.309  0.00  0.00    +0.000 C 
ENDROOT
BRANCH   1   2
ATOM      2  O   UNL     1       3.435   7.636  17.878  0.00  0.00    +0.000 OA
BRANCH   2   8
ATOM      3  C   UNL     1       1.230   3.315  18.788  0.00  0.00    +0.000 C 
ATOM      4  C   UNL     1       2.276   4.091  18.039  0.00  0.00    +0.000 A 
ATOM      5  C   UNL     1       3.312   3.465  17.351  0.00  0.00    +0.000 A 
ATOM      6  C   UNL     1       4.357   4.226  16.821  0.00  0.00    +0.000 A 
ATOM      7  C   UNL     1       4.377   5.617  17.029  0.00  0.00    +0.000 A 
ATOM      8  C   UNL     1       3.340   6.275  17.687  0.00  0.00    +0.000 A 
ATOM      9  C   UNL     1       2.272   5.486  18.150  0.00  0.00    +0.000 A 
BRANCH   7  10
ATOM     10  N   UNL     1       5.542   6.354  16.584  0.00  0.00    +0.000 N 
ATOM     11  O   UNL     1       5.512   6.795  15.430  0.00  0.00    +0.000 OA
ATOM     12  O   UNL     1       6.503   6.432  17.356  0.00  0.00    +0.000 OA
ENDBRANCH   7  10
ENDBRANCH   2   8
ENDBRANCH   1   2
BRANCH   1  13
ATOM     13  C   UNL     1       2.121   9.740  17.951  0.00  0.00    +0.000 C 
BRANCH  13  14
ATOM     14  N   UNL     1       0.768  10.296  18.132  0.00  0.00    +0.000 NA
ATOM     15  C   UNL     1       0.478  10.820  19.484  0.00  0.00    +0.000 C 
ATOM     16  C   UNL     1      -0.994  11.212  19.777  0.00  0.00    +0.000 C 
ATOM     17  C   UNL     1      -1.948  10.968  18.637  0.00  0.00    +0.000 A 
ATOM     18  C   UNL     1      -3.187  11.612  18.583  0.00  0.00    +0.000 A 
ATOM     19  C   UNL     1      -3.989  11.476  17.450  0.00  0.00    +0.000 A 
ATOM     20  C   UNL     1      -3.564  10.696  16.376  0.00  0.00    +0.000 A 
ATOM     21  C   UNL     1      -2.363   9.995  16.453  0.00  0.00    +0.000 A 
ATOM     22  C   UNL     1      -1.566  10.110  17.593  0.00  0.00    +0.000 A 
ATOM     23  C   UNL     1      -0.274   9.354  17.730  0.00  0.00    +0.000 C 
ENDBRANCH  13  14
ENDBRANCH   1  13
TORSDOF 5
ENDMDL
MODEL 4
REMARK VINA RESULT:      -7.3      2.629      6.473
REMARK  Name = 
REMARK  6 active torsions:
REMARK  status: ('A' for Active; 'I' for Inactive)
REMARK    1  A    between atoms: C_1  and  C_2
REMARK    2  A    between atoms: C_5  and  N_6
REMARK    3  A    between atoms: C_9  and  O_10
REMARK    4  A    between atoms: O_10  and  C_11
REMARK    5  A    between atoms: C_11  and  C_12
REMARK    6  A    between atoms: C_12  and  N_13
REMARK                            x       y       z     vdW  Elec       q    Type
REMARK                         _______ _______ _______ _____ _____    ______ ____
ROOT
ATOM      1  C   UNL     1       3.816   2.603  17.943  0.00  0.00    +0.000 C 
ENDROOT
BRANCH   1   2
ATOM      2  O   UNL     1       2.468   2.959  18.244  0.00  0.00    +0.000 OA
BRANCH   2   8
ATOM      3  C   UNL     1       2.652   7.883  17.958  0.00  0.00    +0.000 C 
ATOM      4  C   UNL     1       2.334   6.653  18.761  0.00  0.00    +0.000 A 
ATOM      5  C   UNL     1       2.134   6.700  20.138  0.00  0.00    +0.000 A 
ATOM      6  C   UNL     1       2.017   5.512  20.866  0.00  0.00    +0.000 A 
ATOM      7  C   UNL     1       2.150   4.278  20.205  0.00  0.00    +0.000 A 
ATOM      8  C   UNL     1       2.320   4.199  18.824  0.00  0.00    +0.000 A 
ATOM      9  C   UNL     1       2.367   5.413  18.115  0.00  0.00    +0.000 A 
BRANCH   7  10
ATOM     10  N   UNL     1       2.159   3.073  21.010  0.00  0.00    +0.000 N 
ATOM     11  O   UNL     1       1.059   2.592  21.301  0.00  0.00    +0.000 OA
ATOM     12  O   UNL     1       3.252   2.654  21.404  0.00  0.00    +0.000 OA
ENDBRANCH   7  10
ENDBRANCH   2   8
ENDBRANCH   1   2
BRANCH   1  13
ATOM     13  C   UNL     1       4.817   3.746  18.101  0.00  0.00    +0.000 C 
BRANCH  13  14
ATOM     14  N   UNL     1       5.606   4.010  16.884  0.00  0.00    +0.000 NA
ATOM     15  C   UNL     1       6.685   5.009  17.037  0.00  0.00    +0.000 C 
ATOM     16  C   UNL     1       7.394   5.472  15.737  0.00  0.00    +0.000 C 
ATOM     17  C   UNL     1       6.854   4.856  14.473  0.00  0.00    +0.000 A 
ATOM     18  C   UNL     1       7.607   4.848  13.296  0.00  0.00    +0.000 A 
ATOM     19  C   UNL     1       7.142   4.150  12.182  0.00  0.00    +0.000 A 
ATOM     20  C   UNL     1       5.928   3.467  12.235  0.00  0.00    +0.000 A 
ATOM     21  C   UNL     1       5.140   3.529  13.382  0.00  0.00    +0.000 A 
ATOM     22  C   UNL     1       5.590   4.244  14.493  0.00  0.00    +0.000 A 
ATOM     23  C   UNL     1       4.763   4.359  15.743  0.00  0.00    +0.000 C 
ENDBRANCH  13  14
ENDBRANCH   1  13
TORSDOF 5
ENDMDL
MODEL 5
REMARK VINA RESULT:      -7.2      1.869      3.832
REMARK  Name = 
REMARK  6 active torsions:
REMARK  status: ('A' for Active; 'I' for Inactive)
REMARK    1  A    between atoms: C_1  and  C_2
REMARK    2  A    between atoms: C_5  and  N_6
REMARK    3  A    between atoms: C_9  and  O_10
REMARK    4  A    between atoms: O_10  and  C_11
REMARK    5  A    between atoms: C_11  and  C_12
REMARK    6  A    between atoms: C_12  and  N_13
REMARK                            x       y       z     vdW  Elec       q    Type
REMARK                         _______ _______ _______ _____ _____    ______ ____
ROOT
ATOM      1  C   UNL     1       3.503   4.449  17.714  0.00  0.00    +0.000 C 
ENDROOT
BRANCH   1   2
ATOM      2  O   UNL     1       4.926   4.375  17.785  0.00  0.00    +0.000 OA
BRANCH   2   8
ATOM      3  C   UNL     1       5.165   3.577  12.921  0.00  0.00    +0.000 C 
ATOM      4  C   UNL     1       5.744   4.224  14.146  0.00  0.00    +0.000 A 
ATOM      5  C   UNL     1       7.028   4.763  14.163  0.00  0.00    +0.000 A 
ATOM      6  C   UNL     1       7.588   5.193  15.369  0.00  0.00    +0.000 A 
ATOM      7  C   UNL     1       6.865   5.034  16.565  0.00  0.00    +0.000 A 
ATOM      8  C   UNL     1       5.568   4.528  16.576  0.00  0.00    +0.000 A 
ATOM      9  C   UNL     1       5.011   4.166  15.336  0.00  0.00    +0.000 A 
BRANCH   7  10
ATOM     10  N   UNL     1       7.529   5.365  17.810  0.00  0.00    +0.000 N 
ATOM     11  O   UNL     1       7.574   6.562  18.113  0.00  0.00    +0.000 OA
ATOM     12  O   UNL     1       8.060   4.446  18.440  0.00  0.00    +0.000 OA
ENDBRANCH   7  10
ENDBRANCH   2   8
ENDBRANCH   1   2
BRANCH   1  13
ATOM     13  C   UNL     1       2.832   4.883  19.016  0.00  0.00    +0.000 C 
BRANCH  13  14
ATOM     14  N   UNL     1       2.268   6.244  18.963  0.00  0.00    +0.000 NA
ATOM     15  C   UNL     1       2.786   7.098  17.874  0.00  0.00    +0.000 C 
ATOM     16  C   UNL     1       2.383   8.596  17.913  0.00  0.00    +0.000 C 
ATOM     17  C   UNL     1       1.534   8.988  19.095  0.00  0.00    +0.000 A 
ATOM     18  C   UNL     1       0.773  10.159  19.078  0.00  0.00    +0.000 A 
ATOM     19  C   UNL     1      -0.109  10.425  20.125  0.00  0.00    +0.000 A 
ATOM     20  C   UNL     1      -0.228   9.534  21.190  0.00  0.00    +0.000 A 
ATOM     21  C   UNL     1       0.579   8.400  21.246  0.00  0.00    +0.000 A 
ATOM     22  C   UNL     1       1.479   8.139  20.211  0.00  0.00    +0.000 A 
ATOM     23  C   UNL     1       2.387   6.941  20.242  0.00  0.00    +0.000 C 
ENDBRANCH  13  14
ENDBRANCH   1  13
TORSDOF 5
ENDMDL
MODEL 6
REMARK VINA RESULT:      -7.2      1.697      3.225
REMARK  Name = 
REMARK  6 active torsions:
REMARK  status: ('A' for Active; 'I' for Inactive)
REMARK    1  A    between atoms: C_1  and  C_2
REMARK    2  A    between atoms: C_5  and  N_6
REMARK    3  A    between atoms: C_9  and  O_10
REMARK    4  A    between atoms: O_10  and  C_11
REMARK    5  A    between atoms: C_11  and  C_12
REMARK    6  A    between atoms: C_12  and  N_13
REMARK                            x       y       z     vdW  Elec       q    Type
REMARK                         _______ _______ _______ _____ _____    ______ ____
ROOT
ATOM      1  C   UNL     1       4.394   2.321  17.153  0.00  0.00    +0.000 C 
ENDROOT
BRANCH   1   2
ATOM      2  O   UNL     1       4.906   3.651  17.212  0.00  0.00    +0.000 OA
BRANCH   2   8
ATOM      3  C   UNL     1       5.733   3.386  12.354  0.00  0.00    +0.000 C 
ATOM      4  C   UNL     1       6.051   4.019  13.679  0.00  0.00    +0.000 A 
ATOM      5  C   UNL     1       7.184   4.805  13.871  0.00  0.00    +0.000 A 
ATOM      6  C   UNL     1       7.532   5.224  15.158  0.00  0.00    +0.000 A 
ATOM      7  C   UNL     1       6.759   4.807  16.256  0.00  0.00    +0.000 A 
ATOM      8  C   UNL     1       5.603   4.046  16.092  0.00  0.00    +0.000 A 
ATOM      9  C   UNL     1       5.247   3.698  14.777  0.00  0.00    +0.000 A 
BRANCH   7  10
ATOM     10  N   UNL     1       7.226   5.147  17.585  0.00  0.00    +0.000 N 
ATOM     11  O   UNL     1       6.865   6.239  18.037  0.00  0.00    +0.000 OA
ATOM     12  O   UNL     1       8.000   4.362  18.140  0.00  0.00    +0.000 OA
ENDBRANCH   7  10
ENDBRANCH   2   8
ENDBRANCH   1   2
BRANCH   1  13
ATOM     13  C   UNL     1       3.167   2.081  18.031  0.00  0.00    +0.000 C 
BRANCH  13  14
ATOM     14  N   UNL     1       2.772   3.258  18.825  0.00  0.00    +0.000 NA
ATOM     15  C   UNL     1       2.038   2.959  20.073  0.00  0.00    +0.000 C 
ATOM     16  C   UNL     1       1.419   4.168  20.823  0.00  0.00    +0.000 C 
ATOM     17  C   UNL     1       1.624   5.499  20.147  0.00  0.00    +0.000 A 
ATOM     18  C   UNL     1       1.492   6.695  20.857  0.00  0.00    +0.000 A 
ATOM     19  C   UNL     1       1.823   7.903  20.243  0.00  0.00    +0.000 A 
ATOM     20  C   UNL     1       2.278   7.923  18.926  0.00  0.00    +0.000 A 
ATOM     21  C   UNL     1       2.346   6.741  18.192  0.00  0.00    +0.000 A 
ATOM     22  C   UNL     1       1.995   5.531  18.794  0.00  0.00    +0.000 A 
ATOM     23  C   UNL     1       2.029   4.235  18.033  0.00  0.00    +0.000 C 
ENDBRANCH  13  14
ENDBRANCH   1  13
TORSDOF 5
ENDMDL
MODEL 7
REMARK VINA RESULT:      -7.2      3.926      6.549
REMARK  Name = 
REMARK  6 active torsions:
REMARK  status: ('A' for Active; 'I' for Inactive)
REMARK    1  A    between atoms: C_1  and  C_2
REMARK    2  A    between atoms: C_5  and  N_6
REMARK    3  A    between atoms: C_9  and  O_10
REMARK    4  A    between atoms: O_10  and  C_11
REMARK    5  A    between atoms: C_11  and  C_12
REMARK    6  A    between atoms: C_12  and  N_13
REMARK                            x       y       z     vdW  Elec       q    Type
REMARK                         _______ _______ _______ _____ _____    ______ ____
ROOT
ATOM      1  C   UNL     1       1.783   8.428  17.847  0.00  0.00    +0.000 C 
ENDROOT
BRANCH   1   2
ATOM      2  O   UNL     1       1.597   9.543  18.717  0.00  0.00    +0.000 OA
BRANCH   2   8
ATOM      3  C   UNL     1      -2.773  10.015  16.473  0.00  0.00    +0.000 C 
ATOM      4  C   UNL     1      -1.803  10.502  17.512  0.00  0.00    +0.000 A 
ATOM      5  C   UNL     1      -1.940  11.742  18.130  0.00  0.00    +0.000 A 
ATOM      6  C   UNL     1      -0.921  12.226  18.955  0.00  0.00    +0.000 A 
ATOM      7  C   UNL     1       0.256  11.473  19.117  0.00  0.00    +0.000 A 
ATOM      8  C   UNL     1       0.408  10.216  18.538  0.00  0.00    +0.000 A 
ATOM      9  C   UNL     1      -0.664   9.732  17.767  0.00  0.00    +0.000 A 
BRANCH   7  10
ATOM     10  N   UNL     1       1.343  12.066  19.870  0.00  0.00    +0.000 N 
ATOM     11  O   UNL     1       2.172  12.718  19.226  0.00  0.00    +0.000 OA
ATOM     12  O   UNL     1       1.404  11.824  21.079  0.00  0.00    +0.000 OA
ENDBRANCH   7  10
ENDBRANCH   2   8
ENDBRANCH   1   2
BRANCH   1  13
ATOM     13  C   UNL     1       3.211   7.885  17.820  0.00  0.00    +0.000 C 
BRANCH  13  14
ATOM     14  N   UNL     1       3.363   6.593  18.511  0.00  0.00    +0.000 NA
ATOM     15  C   UNL     1       4.585   5.835  18.168  0.00  0.00    +0.000 C 
ATOM     16  C   UNL     1       4.676   4.382  18.705  0.00  0.00    +0.000 C 
ATOM     17  C   UNL     1       3.472   3.924  19.486  0.00  0.00    +0.000 A 
ATOM     18  C   UNL     1       3.548   2.830  20.353  0.00  0.00    +0.000 A 
ATOM     19  C   UNL     1       2.459   2.515  21.165  0.00  0.00    +0.000 A 
ATOM     20  C   UNL     1       1.295   3.280  21.112  0.00  0.00    +0.000 A 
ATOM     21  C   UNL     1       1.188   4.327  20.199  0.00  0.00    +0.000 A 
ATOM     22  C   UNL     1       2.267   4.634  19.368  0.00  0.00    +0.000 A 
ATOM     23  C   UNL     1       2.187   5.740  18.353  0.00  0.00    +0.000 C 
ENDBRANCH  13  14
ENDBRANCH   1  13
TORSDOF 5
ENDMDL
MODEL 8
REMARK VINA RESULT:      -7.2      3.528      5.926
REMARK  Name = 
REMARK  6 active torsions:
REMARK  status: ('A' for Active; 'I' for Inactive)
REMARK    1  A    between atoms: C_1  and  C_2
REMARK    2  A    between atoms: C_5  and  N_6
REMARK    3  A    between atoms: C_9  and  O_10
REMARK    4  A    between atoms: O_10  and  C_11
REMARK    5  A    between atoms: C_11  and  C_12
REMARK    6  A    between atoms: C_12  and  N_13
REMARK                            x       y       z     vdW  Elec       q    Type
REMARK                         _______ _______ _______ _____ _____    ______ ____
ROOT
ATOM      1  C   UNL     1       2.342   7.118  19.399  0.00  0.00    +0.000 C 
ENDROOT
BRANCH   1   2
ATOM      2  O   UNL     1       3.434   6.203  19.475  0.00  0.00    +0.000 OA
BRANCH   2   8
ATOM      3  C   UNL     1       0.559   2.255  18.768  0.00  0.00    +0.000 C 
ATOM      4  C   UNL     1       1.815   3.006  18.430  0.00  0.00    +0.000 A 
ATOM      5  C   UNL     1       2.868   2.415  17.737  0.00  0.00    +0.000 A 
ATOM      6  C   UNL     1       4.082   3.095  17.601  0.00  0.00    +0.000 A 
ATOM      7  C   UNL     1       4.244   4.352  18.209  0.00  0.00    +0.000 A 
ATOM      8  C   UNL     1       3.200   4.982  18.882  0.00  0.00    +0.000 A 
ATOM      9  C   UNL     1       1.972   4.298  18.943  0.00  0.00    +0.000 A 
BRANCH   7  10
ATOM     10  N   UNL     1       5.556   4.965  18.163  0.00  0.00    +0.000 N 
ATOM     11  O   UNL     1       5.780   5.726  17.215  0.00  0.00    +0.000 OA
ATOM     12  O   UNL     1       6.375   4.635  19.027  0.00  0.00    +0.000 OA
ENDBRANCH   7  10
ENDBRANCH   2   8
ENDBRANCH   1   2
BRANCH   1  13
ATOM     13  C   UNL     1       1.721   7.468  20.751  0.00  0.00    +0.000 C 
BRANCH  13  14
ATOM     14  N   UNL     1       0.872   8.672  20.715  0.00  0.00    +0.000 NA
ATOM     15  C   UNL     1       1.029   9.517  19.512  0.00  0.00    +0.000 C 
ATOM     16  C   UNL     1       0.318  10.896  19.533  0.00  0.00    +0.000 C 
ATOM     17  C   UNL     1      -0.416  11.205  20.812  0.00  0.00    +0.000 A 
ATOM     18  C   UNL     1      -1.409  12.187  20.854  0.00  0.00    +0.000 A 
ATOM     19  C   UNL     1      -2.167  12.355  22.012  0.00  0.00    +0.000 A 
ATOM     20  C   UNL     1      -1.934  11.555  23.129  0.00  0.00    +0.000 A 
ATOM     21  C   UNL     1      -0.899  10.622  23.117  0.00  0.00    +0.000 A 
ATOM     22  C   UNL     1      -0.123  10.464  21.968  0.00  0.00    +0.000 A 
ATOM     23  C   UNL     1       1.019   9.488  21.918  0.00  0.00    +0.000 C 
ENDBRANCH  13  14
ENDBRANCH   1  13
TORSDOF 5
ENDMDL
MODEL 9
REMARK VINA RESULT:      -7.2      3.507      5.722
REMARK  Name = 
REMARK  6 active torsions:
REMARK  status: ('A' for Active; 'I' for Inactive)
REMARK    1  A    between atoms: C_1  and  C_2
REMARK    2  A    between atoms: C_5  and  N_6
REMARK    3  A    between atoms: C_9  and  O_10
REMARK    4  A    between atoms: O_10  and  C_11
REMARK    5  A    between atoms: C_11  and  C_12
REMARK    6  A    between atoms: C_12  and  N_13
REMARK                            x       y       z     vdW  Elec       q    Type
REMARK                         _______ _______ _______ _____ _____    ______ ____
ROOT
ATOM      1  C   UNL     1       2.361   7.373  18.952  0.00  0.00    +0.000 C 
ENDROOT
BRANCH   1   2
ATOM      2  O   UNL     1       2.927   6.805  17.772  0.00  0.00    +0.000 OA
BRANCH   2   8
ATOM      3  C   UNL     1       0.784   2.485  18.823  0.00  0.00    +0.000 C 
ATOM      4  C   UNL     1       1.916   3.235  18.180  0.00  0.00    +0.000 A 
ATOM      5  C   UNL     1       3.089   2.603  17.776  0.00  0.00    +0.000 A 
ATOM      6  C   UNL     1       4.180   3.364  17.348  0.00  0.00    +0.000 A 
ATOM      7  C   UNL     1       4.099   4.767  17.375  0.00  0.00    +0.000 A 
ATOM      8  C   UNL     1       2.930   5.428  17.744  0.00  0.00    +0.000 A 
ATOM      9  C   UNL     1       1.830   4.629  18.107  0.00  0.00    +0.000 A 
BRANCH   7  10
ATOM     10  N   UNL     1       5.293   5.523  17.053  0.00  0.00    +0.000 N 
ATOM     11  O   UNL     1       5.487   5.773  15.859  0.00  0.00    +0.000 OA
ATOM     12  O   UNL     1       6.062   5.803  17.978  0.00  0.00    +0.000 OA
ENDBRANCH   7  10
ENDBRANCH   2   8
ENDBRANCH   1   2
BRANCH   1  13
ATOM     13  C   UNL     1       1.908   8.824  18.795  0.00  0.00    +0.000 C 
BRANCH  13  14
ATOM     14  N   UNL     1       1.178   9.342  19.965  0.00  0.00    +0.000 NA
ATOM     15  C   UNL     1       1.032   8.392  21.089  0.00  0.00    +0.000 C 
ATOM     16  C   UNL     1       0.090   8.821  22.245  0.00  0.00    +0.000 C 
ATOM     17  C   UNL     1      -0.586  10.152  22.044  0.00  0.00    +0.000 A 
ATOM     18  C   UNL     1      -1.131  10.853  23.123  0.00  0.00    +0.000 A 
ATOM     19  C   UNL     1      -1.625  12.143  22.930  0.00  0.00    +0.000 A 
ATOM     20  C   UNL     1      -1.584  12.732  21.667  0.00  0.00    +0.000 A 
ATOM     21  C   UNL     1      -1.106  12.011  20.575  0.00  0.00    +0.000 A 
ATOM     22  C   UNL     1      -0.630  10.712  20.758  0.00  0.00    +0.000 A 
ATOM     23  C   UNL     1      -0.129   9.889  19.604  0.00  0.00    +0.000 C 
ENDBRANCH  13  14
ENDBRANCH   1  13
TORSDOF 5
ENDMDL
