MODEL 1
REMARK VINA RESULT:      -8.3      0.000      0.000
REMARK  Name = 
REMARK  5 active torsions:
REMARK  status: ('A' for Active; 'I' for Inactive)
REMARK    1  A    between atoms: C_4  and  C_5
REMARK    2  A    between atoms: N_15  and  C_16
REMARK    3  A    between atoms: C_16  and  C_17
REMARK    4  A    between atoms: C_17  and  C_18
REMARK    5  A    between atoms: C_18  and  C_19
REMARK                            x       y       z     vdW  Elec       q    Type
REMARK                         _______ _______ _______ _____ _____    ______ ____
ROOT
ATOM      1  O   UNL     1       7.760   5.470  19.123  0.00  0.00    +0.000 OA
ATOM      2  C   UNL     1       7.773   6.574  18.601  0.00  0.00    +0.000 C 
ATOM      3  N   UNL     1       8.525   7.614  19.021  0.00  0.00    +0.000 N 
ATOM      4  C   UNL     1       8.238   8.697  18.269  0.00  0.00    +0.000 C 
ATOM      5  N   UNL     1       7.377   8.527  17.315  0.00  0.00    +0.000 NA
ATOM      6  C   UNL     1       6.987   7.079  17.397  0.00  0.00    +0.000 C 
ATOM      7  C   UNL     1       7.391   6.356  16.117  0.00  0.00    +0.000 C 
ATOM      8  C   UNL     1       6.865   4.914  16.103  0.00  0.00    +0.000 C 
ATOM      9  N   UNL     1       5.412   4.839  16.338  0.00  0.00    +0.000 NA
ATOM     10  C   UNL     1       5.017   5.543  17.570  0.00  0.00    +0.000 C 
ATOM     11  C   UNL     1       5.489   6.989  17.611  0.00  0.00    +0.000 C 
ATOM     12  H   UNL     1       9.111   7.559  19.840  0.00  0.00    +0.000 HD
ENDROOT
BRANCH   4  13
ATOM     13  C   UNL     1       8.894   9.968  18.581  0.00  0.00    +0.000 A 
ATOM     14  C   UNL     1       9.607  10.151  19.768  0.00  0.00    +0.000 A 
ATOM     15  C   UNL     1      10.212  11.378  20.013  0.00  0.00    +0.000 A 
ATOM     16  C   UNL     1      10.078  12.380  19.063  0.00  0.00    +0.000 A 
ATOM     17  N   UNL     1       9.394  12.232  17.907  0.00  0.00    +0.000 NA
ATOM     18  C   UNL     1       8.823  11.022  17.684  0.00  0.00    +0.000 A 
ENDBRANCH   4  13
BRANCH   9  19
ATOM     19  C   UNL     1       4.965   3.425  16.374  0.00  0.00    +0.000 C 
BRANCH  19  20
ATOM     20  C   UNL     1       3.562   3.282  16.983  0.00  0.00    +0.000 C 
BRANCH  20  21
ATOM     21  C   UNL     1       3.386   2.042  17.856  0.00  0.00    +0.000 C 
BRANCH  21  22
ATOM     22  C   UNL     1       2.664   2.415  19.135  0.00  0.00    +0.000 A 
ATOM     23  C   UNL     1       1.355   2.913  19.082  0.00  0.00    +0.000 A 
ATOM     24  C   UNL     1       0.697   3.303  20.251  0.00  0.00    +0.000 A 
ATOM     25  C   UNL     1       1.343   3.212  21.482  0.00  0.00    +0.000 A 
ATOM     26  C   UNL     1       2.651   2.735  21.545  0.00  0.00    +0.000 A 
ATOM     27  C   UNL     1       3.312   2.343  20.377  0.00  0.00    +0.000 A 
ENDBRANCH  21  22
ENDBRANCH  20  21
ENDBRANCH  19  20
ENDBRANCH   9  19
TORSDOF 5
ENDMDL
MODEL 2
REMARK VINA RESULT:      -8.1      4.357      6.965
REMARK  Name = 
REMARK  5 active torsions:
REMARK  status: ('A' for Active; 'I' for Inactive)
REMARK    1  A    between atoms: C_4  and  C_5
REMARK    2  A    between atoms: N_15  and  C_16
REMARK    3  A    between atoms: C_16  and  C_17
REMARK    4  A    between atoms: C_17  and  C_18
REMARK    5  A    between atoms: C_18  and  C_19
REMARK                            x       y       z     vdW  Elec       q    Type
REMARK                         _______ _______ _______ _____ _____    ______ ____
ROOT
ATOM      1  O   UNL     1       3.335   7.363  17.525  0.00  0.00    +0.000 OA
ATOM      2  C   UNL     1       2.667   7.318  18.547  0.00  0.00    +0.000 C 
ATOM      3  N   UNL     1       2.033   8.375  19.099  0.00  0.00    +0.000 N 
ATOM      4  C   UNL     1       1.456   7.988  20.255  0.00  0.00    +0.000 C 
ATOM      5  N   UNL     1       1.578   6.737  20.572  0.00  0.00    +0.000 NA
ATOM      6  C   UNL     1       2.371   6.128  19.451  0.00  0.00    +0.000 C 
ATOM      7  C   UNL     1       1.538   5.070  18.737  0.00  0.00    +0.000 C 
ATOM      8  C   UNL     1       2.372   4.318  17.690  0.00  0.00    +0.000 C 
ATOM      9  N   UNL     1       3.610   3.750  18.255  0.00  0.00    +0.000 NA
ATOM     10  C   UNL     1       4.414   4.768  18.953  0.00  0.00    +0.000 C 
ATOM     11  C   UNL     1       3.634   5.516  20.025  0.00  0.00    +0.000 C 
ATOM     12  H   UNL     1       2.106   9.306  18.717  0.00  0.00    +0.000 HD
ENDROOT
BRANCH   4  13
ATOM     13  C   UNL     1       0.757   8.988  21.065  0.00  0.00    +0.000 A 
ATOM     14  C   UNL     1      -0.091   9.934  20.486  0.00  0.00    +0.000 A 
ATOM     15  C   UNL     1      -0.732  10.859  21.303  0.00  0.00    +0.000 A 
ATOM     16  C   UNL     1      -0.495  10.807  22.669  0.00  0.00    +0.000 A 
ATOM     17  N   UNL     1       0.321   9.904  23.256  0.00  0.00    +0.000 NA
ATOM     18  C   UNL     1       0.925   9.004  22.441  0.00  0.00    +0.000 A 
ENDBRANCH   4  13
BRANCH   9  19
ATOM     19  C   UNL     1       4.407   3.086  17.195  0.00  0.00    +0.000 C 
BRANCH  19  20
ATOM     20  C   UNL     1       4.860   4.076  16.113  0.00  0.00    +0.000 C 
BRANCH  20  21
ATOM     21  C   UNL     1       6.371   4.116  15.898  0.00  0.00    +0.000 C 
BRANCH  21  22
ATOM     22  C   UNL     1       6.996   5.118  16.848  0.00  0.00    +0.000 A 
ATOM     23  C   UNL     1       7.637   4.675  18.012  0.00  0.00    +0.000 A 
ATOM     24  C   UNL     1       8.176   5.592  18.917  0.00  0.00    +0.000 A 
ATOM     25  C   UNL     1       8.072   6.960  18.674  0.00  0.00    +0.000 A 
ATOM     26  C   UNL     1       7.421   7.413  17.528  0.00  0.00    +0.000 A 
ATOM     27  C   UNL     1       6.881   6.498  16.621  0.00  0.00    +0.000 A 
ENDBRANCH  21  22
ENDBRANCH  20  21
ENDBRANCH  19  20
ENDBRANCH   9  19
TORSDOF 5
ENDMDL
MODEL 3
REMARK VINA RESULT:      -8.0      0.414      1.020
REMARK  Name = 
REMARK  5 active torsions:
REMARK  status: ('A' for Active; 'I' for Inactive)
REMARK    1  A    between atoms: C_4  and  C_5
REMARK    2  A    between atoms: N_15  and  C_16
REMARK    3  A    between atoms: C_16  and  C_17
REMARK    4  A    between atoms: C_17  and  C_18
REMARK    5  A    between atoms: C_18  and  C_19
REMARK                            x       y       z     vdW  Elec       q    Type
REMARK                         _______ _______ _______ _____ _____    ______ ____
ROOT
ATOM      1  O   UNL     1       7.763   5.397  19.044  0.00  0.00    +0.000 OA
ATOM      2  C   UNL     1       7.806   6.523  18.570  0.00  0.00    +0.000 C 
ATOM      3  N   UNL     1       8.562   7.532  19.053  0.00  0.00    +0.000 N 
ATOM      4  C   UNL     1       8.311   8.650  18.341  0.00  0.00    +0.000 C 
ATOM      5  N   UNL     1       7.473   8.535  17.359  0.00  0.00    +0.000 NA
ATOM      6  C   UNL     1       7.060   7.091  17.369  0.00  0.00    +0.000 C 
ATOM      7  C   UNL     1       7.486   6.417  16.070  0.00  0.00    +0.000 C 
ATOM      8  C   UNL     1       6.940   4.984  15.981  0.00  0.00    +0.000 C 
ATOM      9  N   UNL     1       5.480   4.923  16.176  0.00  0.00    +0.000 NA
ATOM     10  C   UNL     1       5.063   5.580  17.426  0.00  0.00    +0.000 C 
ATOM     11  C   UNL     1       5.555   7.016  17.541  0.00  0.00    +0.000 C 
ATOM     12  H   UNL     1       9.125   7.433  19.883  0.00  0.00    +0.000 HD
ENDROOT
BRANCH   4  13
ATOM     13  C   UNL     1       8.978   9.896  18.724  0.00  0.00    +0.000 A 
ATOM     14  C   UNL     1       9.281  10.184  20.056  0.00  0.00    +0.000 A 
ATOM     15  C   UNL     1       9.916  11.381  20.364  0.00  0.00    +0.000 A 
ATOM     16  C   UNL     1      10.221  12.250  19.327  0.00  0.00    +0.000 A 
ATOM     17  N   UNL     1       9.939  11.999  18.029  0.00  0.00    +0.000 NA
ATOM     18  C   UNL     1       9.330  10.819  17.752  0.00  0.00    +0.000 A 
ENDBRANCH   4  13
BRANCH   9  19
ATOM     19  C   UNL     1       5.011   3.516  16.139  0.00  0.00    +0.000 C 
BRANCH  19  20
ATOM     20  C   UNL     1       4.485   3.050  17.505  0.00  0.00    +0.000 C 
BRANCH  20  21
ATOM     21  C   UNL     1       2.987   2.756  17.529  0.00  0.00    +0.000 C 
BRANCH  21  22
ATOM     22  C   UNL     1       2.453   2.935  18.936  0.00  0.00    +0.000 A 
ATOM     23  C   UNL     1       3.207   2.499  20.033  0.00  0.00    +0.000 A 
ATOM     24  C   UNL     1       2.705   2.617  21.331  0.00  0.00    +0.000 A 
ATOM     25  C   UNL     1       1.441   3.163  21.545  0.00  0.00    +0.000 A 
ATOM     26  C   UNL     1       0.674   3.584  20.460  0.00  0.00    +0.000 A 
ATOM     27  C   UNL     1       1.175   3.467  19.160  0.00  0.00    +0.000 A 
ENDBRANCH  21  22
ENDBRANCH  20  21
ENDBRANCH  19  20
ENDBRANCH   9  19
TORSDOF 5
ENDMDL
MODEL 4
REMARK VINA RESULT:      -8.0      0.804      1.363
REMARK  Name = 
REMARK  5 active torsions:
REMARK  status: ('A' for Active; 'I' for Inactive)
REMARK    1  A    between atoms: C_4  and  C_5
REMARK    2  A    between atoms: N_15  and  C_16
REMARK    3  A    between atoms: C_16  and  C_17
REMARK    4  A    between atoms: C_17  and  C_18
REMARK    5  A    between atoms: C_18  and  C_19
REMARK                            x       y       z     vdW  Elec       q    Type
REMARK                         _______ _______ _______ _____ _____    ______ ____
ROOT
ATOM      1  O   UNL     1       7.700   5.399  19.283  0.00  0.00    +0.000 OA
ATOM      2  C   UNL     1       7.748   6.490  18.734  0.00  0.00    +0.000 C 
ATOM      3  N   UNL     1       8.562   7.502  19.105  0.00  0.00    +0.000 N 
ATOM      4  C   UNL     1       8.302   8.580  18.337  0.00  0.00    +0.000 C 
ATOM      5  N   UNL     1       7.404   8.431  17.415  0.00  0.00    +0.000 NA
ATOM      6  C   UNL     1       6.949   7.005  17.544  0.00  0.00    +0.000 C 
ATOM      7  C   UNL     1       7.277   6.235  16.269  0.00  0.00    +0.000 C 
ATOM      8  C   UNL     1       6.683   4.819  16.306  0.00  0.00    +0.000 C 
ATOM      9  N   UNL     1       5.237   4.820  16.588  0.00  0.00    +0.000 NA
ATOM     10  C   UNL     1       4.915   5.570  17.815  0.00  0.00    +0.000 C 
ATOM     11  C   UNL     1       5.456   6.992  17.806  0.00  0.00    +0.000 C 
ATOM     12  H   UNL     1       9.170   7.437  19.907  0.00  0.00    +0.000 HD
ENDROOT
BRANCH   4  13
ATOM     13  C   UNL     1       9.028   9.825  18.599  0.00  0.00    +0.000 A 
ATOM     14  C   UNL     1       9.433  10.666  17.561  0.00  0.00    +0.000 A 
ATOM     15  C   UNL     1      10.118  11.837  17.866  0.00  0.00    +0.000 A 
ATOM     16  C   UNL     1      10.376  12.121  19.199  0.00  0.00    +0.000 A 
ATOM     17  N   UNL     1       9.997  11.325  20.223  0.00  0.00    +0.000 NA
ATOM     18  C   UNL     1       9.320  10.194  19.902  0.00  0.00    +0.000 A 
ENDBRANCH   4  13
BRANCH   9  19
ATOM     19  C   UNL     1       4.724   3.430  16.671  0.00  0.00    +0.000 C 
BRANCH  19  20
ATOM     20  C   UNL     1       3.189   3.384  16.670  0.00  0.00    +0.000 C 
BRANCH  20  21
ATOM     21  C   UNL     1       2.596   2.340  17.613  0.00  0.00    +0.000 C 
BRANCH  21  22
ATOM     22  C   UNL     1       2.399   2.946  18.988  0.00  0.00    +0.000 A 
ATOM     23  C   UNL     1       2.825   2.253  20.128  0.00  0.00    +0.000 A 
ATOM     24  C   UNL     1       2.607   2.781  21.403  0.00  0.00    +0.000 A 
ATOM     25  C   UNL     1       1.952   4.001  21.552  0.00  0.00    +0.000 A 
ATOM     26  C   UNL     1       1.508   4.692  20.426  0.00  0.00    +0.000 A 
ATOM     27  C   UNL     1       1.725   4.166  19.149  0.00  0.00    +0.000 A 
ENDBRANCH  21  22
ENDBRANCH  20  21
ENDBRANCH  19  20
ENDBRANCH   9  19
TORSDOF 5
ENDMDL
MODEL 5
REMARK VINA RESULT:      -7.7      4.820      7.569
REMARK  Name = 
REMARK  5 active torsions:
REMARK  status: ('A' for Active; 'I' for Inactive)
REMARK    1  A    between atoms: C_4  and  C_5
REMARK    2  A    between atoms: N_15  and  C_16
REMARK    3  A    between atoms: C_16  and  C_17
REMARK    4  A    between atoms: C_17  and  C_18
REMARK    5  A    between atoms: C_18  and  C_19
REMARK                            x       y       z     vdW  Elec       q    Type
REMARK                         _______ _______ _______ _____ _____    ______ ____
ROOT
ATOM      1  O   UNL     1       3.084   7.617  17.475  0.00  0.00    +0.000 OA
ATOM      2  C   UNL     1       2.485   7.557  18.538  0.00  0.00    +0.000 C 
ATOM      3  N   UNL     1       1.822   8.587  19.106  0.00  0.00    +0.000 N 
ATOM      4  C   UNL     1       1.344   8.195  20.305  0.00  0.00    +0.000 C 
ATOM      5  N   UNL     1       1.563   6.963  20.641  0.00  0.00    +0.000 NA
ATOM      6  C   UNL     1       2.321   6.375  19.485  0.00  0.00    +0.000 C 
ATOM      7  C   UNL     1       1.513   5.250  18.849  0.00  0.00    +0.000 C 
ATOM      8  C   UNL     1       2.326   4.523  17.767  0.00  0.00    +0.000 C 
ATOM      9  N   UNL     1       3.629   4.047  18.264  0.00  0.00    +0.000 NA
ATOM     10  C   UNL     1       4.410   5.130  18.887  0.00  0.00    +0.000 C 
ATOM     11  C   UNL     1       3.653   5.856  19.990  0.00  0.00    +0.000 C 
ATOM     12  H   UNL     1       1.812   9.510  18.700  0.00  0.00    +0.000 HD
ENDROOT
BRANCH   4  13
ATOM     13  C   UNL     1       0.636   9.171  21.136  0.00  0.00    +0.000 A 
ATOM     14  C   UNL     1      -0.160  10.170  20.573  0.00  0.00    +0.000 A 
ATOM     15  C   UNL     1      -0.812  11.070  21.409  0.00  0.00    +0.000 A 
ATOM     16  C   UNL     1      -0.640  10.939  22.779  0.00  0.00    +0.000 A 
ATOM     17  N   UNL     1       0.125   9.983  23.352  0.00  0.00    +0.000 NA
ATOM     18  C   UNL     1       0.741   9.109  22.517  0.00  0.00    +0.000 A 
ENDBRANCH   4  13
BRANCH   9  19
ATOM     19  C   UNL     1       4.399   3.406  17.170  0.00  0.00    +0.000 C 
BRANCH  19  20
ATOM     20  C   UNL     1       4.919   4.434  16.155  0.00  0.00    +0.000 C 
BRANCH  20  21
ATOM     21  C   UNL     1       6.421   4.348  15.894  0.00  0.00    +0.000 C 
BRANCH  21  22
ATOM     22  C   UNL     1       6.685   4.402  14.403  0.00  0.00    +0.000 A 
ATOM     23  C   UNL     1       6.053   3.492  13.545  0.00  0.00    +0.000 A 
ATOM     24  C   UNL     1       6.324   3.503  12.175  0.00  0.00    +0.000 A 
ATOM     25  C   UNL     1       7.237   4.415  11.650  0.00  0.00    +0.000 A 
ATOM     26  C   UNL     1       7.885   5.313  12.495  0.00  0.00    +0.000 A 
ATOM     27  C   UNL     1       7.615   5.305  13.866  0.00  0.00    +0.000 A 
ENDBRANCH  21  22
ENDBRANCH  20  21
ENDBRANCH  19  20
ENDBRANCH   9  19
TORSDOF 5
ENDMDL
MODEL 6
REMARK VINA RESULT:      -7.5      4.786      7.382
REMARK  Name = 
REMARK  5 active torsions:
REMARK  status: ('A' for Active; 'I' for Inactive)
REMARK    1  A    between atoms: C_4  and  C_5
REMARK    2  A    between atoms: N_15  and  C_16
REMARK    3  A    between atoms: C_16  and  C_17
REMARK    4  A    between atoms: C_17  and  C_18
REMARK    5  A    between atoms: C_18  and  C_19
REMARK                            x       y       z     vdW  Elec       q    Type
REMARK                         _______ _______ _______ _____ _____    ______ ____
ROOT
ATOM      1  O   UNL     1       3.423   7.465  17.428  0.00  0.00    +0.000 OA
ATOM      2  C   UNL     1       2.751   7.402  18.446  0.00  0.00    +0.000 C 
ATOM      3  N   UNL     1       2.075   8.437  18.987  0.00  0.00    +0.000 N 
ATOM      4  C   UNL     1       1.506   8.037  20.142  0.00  0.00    +0.000 C 
ATOM      5  N   UNL     1       1.674   6.794  20.470  0.00  0.00    +0.000 NA
ATOM      6  C   UNL     1       2.496   6.208  19.358  0.00  0.00    +0.000 C 
ATOM      7  C   UNL     1       1.708   5.113  18.647  0.00  0.00    +0.000 C 
ATOM      8  C   UNL     1       2.577   4.386  17.611  0.00  0.00    +0.000 C 
ATOM      9  N   UNL     1       3.832   3.871  18.187  0.00  0.00    +0.000 NA
ATOM     10  C   UNL     1       4.592   4.923  18.882  0.00  0.00    +0.000 C 
ATOM     11  C   UNL     1       3.778   5.648  19.943  0.00  0.00    +0.000 C 
ATOM     12  H   UNL     1       2.114   9.367  18.598  0.00  0.00    +0.000 HD
ENDROOT
BRANCH   4  13
ATOM     13  C   UNL     1       0.765   9.015  20.941  0.00  0.00    +0.000 A 
ATOM     14  C   UNL     1       0.570   8.842  22.313  0.00  0.00    +0.000 A 
ATOM     15  C   UNL     1      -0.141   9.803  23.023  0.00  0.00    +0.000 A 
ATOM     16  C   UNL     1      -0.636  10.900  22.333  0.00  0.00    +0.000 A 
ATOM     17  N   UNL     1      -0.465  11.092  21.006  0.00  0.00    +0.000 NA
ATOM     18  C   UNL     1       0.242  10.148  20.337  0.00  0.00    +0.000 A 
ENDBRANCH   4  13
BRANCH   9  19
ATOM     19  C   UNL     1       4.660   3.230  17.136  0.00  0.00    +0.000 C 
BRANCH  19  20
ATOM     20  C   UNL     1       5.812   4.137  16.680  0.00  0.00    +0.000 C 
BRANCH  20  21
ATOM     21  C   UNL     1       5.435   5.114  15.569  0.00  0.00    +0.000 C 
BRANCH  21  22
ATOM     22  C   UNL     1       6.032   4.651  14.256  0.00  0.00    +0.000 A 
ATOM     23  C   UNL     1       7.233   5.207  13.797  0.00  0.00    +0.000 A 
ATOM     24  C   UNL     1       7.769   4.821  12.566  0.00  0.00    +0.000 A 
ATOM     25  C   UNL     1       7.105   3.884  11.777  0.00  0.00    +0.000 A 
ATOM     26  C   UNL     1       5.901   3.337  12.214  0.00  0.00    +0.000 A 
ATOM     27  C   UNL     1       5.363   3.721  13.446  0.00  0.00    +0.000 A 
ENDBRANCH  21  22
ENDBRANCH  20  21
ENDBRANCH  19  20
ENDBRANCH   9  19
TORSDOF 5
ENDMDL
MODEL 7
REMARK VINA RESULT:      -7.4      4.392      6.833
REMARK  Name = 
REMARK  5 active torsions:
REMARK  status: ('A' for Active; 'I' for Inactive)
REMARK    1  A    between atoms: C_4  and  C_5
REMARK    2  A    between atoms: N_15  and  C_16
REMARK    3  A    between atoms: C_16  and  C_17
REMARK    4  A    between atoms: C_17  and  C_18
REMARK    5  A    between atoms: C_18  and  C_19
REMARK                            x       y       z     vdW  Elec       q    Type
REMARK                         _______ _______ _______ _____ _____    ______ ____
ROOT
ATOM      1  O   UNL     1       4.053   7.104  17.513  0.00  0.00    +0.000 OA
ATOM      2  C   UNL     1       4.438   6.088  16.954  0.00  0.00    +0.000 C 
ATOM      3  N   UNL     1       5.147   6.065  15.805  0.00  0.00    +0.000 N 
ATOM      4  C   UNL     1       5.338   4.783  15.432  0.00  0.00    +0.000 C 
ATOM      5  N   UNL     1       4.868   3.872  16.226  0.00  0.00    +0.000 NA
ATOM      6  C   UNL     1       4.241   4.633  17.359  0.00  0.00    +0.000 C 
ATOM      7  C   UNL     1       4.957   4.309  18.665  0.00  0.00    +0.000 C 
ATOM      8  C   UNL     1       4.241   4.945  19.865  0.00  0.00    +0.000 C 
ATOM      9  N   UNL     1       2.811   4.592  19.923  0.00  0.00    +0.000 NA
ATOM     10  C   UNL     1       2.117   4.896  18.660  0.00  0.00    +0.000 C 
ATOM     11  C   UNL     1       2.775   4.255  17.446  0.00  0.00    +0.000 C 
ATOM     12  H   UNL     1       5.376   6.905  15.297  0.00  0.00    +0.000 HD
ENDROOT
BRANCH   4  13
ATOM     13  C   UNL     1       6.037   4.510  14.174  0.00  0.00    +0.000 A 
ATOM     14  C   UNL     1       5.550   3.579  13.254  0.00  0.00    +0.000 A 
ATOM     15  C   UNL     1       6.253   3.360  12.075  0.00  0.00    +0.000 A 
ATOM     16  C   UNL     1       7.420   4.077  11.861  0.00  0.00    +0.000 A 
ATOM     17  N   UNL     1       7.916   4.982  12.734  0.00  0.00    +0.000 NA
ATOM     18  C   UNL     1       7.207   5.188  13.872  0.00  0.00    +0.000 A 
ENDBRANCH   4  13
BRANCH   9  19
ATOM     19  C   UNL     1       2.153   5.276  21.063  0.00  0.00    +0.000 C 
BRANCH  19  20
ATOM     20  C   UNL     1       1.202   6.387  20.594  0.00  0.00    +0.000 C 
BRANCH  20  21
ATOM     21  C   UNL     1       1.855   7.763  20.489  0.00  0.00    +0.000 C 
BRANCH  21  22
ATOM     22  C   UNL     1       0.928   8.815  21.064  0.00  0.00    +0.000 A 
ATOM     23  C   UNL     1       0.515   9.895  20.273  0.00  0.00    +0.000 A 
ATOM     24  C   UNL     1      -0.301  10.894  20.807  0.00  0.00    +0.000 A 
ATOM     25  C   UNL     1      -0.705  10.830  22.139  0.00  0.00    +0.000 A 
ATOM     26  C   UNL     1      -0.287   9.770  22.941  0.00  0.00    +0.000 A 
ATOM     27  C   UNL     1       0.531   8.769  22.409  0.00  0.00    +0.000 A 
ENDBRANCH  21  22
ENDBRANCH  20  21
ENDBRANCH  19  20
ENDBRANCH   9  19
TORSDOF 5
ENDMDL
MODEL 8
REMARK VINA RESULT:      -7.3      4.306      6.728
REMARK  Name = 
REMARK  5 active torsions:
REMARK  status: ('A' for Active; 'I' for Inactive)
REMARK    1  A    between atoms: C_4  and  C_5
REMARK    2  A    between atoms: N_15  and  C_16
REMARK    3  A    between atoms: C_16  and  C_17
REMARK    4  A    between atoms: C_17  and  C_18
REMARK    5  A    between atoms: C_18  and  C_19
REMARK                            x       y       z     vdW  Elec       q    Type
REMARK                         _______ _______ _______ _____ _____    ______ ____
ROOT
ATOM      1  O   UNL     1       4.212   6.942  17.712  0.00  0.00    +0.000 OA
ATOM      2  C   UNL     1       4.570   5.962  17.076  0.00  0.00    +0.000 C 
ATOM      3  N   UNL     1       5.306   6.007  15.945  0.00  0.00    +0.000 N 
ATOM      4  C   UNL     1       5.454   4.755  15.466  0.00  0.00    +0.000 C 
ATOM      5  N   UNL     1       4.929   3.801  16.168  0.00  0.00    +0.000 NA
ATOM      6  C   UNL     1       4.305   4.487  17.350  0.00  0.00    +0.000 C 
ATOM      7  C   UNL     1       4.975   4.023  18.638  0.00  0.00    +0.000 C 
ATOM      8  C   UNL     1       4.256   4.584  19.873  0.00  0.00    +0.000 C 
ATOM      9  N   UNL     1       2.812   4.287  19.870  0.00  0.00    +0.000 NA
ATOM     10  C   UNL     1       2.162   4.727  18.623  0.00  0.00    +0.000 C 
ATOM     11  C   UNL     1       2.823   4.165  17.373  0.00  0.00    +0.000 C 
ATOM     12  H   UNL     1       5.580   6.877  15.516  0.00  0.00    +0.000 HD
ENDROOT
BRANCH   4  13
ATOM     13  C   UNL     1       6.172   4.561  14.205  0.00  0.00    +0.000 A 
ATOM     14  C   UNL     1       7.306   5.311  13.886  0.00  0.00    +0.000 A 
ATOM     15  C   UNL     1       7.950   5.085  12.675  0.00  0.00    +0.000 A 
ATOM     16  C   UNL     1       7.433   4.120  11.824  0.00  0.00    +0.000 A 
ATOM     17  N   UNL     1       6.337   3.380  12.105  0.00  0.00    +0.000 NA
ATOM     18  C   UNL     1       5.733   3.609  13.297  0.00  0.00    +0.000 A 
ENDBRANCH   4  13
BRANCH   9  19
ATOM     19  C   UNL     1       2.154   4.898  21.051  0.00  0.00    +0.000 C 
BRANCH  19  20
ATOM     20  C   UNL     1       1.261   6.085  20.660  0.00  0.00    +0.000 C 
BRANCH  20  21
ATOM     21  C   UNL     1       1.806   7.444  21.091  0.00  0.00    +0.000 C 
BRANCH  21  22
ATOM     22  C   UNL     1       1.184   8.537  20.245  0.00  0.00    +0.000 A 
ATOM     23  C   UNL     1       1.630   8.748  18.934  0.00  0.00    +0.000 A 
ATOM     24  C   UNL     1       1.096   9.782  18.161  0.00  0.00    +0.000 A 
ATOM     25  C   UNL     1       0.119  10.620  18.693  0.00  0.00    +0.000 A 
ATOM     26  C   UNL     1      -0.320  10.431  20.002  0.00  0.00    +0.000 A 
ATOM     27  C   UNL     1       0.213   9.397  20.777  0.00  0.00    +0.000 A 
ENDBRANCH  21  22
ENDBRANCH  20  21
ENDBRANCH  19  20
ENDBRANCH   9  19
TORSDOF 5
ENDMDL
MODEL 9
REMARK VINA RESULT:      -7.3      4.384      6.843
REMARK  Name = 
REMARK  5 active torsions:
REMARK  status: ('A' for Active; 'I' for Inactive)
REMARK    1  A    between atoms: C_4  and  C_5
REMARK    2  A    between atoms: N_15  and  C_16
REMARK    3  A    between atoms: C_16  and  C_17
REMARK    4  A    between atoms: C_17  and  C_18
REMARK    5  A    between atoms: C_18  and  C_19
REMARK                            x       y       z     vdW  Elec       q    Type
REMARK                         _______ _______ _______ _____ _____    ______ ____
ROOT
ATOM      1  O   UNL     1       4.122   7.053  17.493  0.00  0.00    +0.000 OA
ATOM      2  C   UNL     1       4.497   6.040  16.922  0.00  0.00    +0.000 C 
ATOM      3  N   UNL     1       5.202   6.023  15.770  0.00  0.00    +0.000 N 
ATOM      4  C   UNL     1       5.380   4.743  15.383  0.00  0.00    +0.000 C 
ATOM      5  N   UNL     1       4.906   3.828  16.170  0.00  0.00    +0.000 NA
ATOM      6  C   UNL     1       4.289   4.582  17.313  0.00  0.00    +0.000 C 
ATOM      7  C   UNL     1       5.007   4.239  18.613  0.00  0.00    +0.000 C 
ATOM      8  C   UNL     1       4.301   4.869  19.822  0.00  0.00    +0.000 C 
ATOM      9  N   UNL     1       2.868   4.526  19.881  0.00  0.00    +0.000 NA
ATOM     10  C   UNL     1       2.172   4.849  18.624  0.00  0.00    +0.000 C 
ATOM     11  C   UNL     1       2.820   4.216  17.402  0.00  0.00    +0.000 C 
ATOM     12  H   UNL     1       5.436   6.866  15.270  0.00  0.00    +0.000 HD
ENDROOT
BRANCH   4  13
ATOM     13  C   UNL     1       6.072   4.478  14.120  0.00  0.00    +0.000 A 
ATOM     14  C   UNL     1       5.590   3.539  13.206  0.00  0.00    +0.000 A 
ATOM     15  C   UNL     1       6.287   3.328  12.021  0.00  0.00    +0.000 A 
ATOM     16  C   UNL     1       7.443   4.060  11.797  0.00  0.00    +0.000 A 
ATOM     17  N   UNL     1       7.934   4.973  12.664  0.00  0.00    +0.000 NA
ATOM     18  C   UNL     1       7.232   5.171  13.807  0.00  0.00    +0.000 A 
ENDBRANCH   4  13
BRANCH   9  19
ATOM     19  C   UNL     1       2.220   5.204  21.031  0.00  0.00    +0.000 C 
BRANCH  19  20
ATOM     20  C   UNL     1       1.206   6.263  20.575  0.00  0.00    +0.000 C 
BRANCH  20  21
ATOM     21  C   UNL     1       1.296   7.582  21.339  0.00  0.00    +0.000 C 
BRANCH  21  22
ATOM     22  C   UNL     1       1.219   8.742  20.368  0.00  0.00    +0.000 A 
ATOM     23  C   UNL     1       1.665   8.584  19.049  0.00  0.00    +0.000 A 
ATOM     24  C   UNL     1       1.642   9.659  18.159  0.00  0.00    +0.000 A 
ATOM     25  C   UNL     1       1.184  10.906  18.579  0.00  0.00    +0.000 A 
ATOM     26  C   UNL     1       0.755  11.081  19.893  0.00  0.00    +0.000 A 
ATOM     27  C   UNL     1       0.776  10.006  20.786  0.00  0.00    +0.000 A 
ENDBRANCH  21  22
ENDBRANCH  20  21
ENDBRANCH  19  20
ENDBRANCH   9  19
TORSDOF 5
ENDMDL
