MODEL 1
REMARK VINA RESULT:      -7.8      0.000      0.000
REMARK  Name = 
REMARK  5 active torsions:
REMARK  status: ('A' for Active; 'I' for Inactive)
REMARK    1  A    between atoms: S_2  and  C_4
REMARK    2  A    between atoms: S_2  and  N_10
REMARK    3  A    between atoms: C_15  and  C_16
REMARK    4  A    between atoms: C_16  and  C_17
REMARK    5  A    between atoms: C_17  and  N_18
REMARK                            x       y       z     vdW  Elec       q    Type
REMARK                         _______ _______ _______ _____ _____    ______ ____
ROOT
ATOM      1  N   UNL     1       5.564   5.921  17.106  0.00  0.00    +0.000 NA
ATOM      2  C   UNL     1       4.581   6.816  16.463  0.00  0.00    +0.000 C 
ATOM      3  C   UNL     1       3.675   7.459  17.532  0.00  0.00    +0.000 C 
ATOM      4  C   UNL     1       3.044   6.453  18.491  0.00  0.00    +0.000 C 
ATOM      5  C   UNL     1       4.118   5.534  19.074  0.00  0.00    +0.000 C 
ATOM      6  C   UNL     1       4.933   4.838  17.958  0.00  0.00    +0.000 C 
ENDROOT
BRANCH   1   8
ATOM      7  O   UNL     1       7.586   4.312  16.923  0.00  0.00    +0.000 OA
ATOM      8  S   UNL     1       7.036   5.506  16.325  0.00  0.00    +0.000 S 
ATOM      9  O   UNL     1       7.839   6.712  16.315  0.00  0.00    +0.000 OA
BRANCH   8  10
ATOM     10  C   UNL     1       6.744   5.068  14.648  0.00  0.00    +0.000 A 
ATOM     11  C   UNL     1       5.770   4.106  14.344  0.00  0.00    +0.000 A 
ATOM     12  C   UNL     1       5.785   3.479  13.103  0.00  0.00    +0.000 A 
ATOM     13  C   UNL     1       6.762   3.857  12.198  0.00  0.00    +0.000 A 
ATOM     14  N   UNL     1       7.690   4.812  12.447  0.00  0.00    +0.000 NA
ATOM     15  C   UNL     1       7.682   5.379  13.683  0.00  0.00    +0.000 A 
ENDBRANCH   8  10
ENDBRANCH   1   8
BRANCH   6  16
ATOM     16  C   UNL     1       3.984   3.838  17.233  0.00  0.00    +0.000 C 
BRANCH  16  17
ATOM     17  C   UNL     1       2.545   3.794  17.728  0.00  0.00    +0.000 C 
BRANCH  17  18
ATOM     18  N   UNL     1       2.076   2.503  18.249  0.00  0.00    +0.000 NA
ATOM     19  C   UNL     1       0.817   2.536  19.007  0.00  0.00    +0.000 C 
ATOM     20  C   UNL     1       0.932   3.069  20.445  0.00  0.00    +0.000 C 
ATOM     21  O   UNL     1       1.961   2.403  21.186  0.00  0.00    +0.000 OA
ATOM     22  C   UNL     1       3.219   2.515  20.509  0.00  0.00    +0.000 C 
ATOM     23  C   UNL     1       3.134   1.901  19.103  0.00  0.00    +0.000 C 
ENDBRANCH  17  18
ENDBRANCH  16  17
ENDBRANCH   6  16
TORSDOF 5
ENDMDL
MODEL 2
REMARK VINA RESULT:      -7.7      3.032      4.485
REMARK  Name = 
REMARK  5 active torsions:
REMARK  status: ('A' for Active; 'I' for Inactive)
REMARK    1  A    between atoms: S_2  and  C_4
REMARK    2  A    between atoms: S_2  and  N_10
REMARK    3  A    between atoms: C_15  and  C_16
REMARK    4  A    between atoms: C_16  and  C_17
REMARK    5  A    between atoms: C_17  and  N_18
REMARK                            x       y       z     vdW  Elec       q    Type
REMARK                         _______ _______ _______ _____ _____    ______ ____
ROOT
ATOM      1  N   UNL     1       3.845   3.972  18.509  0.00  0.00    +0.000 NA
ATOM      2  C   UNL     1       3.831   2.673  19.209  0.00  0.00    +0.000 C 
ATOM      3  C   UNL     1       2.640   1.823  18.723  0.00  0.00    +0.000 C 
ATOM      4  C   UNL     1       1.301   2.555  18.773  0.00  0.00    +0.000 C 
ATOM      5  C   UNL     1       1.412   3.909  18.073  0.00  0.00    +0.000 C 
ATOM      6  C   UNL     1       2.559   4.760  18.667  0.00  0.00    +0.000 C 
ENDROOT
BRANCH   1   8
ATOM      7  O   UNL     1       6.380   4.190  18.996  0.00  0.00    +0.000 OA
ATOM      8  S   UNL     1       5.285   4.897  18.374  0.00  0.00    +0.000 S 
ATOM      9  O   UNL     1       4.956   6.226  18.850  0.00  0.00    +0.000 OA
BRANCH   8  10
ATOM     10  C   UNL     1       5.761   5.059  16.689  0.00  0.00    +0.000 A 
ATOM     11  C   UNL     1       5.054   4.358  15.701  0.00  0.00    +0.000 A 
ATOM     12  C   UNL     1       5.627   4.168  14.449  0.00  0.00    +0.000 A 
ATOM     13  C   UNL     1       6.881   4.709  14.221  0.00  0.00    +0.000 A 
ATOM     14  N   UNL     1       7.571   5.424  15.142  0.00  0.00    +0.000 NA
ATOM     15  C   UNL     1       7.009   5.559  16.372  0.00  0.00    +0.000 A 
ENDBRANCH   8  10
ENDBRANCH   1   8
BRANCH   6  16
ATOM     16  C   UNL     1       2.152   5.158  20.116  0.00  0.00    +0.000 C 
BRANCH  16  17
ATOM     17  C   UNL     1       1.267   6.390  20.254  0.00  0.00    +0.000 C 
BRANCH  17  18
ATOM     18  N   UNL     1       1.961   7.668  20.461  0.00  0.00    +0.000 NA
ATOM     19  C   UNL     1       1.351   8.578  21.441  0.00  0.00    +0.000 C 
ATOM     20  C   UNL     1       0.110   9.338  20.943  0.00  0.00    +0.000 C 
ATOM     21  O   UNL     1       0.350  10.007  19.700  0.00  0.00    +0.000 OA
ATOM     22  C   UNL     1       0.797   9.075  18.707  0.00  0.00    +0.000 C 
ATOM     23  C   UNL     1       2.089   8.378  19.161  0.00  0.00    +0.000 C 
ENDBRANCH  17  18
ENDBRANCH  16  17
ENDBRANCH   6  16
TORSDOF 5
ENDMDL
MODEL 3
REMARK VINA RESULT:      -7.6      2.094      2.714
REMARK  Name = 
REMARK  5 active torsions:
REMARK  status: ('A' for Active; 'I' for Inactive)
REMARK    1  A    between atoms: S_2  and  C_4
REMARK    2  A    between atoms: S_2  and  N_10
REMARK    3  A    between atoms: C_15  and  C_16
REMARK    4  A    between atoms: C_16  and  C_17
REMARK    5  A    between atoms: C_17  and  N_18
REMARK                            x       y       z     vdW  Elec       q    Type
REMARK                         _______ _______ _______ _____ _____    ______ ____
ROOT
ATOM      1  N   UNL     1       6.474   5.910  16.965  0.00  0.00    +0.000 NA
ATOM      2  C   UNL     1       6.741   7.287  17.427  0.00  0.00    +0.000 C 
ATOM      3  C   UNL     1       8.083   7.340  18.183  0.00  0.00    +0.000 C 
ATOM      4  C   UNL     1       8.210   6.293  19.287  0.00  0.00    +0.000 C 
ATOM      5  C   UNL     1       7.869   4.906  18.742  0.00  0.00    +0.000 C 
ATOM      6  C   UNL     1       6.470   4.886  18.083  0.00  0.00    +0.000 C 
ENDROOT
BRANCH   1   8
ATOM      7  O   UNL     1       4.971   6.849  15.075  0.00  0.00    +0.000 OA
ATOM      8  S   UNL     1       5.411   5.600  15.653  0.00  0.00    +0.000 S 
ATOM      9  O   UNL     1       4.413   4.677  16.154  0.00  0.00    +0.000 OA
BRANCH   8  10
ATOM     10  C   UNL     1       6.259   4.782  14.349  0.00  0.00    +0.000 A 
ATOM     11  C   UNL     1       7.403   5.372  13.791  0.00  0.00    +0.000 A 
ATOM     12  C   UNL     1       7.855   4.954  12.545  0.00  0.00    +0.000 A 
ATOM     13  C   UNL     1       7.159   3.938  11.910  0.00  0.00    +0.000 A 
ATOM     14  N   UNL     1       6.076   3.322  12.442  0.00  0.00    +0.000 NA
ATOM     15  C   UNL     1       5.628   3.778  13.641  0.00  0.00    +0.000 A 
ENDBRANCH   8  10
ENDBRANCH   1   8
BRANCH   6  16
ATOM     16  C   UNL     1       5.413   5.079  19.209  0.00  0.00    +0.000 C 
BRANCH  16  17
ATOM     17  C   UNL     1       4.357   3.988  19.337  0.00  0.00    +0.000 C 
BRANCH  17  18
ATOM     18  N   UNL     1       2.959   4.438  19.371  0.00  0.00    +0.000 NA
ATOM     19  C   UNL     1       2.411   4.729  20.703  0.00  0.00    +0.000 C 
ATOM     20  C   UNL     1       2.028   3.496  21.537  0.00  0.00    +0.000 C 
ATOM     21  O   UNL     1       1.176   2.600  20.815  0.00  0.00    +0.000 OA
ATOM     22  C   UNL     1       1.795   2.200  19.586  0.00  0.00    +0.000 C 
ATOM     23  C   UNL     1       2.097   3.425  18.709  0.00  0.00    +0.000 C 
ENDBRANCH  17  18
ENDBRANCH  16  17
ENDBRANCH   6  16
TORSDOF 5
ENDMDL
MODEL 4
REMARK VINA RESULT:      -7.5      2.126      2.843
REMARK  Name = 
REMARK  5 active torsions:
REMARK  status: ('A' for Active; 'I' for Inactive)
REMARK    1  A    between atoms: S_2  and  C_4
REMARK    2  A    between atoms: S_2  and  N_10
REMARK    3  A    between atoms: C_15  and  C_16
REMARK    4  A    between atoms: C_16  and  C_17
REMARK    5  A    between atoms: C_17  and  N_18
REMARK                            x       y       z     vdW  Elec       q    Type
REMARK                         _______ _______ _______ _____ _____    ______ ____
ROOT
ATOM      1  N   UNL     1       6.451   5.859  16.920  0.00  0.00    +0.000 NA
ATOM      2  C   UNL     1       6.680   7.219  17.449  0.00  0.00    +0.000 C 
ATOM      3  C   UNL     1       8.006   7.263  18.234  0.00  0.00    +0.000 C 
ATOM      4  C   UNL     1       8.132   6.170  19.293  0.00  0.00    +0.000 C 
ATOM      5  C   UNL     1       7.832   4.803  18.679  0.00  0.00    +0.000 C 
ATOM      6  C   UNL     1       6.447   4.784  17.990  0.00  0.00    +0.000 C 
ENDROOT
BRANCH   1   8
ATOM      7  O   UNL     1       5.010   6.853  15.011  0.00  0.00    +0.000 OA
ATOM      8  S   UNL     1       5.421   5.588  15.574  0.00  0.00    +0.000 S 
ATOM      9  O   UNL     1       4.400   4.665  16.028  0.00  0.00    +0.000 OA
BRANCH   8  10
ATOM     10  C   UNL     1       6.296   4.788  14.276  0.00  0.00    +0.000 A 
ATOM     11  C   UNL     1       7.426   5.405  13.722  0.00  0.00    +0.000 A 
ATOM     12  C   UNL     1       7.895   4.995  12.479  0.00  0.00    +0.000 A 
ATOM     13  C   UNL     1       7.228   3.961  11.844  0.00  0.00    +0.000 A 
ATOM     14  N   UNL     1       6.158   3.318  12.372  0.00  0.00    +0.000 NA
ATOM     15  C   UNL     1       5.693   3.767  13.567  0.00  0.00    +0.000 A 
ENDBRANCH   8  10
ENDBRANCH   1   8
BRANCH   6  16
ATOM     16  C   UNL     1       5.363   4.905  19.102  0.00  0.00    +0.000 C 
BRANCH  16  17
ATOM     17  C   UNL     1       4.489   3.678  19.327  0.00  0.00    +0.000 C 
BRANCH  17  18
ATOM     18  N   UNL     1       3.178   3.920  19.944  0.00  0.00    +0.000 NA
ATOM     19  C   UNL     1       2.389   2.722  20.263  0.00  0.00    +0.000 C 
ATOM     20  C   UNL     1       1.696   2.056  19.063  0.00  0.00    +0.000 C 
ATOM     21  O   UNL     1       0.925   2.990  18.299  0.00  0.00    +0.000 OA
ATOM     22  C   UNL     1       1.748   4.078  17.860  0.00  0.00    +0.000 C 
ATOM     23  C   UNL     1       2.371   4.804  19.063  0.00  0.00    +0.000 C 
ENDBRANCH  17  18
ENDBRANCH  16  17
ENDBRANCH   6  16
TORSDOF 5
ENDMDL
MODEL 5
REMARK VINA RESULT:      -7.4      1.354      1.617
REMARK  Name = 
REMARK  5 active torsions:
REMARK  status: ('A' for Active; 'I' for Inactive)
REMARK    1  A    between atoms: S_2  and  C_4
REMARK    2  A    between atoms: S_2  and  N_10
REMARK    3  A    between atoms: C_15  and  C_16
REMARK    4  A    between atoms: C_16  and  C_17
REMARK    5  A    between atoms: C_17  and  N_18
REMARK                            x       y       z     vdW  Elec       q    Type
REMARK                         _______ _______ _______ _____ _____    ______ ____
ROOT
ATOM      1  N   UNL     1       4.266   6.392  18.174  0.00  0.00    +0.000 NA
ATOM      2  C   UNL     1       3.835   7.403  17.187  0.00  0.00    +0.000 C 
ATOM      3  C   UNL     1       2.945   8.460  17.869  0.00  0.00    +0.000 C 
ATOM      4  C   UNL     1       1.792   7.868  18.676  0.00  0.00    +0.000 C 
ATOM      5  C   UNL     1       2.314   6.798  19.635  0.00  0.00    +0.000 C 
ATOM      6  C   UNL     1       3.115   5.708  18.884  0.00  0.00    +0.000 C 
ENDROOT
BRANCH   1   8
ATOM      7  O   UNL     1       5.435   4.089  18.380  0.00  0.00    +0.000 OA
ATOM      8  S   UNL     1       5.669   5.436  17.915  0.00  0.00    +0.000 S 
ATOM      9  O   UNL     1       6.774   6.184  18.480  0.00  0.00    +0.000 OA
BRANCH   8  10
ATOM     10  C   UNL     1       5.992   5.263  16.196  0.00  0.00    +0.000 A 
ATOM     11  C   UNL     1       5.203   4.393  15.429  0.00  0.00    +0.000 A 
ATOM     12  C   UNL     1       5.664   3.957  14.192  0.00  0.00    +0.000 A 
ATOM     13  C   UNL     1       6.890   4.429  13.753  0.00  0.00    +0.000 A 
ATOM     14  N   UNL     1       7.655   5.301  14.453  0.00  0.00    +0.000 NA
ATOM     15  C   UNL     1       7.204   5.678  15.679  0.00  0.00    +0.000 A 
ENDBRANCH   8  10
ENDBRANCH   1   8
BRANCH   6  16
ATOM     16  C   UNL     1       2.114   4.912  17.996  0.00  0.00    +0.000 C 
BRANCH  16  17
ATOM     17  C   UNL     1       2.551   3.515  17.573  0.00  0.00    +0.000 C 
BRANCH  17  18
ATOM     18  N   UNL     1       1.894   2.394  18.259  0.00  0.00    +0.000 NA
ATOM     19  C   UNL     1       0.736   2.743  19.095  0.00  0.00    +0.000 C 
ATOM     20  C   UNL     1       1.077   3.370  20.457  0.00  0.00    +0.000 C 
ATOM     21  O   UNL     1       2.022   2.583  21.191  0.00  0.00    +0.000 OA
ATOM     22  C   UNL     1       3.214   2.383  20.421  0.00  0.00    +0.000 C 
ATOM     23  C   UNL     1       2.890   1.674  19.096  0.00  0.00    +0.000 C 
ENDBRANCH  17  18
ENDBRANCH  16  17
ENDBRANCH   6  16
TORSDOF 5
ENDMDL
MODEL 6
REMARK VINA RESULT:      -7.4      2.546      6.655
REMARK  Name = 
REMARK  5 active torsions:
REMARK  status: ('A' for Active; 'I' for Inactive)
REMARK    1  A    between atoms: S_2  and  C_4
REMARK    2  A    between atoms: S_2  and  N_10
REMARK    3  A    between atoms: C_15  and  C_16
REMARK    4  A    between atoms: C_16  and  C_17
REMARK    5  A    between atoms: C_17  and  N_18
REMARK                            x       y       z     vdW  Elec       q    Type
REMARK                         _______ _______ _______ _____ _____    ______ ____
ROOT
ATOM      1  N   UNL     1       4.402   6.216  18.596  0.00  0.00    +0.000 NA
ATOM      2  C   UNL     1       5.108   5.097  19.251  0.00  0.00    +0.000 C 
ATOM      3  C   UNL     1       6.608   5.427  19.388  0.00  0.00    +0.000 C 
ATOM      4  C   UNL     1       7.261   5.878  18.084  0.00  0.00    +0.000 C 
ATOM      5  C   UNL     1       6.444   7.001  17.444  0.00  0.00    +0.000 C 
ATOM      6  C   UNL     1       4.970   6.580  17.238  0.00  0.00    +0.000 C 
ENDROOT
BRANCH   1   8
ATOM      7  O   UNL     1       2.170   7.115  17.636  0.00  0.00    +0.000 OA
ATOM      8  S   UNL     1       2.710   6.439  18.792  0.00  0.00    +0.000 S 
ATOM      9  O   UNL     1       2.533   7.043  20.097  0.00  0.00    +0.000 OA
BRANCH   8  10
ATOM     10  C   UNL     1       1.882   4.889  18.827  0.00  0.00    +0.000 A 
ATOM     11  C   UNL     1       1.462   4.358  20.056  0.00  0.00    +0.000 A 
ATOM     12  C   UNL     1       1.161   3.004  20.153  0.00  0.00    +0.000 A 
ATOM     13  C   UNL     1       1.267   2.232  19.008  0.00  0.00    +0.000 A 
ATOM     14  N   UNL     1       1.630   2.725  17.800  0.00  0.00    +0.000 NA
ATOM     15  C   UNL     1       1.962   4.041  17.740  0.00  0.00    +0.000 A 
ENDBRANCH   8  10
ENDBRANCH   1   8
BRANCH   6  16
ATOM     16  C   UNL     1       4.941   5.472  16.145  0.00  0.00    +0.000 C 
BRANCH  16  17
ATOM     17  C   UNL     1       5.784   5.729  14.902  0.00  0.00    +0.000 C 
BRANCH  17  18
ATOM     18  N   UNL     1       6.858   4.764  14.634  0.00  0.00    +0.000 NA
ATOM     19  C   UNL     1       7.868   5.184  13.653  0.00  0.00    +0.000 C 
ATOM     20  C   UNL     1       7.429   5.096  12.182  0.00  0.00    +0.000 C 
ATOM     21  O   UNL     1       6.900   3.806  11.855  0.00  0.00    +0.000 OA
ATOM     22  C   UNL     1       5.808   3.477  12.723  0.00  0.00    +0.000 C 
ATOM     23  C   UNL     1       6.266   3.475  14.190  0.00  0.00    +0.000 C 
ENDBRANCH  17  18
ENDBRANCH  16  17
ENDBRANCH   6  16
TORSDOF 5
ENDMDL
MODEL 7
REMARK VINA RESULT:      -7.3      2.970      6.160
REMARK  Name = 
REMARK  5 active torsions:
REMARK  status: ('A' for Active; 'I' for Inactive)
REMARK    1  A    between atoms: S_2  and  C_4
REMARK    2  A    between atoms: S_2  and  N_10
REMARK    3  A    between atoms: C_15  and  C_16
REMARK    4  A    between atoms: C_16  and  C_17
REMARK    5  A    between atoms: C_17  and  N_18
REMARK                            x       y       z     vdW  Elec       q    Type
REMARK                         _______ _______ _______ _____ _____    ______ ____
ROOT
ATOM      1  N   UNL     1       4.889   4.018  17.449  0.00  0.00    +0.000 NA
ATOM      2  C   UNL     1       5.699   3.976  16.214  0.00  0.00    +0.000 C 
ATOM      3  C   UNL     1       7.124   4.490  16.500  0.00  0.00    +0.000 C 
ATOM      4  C   UNL     1       7.161   5.843  17.205  0.00  0.00    +0.000 C 
ATOM      5  C   UNL     1       6.261   5.820  18.441  0.00  0.00    +0.000 C 
ATOM      6  C   UNL     1       4.818   5.395  18.081  0.00  0.00    +0.000 C 
ENDROOT
BRANCH   1   8
ATOM      7  O   UNL     1       3.888   1.637  17.645  0.00  0.00    +0.000 OA
ATOM      8  S   UNL     1       3.499   3.028  17.638  0.00  0.00    +0.000 S 
ATOM      9  O   UNL     1       2.547   3.479  16.643  0.00  0.00    +0.000 OA
BRANCH   8  10
ATOM     10  C   UNL     1       2.761   3.291  19.212  0.00  0.00    +0.000 A 
ATOM     11  C   UNL     1       3.387   2.786  20.361  0.00  0.00    +0.000 A 
ATOM     12  C   UNL     1       2.658   2.647  21.536  0.00  0.00    +0.000 A 
ATOM     13  C   UNL     1       1.331   3.042  21.527  0.00  0.00    +0.000 A 
ATOM     14  N   UNL     1       0.711   3.571  20.444  0.00  0.00    +0.000 NA
ATOM     15  C   UNL     1       1.432   3.656  19.296  0.00  0.00    +0.000 A 
ENDBRANCH   8  10
ENDBRANCH   1   8
BRANCH   6  16
ATOM     16  C   UNL     1       4.190   6.531  17.222  0.00  0.00    +0.000 C 
BRANCH  16  17
ATOM     17  C   UNL     1       3.543   7.677  17.988  0.00  0.00    +0.000 C 
BRANCH  17  18
ATOM     18  N   UNL     1       2.077   7.645  18.089  0.00  0.00    +0.000 NA
ATOM     19  C   UNL     1       1.383   8.893  17.740  0.00  0.00    +0.000 C 
ATOM     20  C   UNL     1       1.429   9.990  18.816  0.00  0.00    +0.000 C 
ATOM     21  O   UNL     1       1.005   9.507  20.096  0.00  0.00    +0.000 OA
ATOM     22  C   UNL     1       1.799   8.383  20.496  0.00  0.00    +0.000 C 
ATOM     23  C   UNL     1       1.684   7.247  19.467  0.00  0.00    +0.000 C 
ENDBRANCH  17  18
ENDBRANCH  16  17
ENDBRANCH   6  16
TORSDOF 5
ENDMDL
MODEL 8
REMARK VINA RESULT:      -7.3      3.272      4.628
REMARK  Name = 
REMARK  5 active torsions:
REMARK  status: ('A' for Active; 'I' for Inactive)
REMARK    1  A    between atoms: S_2  and  C_4
REMARK    2  A    between atoms: S_2  and  N_10
REMARK    3  A    between atoms: C_15  and  C_16
REMARK    4  A    between atoms: C_16  and  C_17
REMARK    5  A    between atoms: C_17  and  N_18
REMARK                            x       y       z     vdW  Elec       q    Type
REMARK                         _______ _______ _______ _____ _____    ______ ____
ROOT
ATOM      1  N   UNL     1       3.818   4.346  18.609  0.00  0.00    +0.000 NA
ATOM      2  C   UNL     1       3.577   3.238  19.556  0.00  0.00    +0.000 C 
ATOM      3  C   UNL     1       2.298   2.474  19.160  0.00  0.00    +0.000 C 
ATOM      4  C   UNL     1       1.082   3.374  18.955  0.00  0.00    +0.000 C 
ATOM      5  C   UNL     1       1.427   4.521  18.005  0.00  0.00    +0.000 C 
ATOM      6  C   UNL     1       2.658   5.316  18.502  0.00  0.00    +0.000 C 
ENDROOT
BRANCH   1   8
ATOM      7  O   UNL     1       6.375   4.127  18.963  0.00  0.00    +0.000 OA
ATOM      8  S   UNL     1       5.385   5.017  18.403  0.00  0.00    +0.000 S 
ATOM      9  O   UNL     1       5.309   6.376  18.902  0.00  0.00    +0.000 OA
BRANCH   8  10
ATOM     10  C   UNL     1       5.795   5.120  16.696  0.00  0.00    +0.000 A 
ATOM     11  C   UNL     1       5.100   4.328  15.770  0.00  0.00    +0.000 A 
ATOM     12  C   UNL     1       5.643   4.108  14.509  0.00  0.00    +0.000 A 
ATOM     13  C   UNL     1       6.853   4.711  14.210  0.00  0.00    +0.000 A 
ATOM     14  N   UNL     1       7.526   5.514  15.069  0.00  0.00    +0.000 NA
ATOM     15  C   UNL     1       6.998   5.678  16.310  0.00  0.00    +0.000 A 
ENDBRANCH   8  10
ENDBRANCH   1   8
BRANCH   6  16
ATOM     16  C   UNL     1       2.245   6.063  19.804  0.00  0.00    +0.000 C 
BRANCH  16  17
ATOM     17  C   UNL     1       2.186   7.583  19.719  0.00  0.00    +0.000 C 
BRANCH  17  18
ATOM     18  N   UNL     1       0.878   8.198  19.978  0.00  0.00    +0.000 NA
ATOM     19  C   UNL     1       0.712   9.578  19.502  0.00  0.00    +0.000 C 
ATOM     20  C   UNL     1       1.384  10.655  20.369  0.00  0.00    +0.000 C 
ATOM     21  O   UNL     1       1.018  10.541  21.749  0.00  0.00    +0.000 OA
ATOM     22  C   UNL     1       1.333   9.233  22.244  0.00  0.00    +0.000 C 
ATOM     23  C   UNL     1       0.591   8.156  21.436  0.00  0.00    +0.000 C 
ENDBRANCH  17  18
ENDBRANCH  16  17
ENDBRANCH   6  16
TORSDOF 5
ENDMDL
MODEL 9
REMARK VINA RESULT:      -7.3      1.429      1.817
REMARK  Name = 
REMARK  5 active torsions:
REMARK  status: ('A' for Active; 'I' for Inactive)
REMARK    1  A    between atoms: S_2  and  C_4
REMARK    2  A    between atoms: S_2  and  N_10
REMARK    3  A    between atoms: C_15  and  C_16
REMARK    4  A    between atoms: C_16  and  C_17
REMARK    5  A    between atoms: C_17  and  N_18
REMARK                            x       y       z     vdW  Elec       q    Type
REMARK                         _______ _______ _______ _____ _____    ______ ____
ROOT
ATOM      1  N   UNL     1       4.890   6.207  18.101  0.00  0.00    +0.000 NA
ATOM      2  C   UNL     1       4.354   7.014  16.986  0.00  0.00    +0.000 C 
ATOM      3  C   UNL     1       3.338   8.043  17.520  0.00  0.00    +0.000 C 
ATOM      4  C   UNL     1       2.254   7.435  18.407  0.00  0.00    +0.000 C 
ATOM      5  C   UNL     1       2.887   6.576  19.502  0.00  0.00    +0.000 C 
ATOM      6  C   UNL     1       3.820   5.496  18.906  0.00  0.00    +0.000 C 
ENDROOT
BRANCH   1   8
ATOM      7  O   UNL     1       6.432   4.276  18.879  0.00  0.00    +0.000 OA
ATOM      8  S   UNL     1       6.399   5.398  17.971  0.00  0.00    +0.000 S 
ATOM      9  O   UNL     1       7.417   6.423  18.095  0.00  0.00    +0.000 OA
BRANCH   8  10
ATOM     10  C   UNL     1       6.582   4.684  16.375  0.00  0.00    +0.000 A 
ATOM     11  C   UNL     1       7.385   5.324  15.419  0.00  0.00    +0.000 A 
ATOM     12  C   UNL     1       7.244   5.000  14.075  0.00  0.00    +0.000 A 
ATOM     13  C   UNL     1       6.320   4.026  13.736  0.00  0.00    +0.000 A 
ATOM     14  N   UNL     1       5.561   3.362  14.640  0.00  0.00    +0.000 NA
ATOM     15  C   UNL     1       5.685   3.727  15.943  0.00  0.00    +0.000 A 
ENDBRANCH   8  10
ENDBRANCH   1   8
BRANCH   6  16
ATOM     16  C   UNL     1       2.931   4.473  18.141  0.00  0.00    +0.000 C 
BRANCH  16  17
ATOM     17  C   UNL     1       1.583   4.147  18.771  0.00  0.00    +0.000 C 
BRANCH  17  18
ATOM     18  N   UNL     1       1.446   2.806  19.356  0.00  0.00    +0.000 NA
ATOM     19  C   UNL     1       1.032   2.760  20.765  0.00  0.00    +0.000 C 
ATOM     20  C   UNL     1       2.138   3.085  21.783  0.00  0.00    +0.000 C 
ATOM     21  O   UNL     1       3.316   2.301  21.568  0.00  0.00    +0.000 OA
ATOM     22  C   UNL     1       3.800   2.480  20.231  0.00  0.00    +0.000 C 
ATOM     23  C   UNL     1       2.729   2.068  19.208  0.00  0.00    +0.000 C 
ENDBRANCH  17  18
ENDBRANCH  16  17
ENDBRANCH   6  16
TORSDOF 5
ENDMDL
