MODEL 1
REMARK VINA RESULT:      -8.8      0.000      0.000
REMARK  Name = 
REMARK  5 active torsions:
REMARK  status: ('A' for Active; 'I' for Inactive)
REMARK    1  A    between atoms: C_5  and  C_6
REMARK    2  A    between atoms: N_9  and  C_10
REMARK    3  A    between atoms: C_10  and  C_11
REMARK    4  A    between atoms: C_11  and  C_12
REMARK    5  A    between atoms: C_12  and  C_13
REMARK                            x       y       z     vdW  Elec       q    Type
REMARK                         _______ _______ _______ _____ _____    ______ ____
ROOT
ATOM      1  C   UNL     1       5.106   4.766  17.870  0.00  0.00    +0.000 C 
ATOM      2  C   UNL     1       4.644   6.116  17.348  0.00  0.00    +0.000 C 
ATOM      3  C   UNL     1       5.896   6.930  16.997  0.00  0.00    +0.000 C 
ATOM      4  N   UNL     1       6.836   7.079  18.124  0.00  0.00    +0.000 NA
ATOM      5  C   UNL     1       7.151   5.810  18.798  0.00  0.00    +0.000 C 
ATOM      6  C   UNL     1       5.907   5.002  19.150  0.00  0.00    +0.000 C 
ENDROOT
BRANCH   1  11
ATOM      7  C   UNL     1       0.620   3.584  20.435  0.00  0.00    +0.000 A 
ATOM      8  C   UNL     1       1.428   4.703  20.613  0.00  0.00    +0.000 A 
ATOM      9  C   UNL     1       2.608   4.841  19.884  0.00  0.00    +0.000 A 
ATOM     10  C   UNL     1       2.976   3.841  18.959  0.00  0.00    +0.000 A 
ATOM     11  C   UNL     1       4.069   3.708  18.042  0.00  0.00    +0.000 A 
ATOM     12  C   UNL     1       3.910   2.498  17.400  0.00  0.00    +0.000 A 
ATOM     13  N   UNL     1       2.766   1.909  17.879  0.00  0.00    +0.000 N 
ATOM     14  C   UNL     1       2.164   2.721  18.816  0.00  0.00    +0.000 A 
ATOM     15  C   UNL     1       0.974   2.566  19.541  0.00  0.00    +0.000 A 
ATOM     16  H   UNL     1       2.400   1.015  17.582  0.00  0.00    +0.000 HD
ENDBRANCH   1  11
BRANCH   4  17
ATOM     17  C   UNL     1       8.098   7.719  17.702  0.00  0.00    +0.000 C 
BRANCH  17  18
ATOM     18  C   UNL     1       8.054   9.250  17.700  0.00  0.00    +0.000 C 
BRANCH  18  19
ATOM     19  C   UNL     1       8.943   9.854  18.792  0.00  0.00    +0.000 C 
BRANCH  19  20
ATOM     20  C   UNL     1       9.177  11.367  18.622  0.00  0.00    +0.000 C 
ATOM     21  C   UNL     1       9.280  12.129  19.956  0.00  0.00    +0.000 C 
ATOM     22  C   UNL     1      10.556  11.806  20.728  0.00  0.00    +0.000 C 
ATOM     23  C   UNL     1      11.799  12.050  19.878  0.00  0.00    +0.000 C 
ATOM     24  C   UNL     1      11.735  11.309  18.546  0.00  0.00    +0.000 C 
ATOM     25  C   UNL     1      10.444  11.622  17.784  0.00  0.00    +0.000 C 
ENDBRANCH  19  20
ENDBRANCH  18  19
ENDBRANCH  17  18
ENDBRANCH   4  17
TORSDOF 5
ENDMDL
MODEL 2
REMARK VINA RESULT:      -8.5      0.875      1.578
REMARK  Name = 
REMARK  5 active torsions:
REMARK  status: ('A' for Active; 'I' for Inactive)
REMARK    1  A    between atoms: C_5  and  C_6
REMARK    2  A    between atoms: N_9  and  C_10
REMARK    3  A    between atoms: C_10  and  C_11
REMARK    4  A    between atoms: C_11  and  C_12
REMARK    5  A    between atoms: C_12  and  C_13
REMARK                            x       y       z     vdW  Elec       q    Type
REMARK                         _______ _______ _______ _____ _____    ______ ____
ROOT
ATOM      1  C   UNL     1       5.357   5.376  18.093  0.00  0.00    +0.000 C 
ATOM      2  C   UNL     1       6.851   5.103  18.123  0.00  0.00    +0.000 C 
ATOM      3  C   UNL     1       7.563   6.448  18.315  0.00  0.00    +0.000 C 
ATOM      4  N   UNL     1       7.216   7.450  17.288  0.00  0.00    +0.000 NA
ATOM      5  C   UNL     1       5.767   7.595  17.077  0.00  0.00    +0.000 C 
ATOM      6  C   UNL     1       5.060   6.260  16.882  0.00  0.00    +0.000 C 
ENDROOT
BRANCH   1  11
ATOM      7  C   UNL     1       0.946   3.546  20.395  0.00  0.00    +0.000 A 
ATOM      8  C   UNL     1       1.609   4.740  20.663  0.00  0.00    +0.000 A 
ATOM      9  C   UNL     1       2.792   5.052  19.994  0.00  0.00    +0.000 A 
ATOM     10  C   UNL     1       3.310   4.153  19.039  0.00  0.00    +0.000 A 
ATOM     11  C   UNL     1       4.445   4.196  18.166  0.00  0.00    +0.000 A 
ATOM     12  C   UNL     1       4.455   3.013  17.459  0.00  0.00    +0.000 A 
ATOM     13  N   UNL     1       3.372   2.270  17.858  0.00  0.00    +0.000 N 
ATOM     14  C   UNL     1       2.642   2.955  18.806  0.00  0.00    +0.000 A 
ATOM     15  C   UNL     1       1.452   2.625  19.468  0.00  0.00    +0.000 A 
ATOM     16  H   UNL     1       3.125   1.358  17.502  0.00  0.00    +0.000 HD
ENDBRANCH   1  11
BRANCH   4  17
ATOM     17  C   UNL     1       7.786   8.775  17.602  0.00  0.00    +0.000 C 
BRANCH  17  18
ATOM     18  C   UNL     1       8.863   8.752  18.691  0.00  0.00    +0.000 C 
BRANCH  18  19
ATOM     19  C   UNL     1       9.125  10.146  19.272  0.00  0.00    +0.000 C 
BRANCH  19  20
ATOM     20  C   UNL     1       9.986  11.037  18.358  0.00  0.00    +0.000 C 
ATOM     21  C   UNL     1       9.245  12.282  17.836  0.00  0.00    +0.000 C 
ATOM     22  C   UNL     1       8.967  13.311  18.929  0.00  0.00    +0.000 C 
ATOM     23  C   UNL     1      10.248  13.716  19.650  0.00  0.00    +0.000 C 
ATOM     24  C   UNL     1      11.011  12.508  20.184  0.00  0.00    +0.000 C 
ATOM     25  C   UNL     1      11.270  11.471  19.088  0.00  0.00    +0.000 C 
ENDBRANCH  19  20
ENDBRANCH  18  19
ENDBRANCH  17  18
ENDBRANCH   4  17
TORSDOF 5
ENDMDL
MODEL 3
REMARK VINA RESULT:      -8.4      1.036      1.845
REMARK  Name = 
REMARK  5 active torsions:
REMARK  status: ('A' for Active; 'I' for Inactive)
REMARK    1  A    between atoms: C_5  and  C_6
REMARK    2  A    between atoms: N_9  and  C_10
REMARK    3  A    between atoms: C_10  and  C_11
REMARK    4  A    between atoms: C_11  and  C_12
REMARK    5  A    between atoms: C_12  and  C_13
REMARK                            x       y       z     vdW  Elec       q    Type
REMARK                         _______ _______ _______ _____ _____    ______ ____
ROOT
ATOM      1  C   UNL     1       5.518   5.671  18.125  0.00  0.00    +0.000 C 
ATOM      2  C   UNL     1       6.874   5.100  18.502  0.00  0.00    +0.000 C 
ATOM      3  C   UNL     1       7.768   6.271  18.928  0.00  0.00    +0.000 C 
ATOM      4  N   UNL     1       7.890   7.322  17.899  0.00  0.00    +0.000 NA
ATOM      5  C   UNL     1       6.597   7.760  17.351  0.00  0.00    +0.000 C 
ATOM      6  C   UNL     1       5.710   6.596  16.925  0.00  0.00    +0.000 C 
ENDROOT
BRANCH   1  11
ATOM      7  C   UNL     1       0.933   3.961  20.166  0.00  0.00    +0.000 A 
ATOM      8  C   UNL     1       1.822   4.874  20.726  0.00  0.00    +0.000 A 
ATOM      9  C   UNL     1       3.016   5.183  20.074  0.00  0.00    +0.000 A 
ATOM     10  C   UNL     1       3.314   4.569  18.840  0.00  0.00    +0.000 A 
ATOM     11  C   UNL     1       4.402   4.702  17.917  0.00  0.00    +0.000 A 
ATOM     12  C   UNL     1       4.158   3.828  16.879  0.00  0.00    +0.000 A 
ATOM     13  N   UNL     1       2.969   3.190  17.131  0.00  0.00    +0.000 N 
ATOM     14  C   UNL     1       2.422   3.642  18.313  0.00  0.00    +0.000 A 
ATOM     15  C   UNL     1       1.218   3.319  18.953  0.00  0.00    +0.000 A 
ATOM     16  H   UNL     1       2.539   2.497  16.534  0.00  0.00    +0.000 HD
ENDBRANCH   1  11
BRANCH   4  17
ATOM     17  C   UNL     1       8.616   8.503  18.407  0.00  0.00    +0.000 C 
BRANCH  17  18
ATOM     18  C   UNL     1       8.072   9.841  17.897  0.00  0.00    +0.000 C 
BRANCH  18  19
ATOM     19  C   UNL     1       9.010  11.007  18.225  0.00  0.00    +0.000 C 
BRANCH  19  20
ATOM     20  C   UNL     1       9.936  10.728  19.424  0.00  0.00    +0.000 C 
ATOM     21  C   UNL     1      11.319  11.394  19.302  0.00  0.00    +0.000 C 
ATOM     22  C   UNL     1      11.260  12.914  19.434  0.00  0.00    +0.000 C 
ATOM     23  C   UNL     1      10.578  13.335  20.731  0.00  0.00    +0.000 C 
ATOM     24  C   UNL     1       9.202  12.695  20.888  0.00  0.00    +0.000 C 
ATOM     25  C   UNL     1       9.263  11.172  20.735  0.00  0.00    +0.000 C 
ENDBRANCH  19  20
ENDBRANCH  18  19
ENDBRANCH  17  18
ENDBRANCH   4  17
TORSDOF 5
ENDMDL
MODEL 4
REMARK VINA RESULT:      -8.3      0.688      1.399
REMARK  Name = 
REMARK  5 active torsions:
REMARK  status: ('A' for Active; 'I' for Inactive)
REMARK    1  A    between atoms: C_5  and  C_6
REMARK    2  A    between atoms: N_9  and  C_10
REMARK    3  A    between atoms: C_10  and  C_11
REMARK    4  A    between atoms: C_11  and  C_12
REMARK    5  A    between atoms: C_12  and  C_13
REMARK                            x       y       z     vdW  Elec       q    Type
REMARK                         _______ _______ _______ _____ _____    ______ ____
ROOT
ATOM      1  C   UNL     1       5.006   4.770  17.752  0.00  0.00    +0.000 C 
ATOM      2  C   UNL     1       4.451   6.086  17.235  0.00  0.00    +0.000 C 
ATOM      3  C   UNL     1       5.642   6.966  16.835  0.00  0.00    +0.000 C 
ATOM      4  N   UNL     1       6.610   7.178  17.929  0.00  0.00    +0.000 NA
ATOM      5  C   UNL     1       7.018   5.935  18.601  0.00  0.00    +0.000 C 
ATOM      6  C   UNL     1       5.835   5.063  19.002  0.00  0.00    +0.000 C 
ENDROOT
BRANCH   1  11
ATOM      7  C   UNL     1       0.636   3.392  20.419  0.00  0.00    +0.000 A 
ATOM      8  C   UNL     1       1.379   4.560  20.555  0.00  0.00    +0.000 A 
ATOM      9  C   UNL     1       2.538   4.749  19.803  0.00  0.00    +0.000 A 
ATOM     10  C   UNL     1       2.950   3.749  18.898  0.00  0.00    +0.000 A 
ATOM     11  C   UNL     1       4.035   3.657  17.967  0.00  0.00    +0.000 A 
ATOM     12  C   UNL     1       3.940   2.424  17.358  0.00  0.00    +0.000 A 
ATOM     13  N   UNL     1       2.840   1.781  17.870  0.00  0.00    +0.000 N 
ATOM     14  C   UNL     1       2.204   2.579  18.797  0.00  0.00    +0.000 A 
ATOM     15  C   UNL     1       1.037   2.373  19.544  0.00  0.00    +0.000 A 
ATOM     16  H   UNL     1       2.524   0.860  17.602  0.00  0.00    +0.000 HD
ENDBRANCH   1  11
BRANCH   4  17
ATOM     17  C   UNL     1       7.819   7.884  17.460  0.00  0.00    +0.000 C 
BRANCH  17  18
ATOM     18  C   UNL     1       8.565   8.649  18.557  0.00  0.00    +0.000 C 
BRANCH  18  19
ATOM     19  C   UNL     1       8.744  10.130  18.208  0.00  0.00    +0.000 C 
BRANCH  19  20
ATOM     20  C   UNL     1      10.072  10.722  18.717  0.00  0.00    +0.000 C 
ATOM     21  C   UNL     1      10.722  11.712  17.734  0.00  0.00    +0.000 C 
ATOM     22  C   UNL     1       9.947  13.020  17.606  0.00  0.00    +0.000 C 
ATOM     23  C   UNL     1       9.737  13.679  18.966  0.00  0.00    +0.000 C 
ATOM     24  C   UNL     1       9.092  12.728  19.969  0.00  0.00    +0.000 C 
ATOM     25  C   UNL     1       9.863  11.410  20.079  0.00  0.00    +0.000 C 
ENDBRANCH  19  20
ENDBRANCH  18  19
ENDBRANCH  17  18
ENDBRANCH   4  17
TORSDOF 5
ENDMDL
MODEL 5
REMARK VINA RESULT:      -8.3      5.580      8.526
REMARK  Name = 
REMARK  5 active torsions:
REMARK  status: ('A' for Active; 'I' for Inactive)
REMARK    1  A    between atoms: C_5  and  C_6
REMARK    2  A    between atoms: N_9  and  C_10
REMARK    3  A    between atoms: C_10  and  C_11
REMARK    4  A    between atoms: C_11  and  C_12
REMARK    5  A    between atoms: C_12  and  C_13
REMARK                            x       y       z     vdW  Elec       q    Type
REMARK                         _______ _______ _______ _____ _____    ______ ____
ROOT
ATOM      1  C   UNL     1       2.136   7.368  18.556  0.00  0.00    +0.000 C 
ATOM      2  C   UNL     1       2.126   7.642  20.050  0.00  0.00    +0.000 C 
ATOM      3  C   UNL     1       0.961   8.598  20.338  0.00  0.00    +0.000 C 
ATOM      4  N   UNL     1       1.021   9.849  19.558  0.00  0.00    +0.000 NA
ATOM      5  C   UNL     1       1.242   9.635  18.120  0.00  0.00    +0.000 C 
ATOM      6  C   UNL     1       2.402   8.689  17.833  0.00  0.00    +0.000 C 
ENDROOT
BRANCH   1  11
ATOM      7  C   UNL     1       2.445   2.114  17.918  0.00  0.00    +0.000 A 
ATOM      8  C   UNL     1       1.434   2.834  18.549  0.00  0.00    +0.000 A 
ATOM      9  C   UNL     1       1.529   4.219  18.672  0.00  0.00    +0.000 A 
ATOM     10  C   UNL     1       2.654   4.889  18.148  0.00  0.00    +0.000 A 
ATOM     11  C   UNL     1       3.023   6.271  18.068  0.00  0.00    +0.000 A 
ATOM     12  C   UNL     1       4.256   6.324  17.453  0.00  0.00    +0.000 A 
ATOM     13  N   UNL     1       4.635   5.040  17.150  0.00  0.00    +0.000 N 
ATOM     14  C   UNL     1       3.662   4.146  17.543  0.00  0.00    +0.000 A 
ATOM     15  C   UNL     1       3.583   2.753  17.410  0.00  0.00    +0.000 A 
ATOM     16  H   UNL     1       5.495   4.778  16.689  0.00  0.00    +0.000 HD
ENDBRANCH   1  11
BRANCH   4  17
ATOM     17  C   UNL     1      -0.198  10.662  19.736  0.00  0.00    +0.000 C 
BRANCH  17  18
ATOM     18  C   UNL     1      -0.232  11.937  18.887  0.00  0.00    +0.000 C 
BRANCH  18  19
ATOM     19  C   UNL     1      -1.522  12.050  18.068  0.00  0.00    +0.000 C 
BRANCH  19  20
ATOM     20  C   UNL     1      -2.377  10.770  18.094  0.00  0.00    +0.000 C 
ATOM     21  C   UNL     1      -3.891  11.041  18.167  0.00  0.00    +0.000 C 
ATOM     22  C   UNL     1      -4.451  11.639  16.879  0.00  0.00    +0.000 C 
ATOM     23  C   UNL     1      -4.123  10.768  15.671  0.00  0.00    +0.000 C 
ATOM     24  C   UNL     1      -2.630  10.478  15.564  0.00  0.00    +0.000 C 
ATOM     25  C   UNL     1      -2.069   9.895  16.865  0.00  0.00    +0.000 C 
ENDBRANCH  19  20
ENDBRANCH  18  19
ENDBRANCH  17  18
ENDBRANCH   4  17
TORSDOF 5
ENDMDL
MODEL 6
REMARK VINA RESULT:      -8.3      0.703      1.034
REMARK  Name = 
REMARK  5 active torsions:
REMARK  status: ('A' for Active; 'I' for Inactive)
REMARK    1  A    between atoms: C_5  and  C_6
REMARK    2  A    between atoms: N_9  and  C_10
REMARK    3  A    between atoms: C_10  and  C_11
REMARK    4  A    between atoms: C_11  and  C_12
REMARK    5  A    between atoms: C_12  and  C_13
REMARK                            x       y       z     vdW  Elec       q    Type
REMARK                         _______ _______ _______ _____ _____    ______ ____
ROOT
ATOM      1  C   UNL     1       5.066   4.944  17.732  0.00  0.00    +0.000 C 
ATOM      2  C   UNL     1       4.535   6.301  17.300  0.00  0.00    +0.000 C 
ATOM      3  C   UNL     1       5.739   7.167  16.912  0.00  0.00    +0.000 C 
ATOM      4  N   UNL     1       6.743   7.296  17.986  0.00  0.00    +0.000 NA
ATOM      5  C   UNL     1       7.134   6.008  18.581  0.00  0.00    +0.000 C 
ATOM      6  C   UNL     1       5.937   5.149  18.971  0.00  0.00    +0.000 C 
ENDROOT
BRANCH   1  11
ATOM      7  C   UNL     1       0.735   3.547  20.452  0.00  0.00    +0.000 A 
ATOM      8  C   UNL     1       1.515   4.686  20.627  0.00  0.00    +0.000 A 
ATOM      9  C   UNL     1       2.657   4.882  19.852  0.00  0.00    +0.000 A 
ATOM     10  C   UNL     1       3.015   3.921  18.884  0.00  0.00    +0.000 A 
ATOM     11  C   UNL     1       4.070   3.848  17.918  0.00  0.00    +0.000 A 
ATOM     12  C   UNL     1       3.922   2.652  17.249  0.00  0.00    +0.000 A 
ATOM     13  N   UNL     1       2.820   2.013  17.760  0.00  0.00    +0.000 N 
ATOM     14  C   UNL     1       2.234   2.779  18.744  0.00  0.00    +0.000 A 
ATOM     15  C   UNL     1       1.082   2.565  19.514  0.00  0.00    +0.000 A 
ATOM     16  H   UNL     1       2.470   1.116  17.453  0.00  0.00    +0.000 HD
ENDBRANCH   1  11
BRANCH   4  17
ATOM     17  C   UNL     1       7.958   7.992  17.518  0.00  0.00    +0.000 C 
BRANCH  17  18
ATOM     18  C   UNL     1       8.563   8.955  18.544  0.00  0.00    +0.000 C 
BRANCH  18  19
ATOM     19  C   UNL     1       8.974  10.288  17.910  0.00  0.00    +0.000 C 
BRANCH  19  20
ATOM     20  C   UNL     1       9.258  11.395  18.944  0.00  0.00    +0.000 C 
ATOM     21  C   UNL     1      10.635  11.267  19.621  0.00  0.00    +0.000 C 
ATOM     22  C   UNL     1      11.794  11.566  18.673  0.00  0.00    +0.000 C 
ATOM     23  C   UNL     1      11.643  12.937  18.024  0.00  0.00    +0.000 C 
ATOM     24  C   UNL     1      10.290  13.102  17.340  0.00  0.00    +0.000 C 
ATOM     25  C   UNL     1       9.132  12.783  18.290  0.00  0.00    +0.000 C 
ENDBRANCH  19  20
ENDBRANCH  18  19
ENDBRANCH  17  18
ENDBRANCH   4  17
TORSDOF 5
ENDMDL
MODEL 7
REMARK VINA RESULT:      -8.2      5.008      8.641
REMARK  Name = 
REMARK  5 active torsions:
REMARK  status: ('A' for Active; 'I' for Inactive)
REMARK    1  A    between atoms: C_5  and  C_6
REMARK    2  A    between atoms: N_9  and  C_10
REMARK    3  A    between atoms: C_10  and  C_11
REMARK    4  A    between atoms: C_11  and  C_12
REMARK    5  A    between atoms: C_12  and  C_13
REMARK                            x       y       z     vdW  Elec       q    Type
REMARK                         _______ _______ _______ _____ _____    ______ ____
ROOT
ATOM      1  C   UNL     1       1.885   8.591  19.318  0.00  0.00    +0.000 C 
ATOM      2  C   UNL     1       1.566   7.246  19.948  0.00  0.00    +0.000 C 
ATOM      3  C   UNL     1       2.775   6.329  19.720  0.00  0.00    +0.000 C 
ATOM      4  N   UNL     1       3.146   6.187  18.299  0.00  0.00    +0.000 NA
ATOM      5  C   UNL     1       3.261   7.472  17.591  0.00  0.00    +0.000 C 
ATOM      6  C   UNL     1       2.059   8.381  17.814  0.00  0.00    +0.000 C 
ENDROOT
BRANCH   1  11
ATOM      7  C   UNL     1      -1.038  10.773  23.165  0.00  0.00    +0.000 A 
ATOM      8  C   UNL     1      -0.341   9.569  23.210  0.00  0.00    +0.000 A 
ATOM      9  C   UNL     1       0.347   9.113  22.086  0.00  0.00    +0.000 A 
ATOM     10  C   UNL     1       0.337   9.883  20.904  0.00  0.00    +0.000 A 
ATOM     11  C   UNL     1       0.965   9.725  19.626  0.00  0.00    +0.000 A 
ATOM     12  C   UNL     1       0.576  10.797  18.851  0.00  0.00    +0.000 A 
ATOM     13  N   UNL     1      -0.244  11.594  19.610  0.00  0.00    +0.000 N 
ATOM     14  C   UNL     1      -0.387  11.070  20.876  0.00  0.00    +0.000 A 
ATOM     15  C   UNL     1      -1.084  11.544  21.996  0.00  0.00    +0.000 A 
ATOM     16  H   UNL     1      -0.673  12.455  19.299  0.00  0.00    +0.000 HD
ENDBRANCH   1  11
BRANCH   4  17
ATOM     17  C   UNL     1       4.408   5.439  18.136  0.00  0.00    +0.000 C 
BRANCH  17  18
ATOM     18  C   UNL     1       4.237   4.048  17.518  0.00  0.00    +0.000 C 
BRANCH  18  19
ATOM     19  C   UNL     1       2.763   3.649  17.393  0.00  0.00    +0.000 C 
BRANCH  19  20
ATOM     20  C   UNL     1       2.440   2.292  18.046  0.00  0.00    +0.000 C 
ATOM     21  C   UNL     1       3.436   1.885  19.147  0.00  0.00    +0.000 C 
ATOM     22  C   UNL     1       3.325   2.750  20.400  0.00  0.00    +0.000 C 
ATOM     23  C   UNL     1       1.901   2.760  20.945  0.00  0.00    +0.000 C 
ATOM     24  C   UNL     1       0.883   3.161  19.883  0.00  0.00    +0.000 C 
ATOM     25  C   UNL     1       1.012   2.302  18.621  0.00  0.00    +0.000 C 
ENDBRANCH  19  20
ENDBRANCH  18  19
ENDBRANCH  17  18
ENDBRANCH   4  17
TORSDOF 5
ENDMDL
MODEL 8
REMARK VINA RESULT:      -8.2      0.824      1.373
REMARK  Name = 
REMARK  5 active torsions:
REMARK  status: ('A' for Active; 'I' for Inactive)
REMARK    1  A    between atoms: C_5  and  C_6
REMARK    2  A    between atoms: N_9  and  C_10
REMARK    3  A    between atoms: C_10  and  C_11
REMARK    4  A    between atoms: C_11  and  C_12
REMARK    5  A    between atoms: C_12  and  C_13
REMARK                            x       y       z     vdW  Elec       q    Type
REMARK                         _______ _______ _______ _____ _____    ______ ____
ROOT
ATOM      1  C   UNL     1       5.292   5.311  18.040  0.00  0.00    +0.000 C 
ATOM      2  C   UNL     1       6.750   5.077  18.397  0.00  0.00    +0.000 C 
ATOM      3  C   UNL     1       7.437   6.447  18.460  0.00  0.00    +0.000 C 
ATOM      4  N   UNL     1       7.303   7.230  17.216  0.00  0.00    +0.000 NA
ATOM      5  C   UNL     1       5.921   7.306  16.716  0.00  0.00    +0.000 C 
ATOM      6  C   UNL     1       5.240   5.944  16.650  0.00  0.00    +0.000 C 
ENDROOT
BRANCH   1  11
ATOM      7  C   UNL     1       1.034   3.533  20.649  0.00  0.00    +0.000 A 
ATOM      8  C   UNL     1       1.742   4.707  20.884  0.00  0.00    +0.000 A 
ATOM      9  C   UNL     1       2.877   5.007  20.130  0.00  0.00    +0.000 A 
ATOM     10  C   UNL     1       3.298   4.114  19.123  0.00  0.00    +0.000 A 
ATOM     11  C   UNL     1       4.363   4.150  18.165  0.00  0.00    +0.000 A 
ATOM     12  C   UNL     1       4.291   2.979  17.439  0.00  0.00    +0.000 A 
ATOM     13  N   UNL     1       3.225   2.253  17.910  0.00  0.00    +0.000 N 
ATOM     14  C   UNL     1       2.587   2.935  18.923  0.00  0.00    +0.000 A 
ATOM     15  C   UNL     1       1.446   2.618  19.671  0.00  0.00    +0.000 A 
ATOM     16  H   UNL     1       2.931   1.352  17.558  0.00  0.00    +0.000 HD
ENDBRANCH   1  11
BRANCH   4  17
ATOM     17  C   UNL     1       7.827   8.601  17.374  0.00  0.00    +0.000 C 
BRANCH  17  18
ATOM     18  C   UNL     1       8.511   8.860  18.720  0.00  0.00    +0.000 C 
BRANCH  18  19
ATOM     19  C   UNL     1       9.546   9.987  18.633  0.00  0.00    +0.000 C 
BRANCH  19  20
ATOM     20  C   UNL     1       9.134  11.255  19.405  0.00  0.00    +0.000 C 
ATOM     21  C   UNL     1      10.013  11.541  20.636  0.00  0.00    +0.000 C 
ATOM     22  C   UNL     1      11.431  11.973  20.267  0.00  0.00    +0.000 C 
ATOM     23  C   UNL     1      11.420  13.174  19.328  0.00  0.00    +0.000 C 
ATOM     24  C   UNL     1      10.559  12.929  18.093  0.00  0.00    +0.000 C 
ATOM     25  C   UNL     1       9.144  12.477  18.468  0.00  0.00    +0.000 C 
ENDBRANCH  19  20
ENDBRANCH  18  19
ENDBRANCH  17  18
ENDBRANCH   4  17
TORSDOF 5
ENDMDL
MODEL 9
REMARK VINA RESULT:      -7.9      5.500      8.505
REMARK  Name = 
REMARK  5 active torsions:
REMARK  status: ('A' for Active; 'I' for Inactive)
REMARK    1  A    between atoms: C_5  and  C_6
REMARK    2  A    between atoms: N_9  and  C_10
REMARK    3  A    between atoms: C_10  and  C_11
REMARK    4  A    between atoms: C_11  and  C_12
REMARK    5  A    between atoms: C_12  and  C_13
REMARK                            x       y       z     vdW  Elec       q    Type
REMARK                         _______ _______ _______ _____ _____    ______ ____
ROOT
ATOM      1  C   UNL     1       2.270   7.006  18.487  0.00  0.00    +0.000 C 
ATOM      2  C   UNL     1       2.222   7.387  19.957  0.00  0.00    +0.000 C 
ATOM      3  C   UNL     1       1.229   8.546  20.104  0.00  0.00    +0.000 C 
ATOM      4  N   UNL     1       1.551   9.708  19.254  0.00  0.00    +0.000 NA
ATOM      5  C   UNL     1       1.812   9.355  17.850  0.00  0.00    +0.000 C 
ATOM      6  C   UNL     1       2.802   8.206  17.704  0.00  0.00    +0.000 C 
ENDROOT
BRANCH   1  11
ATOM      7  C   UNL     1       1.843   1.723  18.583  0.00  0.00    +0.000 A 
ATOM      8  C   UNL     1       0.970   2.654  19.138  0.00  0.00    +0.000 A 
ATOM      9  C   UNL     1       1.255   4.017  19.063  0.00  0.00    +0.000 A 
ATOM     10  C   UNL     1       2.431   4.447  18.415  0.00  0.00    +0.000 A 
ATOM     11  C   UNL     1       2.976   5.741  18.130  0.00  0.00    +0.000 A 
ATOM     12  C   UNL     1       4.173   5.539  17.476  0.00  0.00    +0.000 A 
ATOM     13  N   UNL     1       4.362   4.186  17.345  0.00  0.00    +0.000 N 
ATOM     14  C   UNL     1       3.300   3.497  17.889  0.00  0.00    +0.000 A 
ATOM     15  C   UNL     1       3.030   2.123  17.955  0.00  0.00    +0.000 A 
ATOM     16  H   UNL     1       5.155   3.747  16.898  0.00  0.00    +0.000 HD
ENDBRANCH   1  11
BRANCH   4  17
ATOM     17  C   UNL     1       0.485  10.728  19.297  0.00  0.00    +0.000 C 
BRANCH  17  18
ATOM     18  C   UNL     1      -0.930  10.153  19.410  0.00  0.00    +0.000 C 
BRANCH  18  19
ATOM     19  C   UNL     1      -1.619  10.043  18.046  0.00  0.00    +0.000 C 
BRANCH  19  20
ATOM     20  C   UNL     1      -2.050  11.404  17.467  0.00  0.00    +0.000 C 
ATOM     21  C   UNL     1      -2.698  11.304  16.074  0.00  0.00    +0.000 C 
ATOM     22  C   UNL     1      -4.075  10.645  16.104  0.00  0.00    +0.000 C 
ATOM     23  C   UNL     1      -5.010  11.353  17.078  0.00  0.00    +0.000 C 
ATOM     24  C   UNL     1      -4.403  11.470  18.472  0.00  0.00    +0.000 C 
ATOM     25  C   UNL     1      -3.015  12.115  18.434  0.00  0.00    +0.000 C 
ENDBRANCH  19  20
ENDBRANCH  18  19
ENDBRANCH  17  18
ENDBRANCH   4  17
TORSDOF 5
ENDMDL
