MODEL 1
REMARK VINA RESULT:      -7.1      0.000      0.000
REMARK  Name = 
REMARK  2 active torsions:
REMARK  status: ('A' for Active; 'I' for Inactive)
REMARK    1  A    between atoms: C_7  and  C_8
REMARK    2  A    between atoms: C_9  and  C_10
REMARK                            x       y       z     vdW  Elec       q    Type
REMARK                         _______ _______ _______ _____ _____    ______ ____
ROOT
ATOM      1  O   UNL     1       4.863   3.445  17.734  0.00  0.00    +0.000 OA
ATOM      2  C   UNL     1       5.572   4.431  17.844  0.00  0.00    +0.000 C 
ATOM      3  N   UNL     1       6.510   4.631  18.800  0.00  0.00    +0.000 N 
ATOM      4  C   UNL     1       7.252   5.772  18.749  0.00  0.00    +0.000 C 
ATOM      5  O   UNL     1       8.159   6.014  19.529  0.00  0.00    +0.000 OA
ATOM      6  C   UNL     1       6.793   6.630  17.617  0.00  0.00    +0.000 C 
ATOM      7  C   UNL     1       7.231   7.848  17.267  0.00  0.00    +0.000 C 
ATOM      8  S   UNL     1       5.528   5.805  16.761  0.00  0.00    +0.000 S 
ATOM      9  H   UNL     1       6.691   3.932  19.501  0.00  0.00    +0.000 HD
ENDROOT
BRANCH   7  10
ATOM     10  C   UNL     1       8.268   8.602  17.938  0.00  0.00    +0.000 C 
ATOM     11  C   UNL     1       8.275   9.939  18.036  0.00  0.00    +0.000 C 
BRANCH  11  12
ATOM     12  C   UNL     1       9.380  10.607  18.724  0.00  0.00    +0.000 A 
ATOM     13  C   UNL     1       9.300  10.852  20.099  0.00  0.00    +0.000 A 
ATOM     14  C   UNL     1      10.325  11.541  20.750  0.00  0.00    +0.000 A 
ATOM     15  C   UNL     1      11.431  11.989  20.030  0.00  0.00    +0.000 A 
ATOM     16  C   UNL     1      11.513  11.753  18.658  0.00  0.00    +0.000 A 
ATOM     17  C   UNL     1      10.490  11.064  18.004  0.00  0.00    +0.000 A 
ENDBRANCH  11  12
ENDBRANCH   7  10
TORSDOF 2
ENDMDL
MODEL 2
REMARK VINA RESULT:      -6.8      5.553      8.377
REMARK  Name = 
REMARK  2 active torsions:
REMARK  status: ('A' for Active; 'I' for Inactive)
REMARK    1  A    between atoms: C_7  and  C_8
REMARK    2  A    between atoms: C_9  and  C_10
REMARK                            x       y       z     vdW  Elec       q    Type
REMARK                         _______ _______ _______ _____ _____    ______ ____
ROOT
ATOM      1  O   UNL     1       8.406   5.669  13.553  0.00  0.00    +0.000 OA
ATOM      2  C   UNL     1       7.538   5.308  14.330  0.00  0.00    +0.000 C 
ATOM      3  N   UNL     1       7.374   5.750  15.599  0.00  0.00    +0.000 N 
ATOM      4  C   UNL     1       6.319   5.277  16.319  0.00  0.00    +0.000 C 
ATOM      5  O   UNL     1       6.054   5.660  17.446  0.00  0.00    +0.000 OA
ATOM      6  C   UNL     1       5.567   4.266  15.518  0.00  0.00    +0.000 C 
ATOM      7  C   UNL     1       4.504   3.537  15.887  0.00  0.00    +0.000 C 
ATOM      8  S   UNL     1       6.298   4.133  13.949  0.00  0.00    +0.000 S 
ATOM      9  H   UNL     1       7.987   6.449  15.986  0.00  0.00    +0.000 HD
ENDROOT
BRANCH   7  10
ATOM     10  C   UNL     1       3.852   3.582  17.178  0.00  0.00    +0.000 C 
ATOM     11  C   UNL     1       3.380   2.501  17.815  0.00  0.00    +0.000 C 
BRANCH  11  12
ATOM     12  C   UNL     1       2.723   2.657  19.113  0.00  0.00    +0.000 A 
ATOM     13  C   UNL     1       1.385   3.059  19.174  0.00  0.00    +0.000 A 
ATOM     14  C   UNL     1       0.770   3.267  20.410  0.00  0.00    +0.000 A 
ATOM     15  C   UNL     1       1.489   3.074  21.588  0.00  0.00    +0.000 A 
ATOM     16  C   UNL     1       2.825   2.677  21.533  0.00  0.00    +0.000 A 
ATOM     17  C   UNL     1       3.443   2.470  20.298  0.00  0.00    +0.000 A 
ENDBRANCH  11  12
ENDBRANCH   7  10
TORSDOF 2
ENDMDL
MODEL 3
REMARK VINA RESULT:      -6.6      5.563      8.155
REMARK  Name = 
REMARK  2 active torsions:
REMARK  status: ('A' for Active; 'I' for Inactive)
REMARK    1  A    between atoms: C_7  and  C_8
REMARK    2  A    between atoms: C_9  and  C_10
REMARK                            x       y       z     vdW  Elec       q    Type
REMARK                         _______ _______ _______ _____ _____    ______ ____
ROOT
ATOM      1  O   UNL     1       8.408   5.576  13.164  0.00  0.00    +0.000 OA
ATOM      2  C   UNL     1       7.599   5.250  14.016  0.00  0.00    +0.000 C 
ATOM      3  N   UNL     1       7.548   5.722  15.285  0.00  0.00    +0.000 N 
ATOM      4  C   UNL     1       6.545   5.287  16.097  0.00  0.00    +0.000 C 
ATOM      5  O   UNL     1       6.381   5.699  17.234  0.00  0.00    +0.000 OA
ATOM      6  C   UNL     1       5.710   4.277  15.382  0.00  0.00    +0.000 C 
ATOM      7  C   UNL     1       4.665   3.580  15.853  0.00  0.00    +0.000 C 
ATOM      8  S   UNL     1       6.307   4.096  13.763  0.00  0.00    +0.000 S 
ATOM      9  H   UNL     1       8.204   6.415  15.605  0.00  0.00    +0.000 HD
ENDROOT
BRANCH   7  10
ATOM     10  C   UNL     1       4.121   3.666  17.190  0.00  0.00    +0.000 C 
ATOM     11  C   UNL     1       2.887   3.262  17.522  0.00  0.00    +0.000 C 
BRANCH  11  12
ATOM     12  C   UNL     1       2.426   3.407  18.904  0.00  0.00    +0.000 A 
ATOM     13  C   UNL     1       2.577   4.630  19.566  0.00  0.00    +0.000 A 
ATOM     14  C   UNL     1       2.194   4.756  20.902  0.00  0.00    +0.000 A 
ATOM     15  C   UNL     1       1.660   3.662  21.581  0.00  0.00    +0.000 A 
ATOM     16  C   UNL     1       1.512   2.439  20.927  0.00  0.00    +0.000 A 
ATOM     17  C   UNL     1       1.895   2.309  19.591  0.00  0.00    +0.000 A 
ENDBRANCH  11  12
ENDBRANCH   7  10
TORSDOF 2
ENDMDL
MODEL 4
REMARK VINA RESULT:      -6.6      6.256      7.432
REMARK  Name = 
REMARK  2 active torsions:
REMARK  status: ('A' for Active; 'I' for Inactive)
REMARK    1  A    between atoms: C_7  and  C_8
REMARK    2  A    between atoms: C_9  and  C_10
REMARK                            x       y       z     vdW  Elec       q    Type
REMARK                         _______ _______ _______ _____ _____    ______ ____
ROOT
ATOM      1  O   UNL     1       0.979   3.529  20.957  0.00  0.00    +0.000 OA
ATOM      2  C   UNL     1       1.689   3.804  20.005  0.00  0.00    +0.000 C 
ATOM      3  N   UNL     1       1.653   3.210  18.789  0.00  0.00    +0.000 N 
ATOM      4  C   UNL     1       2.486   3.673  17.816  0.00  0.00    +0.000 C 
ATOM      5  O   UNL     1       2.484   3.244  16.675  0.00  0.00    +0.000 OA
ATOM      6  C   UNL     1       3.353   4.760  18.362  0.00  0.00    +0.000 C 
ATOM      7  C   UNL     1       4.333   5.431  17.740  0.00  0.00    +0.000 C 
ATOM      8  S   UNL     1       2.914   5.054  20.015  0.00  0.00    +0.000 S 
ATOM      9  H   UNL     1       0.990   2.478  18.591  0.00  0.00    +0.000 HD
ENDROOT
BRANCH   7  10
ATOM     10  C   UNL     1       4.763   5.232  16.374  0.00  0.00    +0.000 C 
ATOM     11  C   UNL     1       5.919   4.644  16.033  0.00  0.00    +0.000 C 
BRANCH  11  12
ATOM     12  C   UNL     1       6.269   4.503  14.619  0.00  0.00    +0.000 A 
ATOM     13  C   UNL     1       5.529   3.644  13.798  0.00  0.00    +0.000 A 
ATOM     14  C   UNL     1       5.895   3.461  12.464  0.00  0.00    +0.000 A 
ATOM     15  C   UNL     1       7.000   4.134  11.945  0.00  0.00    +0.000 A 
ATOM     16  C   UNL     1       7.744   4.987  12.759  0.00  0.00    +0.000 A 
ATOM     17  C   UNL     1       7.381   5.172  14.095  0.00  0.00    +0.000 A 
ENDBRANCH  11  12
ENDBRANCH   7  10
TORSDOF 2
ENDMDL
MODEL 5
REMARK VINA RESULT:      -6.6      5.596      8.204
REMARK  Name = 
REMARK  2 active torsions:
REMARK  status: ('A' for Active; 'I' for Inactive)
REMARK    1  A    between atoms: C_7  and  C_8
REMARK    2  A    between atoms: C_9  and  C_10
REMARK                            x       y       z     vdW  Elec       q    Type
REMARK                         _______ _______ _______ _____ _____    ______ ____
ROOT
ATOM      1  O   UNL     1       8.442   5.630  13.666  0.00  0.00    +0.000 OA
ATOM      2  C   UNL     1       7.517   5.298  14.388  0.00  0.00    +0.000 C 
ATOM      3  N   UNL     1       7.254   5.794  15.621  0.00  0.00    +0.000 N 
ATOM      4  C   UNL     1       6.147   5.347  16.276  0.00  0.00    +0.000 C 
ATOM      5  O   UNL     1       5.795   5.776  17.362  0.00  0.00    +0.000 OA
ATOM      6  C   UNL     1       5.462   4.299  15.463  0.00  0.00    +0.000 C 
ATOM      7  C   UNL     1       4.374   3.581  15.780  0.00  0.00    +0.000 C 
ATOM      8  S   UNL     1       6.312   4.102  13.963  0.00  0.00    +0.000 S 
ATOM      9  H   UNL     1       7.834   6.512  16.023  0.00  0.00    +0.000 HD
ENDROOT
BRANCH   7  10
ATOM     10  C   UNL     1       3.624   3.679  17.013  0.00  0.00    +0.000 C 
ATOM     11  C   UNL     1       3.837   2.897  18.082  0.00  0.00    +0.000 C 
BRANCH  11  12
ATOM     12  C   UNL     1       3.011   3.067  19.278  0.00  0.00    +0.000 A 
ATOM     13  C   UNL     1       3.427   2.523  20.497  0.00  0.00    +0.000 A 
ATOM     14  C   UNL     1       2.616   2.631  21.628  0.00  0.00    +0.000 A 
ATOM     15  C   UNL     1       1.386   3.282  21.544  0.00  0.00    +0.000 A 
ATOM     16  C   UNL     1       0.964   3.823  20.329  0.00  0.00    +0.000 A 
ATOM     17  C   UNL     1       1.773   3.715  19.197  0.00  0.00    +0.000 A 
ENDBRANCH  11  12
ENDBRANCH   7  10
TORSDOF 2
ENDMDL
MODEL 6
REMARK VINA RESULT:      -6.5      0.380      1.252
REMARK  Name = 
REMARK  2 active torsions:
REMARK  status: ('A' for Active; 'I' for Inactive)
REMARK    1  A    between atoms: C_7  and  C_8
REMARK    2  A    between atoms: C_9  and  C_10
REMARK                            x       y       z     vdW  Elec       q    Type
REMARK                         _______ _______ _______ _____ _____    ______ ____
ROOT
ATOM      1  O   UNL     1       5.315   3.235  17.151  0.00  0.00    +0.000 OA
ATOM      2  C   UNL     1       5.893   4.283  17.385  0.00  0.00    +0.000 C 
ATOM      3  N   UNL     1       6.707   4.523  18.441  0.00  0.00    +0.000 N 
ATOM      4  C   UNL     1       7.315   5.738  18.527  0.00  0.00    +0.000 C 
ATOM      5  O   UNL     1       8.110   6.026  19.406  0.00  0.00    +0.000 OA
ATOM      6  C   UNL     1       6.872   6.611  17.400  0.00  0.00    +0.000 C 
ATOM      7  C   UNL     1       7.200   7.889  17.161  0.00  0.00    +0.000 C 
ATOM      8  S   UNL     1       5.797   5.710  16.377  0.00  0.00    +0.000 S 
ATOM      9  H   UNL     1       6.898   3.804  19.119  0.00  0.00    +0.000 HD
ENDROOT
BRANCH   7  10
ATOM     10  C   UNL     1       8.075   8.707  17.973  0.00  0.00    +0.000 C 
ATOM     11  C   UNL     1       8.535   9.909  17.598  0.00  0.00    +0.000 C 
BRANCH  11  12
ATOM     12  C   UNL     1       9.429  10.650  18.489  0.00  0.00    +0.000 A 
ATOM     13  C   UNL     1      10.524  11.342  17.962  0.00  0.00    +0.000 A 
ATOM     14  C   UNL     1      11.413  12.002  18.812  0.00  0.00    +0.000 A 
ATOM     15  C   UNL     1      11.211  11.972  20.191  0.00  0.00    +0.000 A 
ATOM     16  C   UNL     1      10.123  11.279  20.723  0.00  0.00    +0.000 A 
ATOM     17  C   UNL     1       9.233  10.617  19.874  0.00  0.00    +0.000 A 
ENDBRANCH  11  12
ENDBRANCH   7  10
TORSDOF 2
ENDMDL
MODEL 7
REMARK VINA RESULT:      -6.5      6.316      7.475
REMARK  Name = 
REMARK  2 active torsions:
REMARK  status: ('A' for Active; 'I' for Inactive)
REMARK    1  A    between atoms: C_7  and  C_8
REMARK    2  A    between atoms: C_9  and  C_10
REMARK                            x       y       z     vdW  Elec       q    Type
REMARK                         _______ _______ _______ _____ _____    ______ ____
ROOT
ATOM      1  O   UNL     1       0.942   3.089  20.922  0.00  0.00    +0.000 OA
ATOM      2  C   UNL     1       1.663   3.414  19.994  0.00  0.00    +0.000 C 
ATOM      3  N   UNL     1       1.676   2.850  18.762  0.00  0.00    +0.000 N 
ATOM      4  C   UNL     1       2.514   3.368  17.822  0.00  0.00    +0.000 C 
ATOM      5  O   UNL     1       2.554   2.968  16.670  0.00  0.00    +0.000 OA
ATOM      6  C   UNL     1       3.328   4.471  18.415  0.00  0.00    +0.000 C 
ATOM      7  C   UNL     1       4.296   5.193  17.834  0.00  0.00    +0.000 C 
ATOM      8  S   UNL     1       2.840   4.707  20.064  0.00  0.00    +0.000 S 
ATOM      9  H   UNL     1       1.046   2.100  18.531  0.00  0.00    +0.000 HD
ENDROOT
BRANCH   7  10
ATOM     10  C   UNL     1       4.765   5.045  16.473  0.00  0.00    +0.000 C 
ATOM     11  C   UNL     1       5.912   4.435  16.141  0.00  0.00    +0.000 C 
BRANCH  11  12
ATOM     12  C   UNL     1       6.303   4.350  14.733  0.00  0.00    +0.000 A 
ATOM     13  C   UNL     1       7.360   5.131  14.253  0.00  0.00    +0.000 A 
ATOM     14  C   UNL     1       7.699   5.098  12.900  0.00  0.00    +0.000 A 
ATOM     15  C   UNL     1       6.984   4.286  12.021  0.00  0.00    +0.000 A 
ATOM     16  C   UNL     1       5.926   3.509  12.493  0.00  0.00    +0.000 A 
ATOM     17  C   UNL     1       5.584   3.541  13.846  0.00  0.00    +0.000 A 
ENDBRANCH  11  12
ENDBRANCH   7  10
TORSDOF 2
ENDMDL
MODEL 8
REMARK VINA RESULT:      -6.4      5.699      7.262
REMARK  Name = 
REMARK  2 active torsions:
REMARK  status: ('A' for Active; 'I' for Inactive)
REMARK    1  A    between atoms: C_7  and  C_8
REMARK    2  A    between atoms: C_9  and  C_10
REMARK                            x       y       z     vdW  Elec       q    Type
REMARK                         _______ _______ _______ _____ _____    ______ ____
ROOT
ATOM      1  O   UNL     1       1.160   2.467  22.581  0.00  0.00    +0.000 OA
ATOM      2  C   UNL     1       1.658   2.712  21.495  0.00  0.00    +0.000 C 
ATOM      3  N   UNL     1       2.947   2.490  21.144  0.00  0.00    +0.000 N 
ATOM      4  C   UNL     1       3.329   2.777  19.868  0.00  0.00    +0.000 C 
ATOM      5  O   UNL     1       4.451   2.556  19.442  0.00  0.00    +0.000 OA
ATOM      6  C   UNL     1       2.185   3.369  19.114  0.00  0.00    +0.000 C 
ATOM      7  C   UNL     1       2.170   3.829  17.854  0.00  0.00    +0.000 C 
ATOM      8  S   UNL     1       0.787   3.401  20.142  0.00  0.00    +0.000 S 
ATOM      9  H   UNL     1       3.595   2.075  21.793  0.00  0.00    +0.000 HD
ENDROOT
BRANCH   7  10
ATOM     10  C   UNL     1       3.295   3.849  16.945  0.00  0.00    +0.000 C 
ATOM     11  C   UNL     1       4.203   4.834  16.901  0.00  0.00    +0.000 C 
BRANCH  11  12
ATOM     12  C   UNL     1       5.298   4.765  15.932  0.00  0.00    +0.000 A 
ATOM     13  C   UNL     1       6.490   5.456  16.174  0.00  0.00    +0.000 A 
ATOM     14  C   UNL     1       7.515   5.442  15.227  0.00  0.00    +0.000 A 
ATOM     15  C   UNL     1       7.352   4.739  14.034  0.00  0.00    +0.000 A 
ATOM     16  C   UNL     1       6.164   4.053  13.785  0.00  0.00    +0.000 A 
ATOM     17  C   UNL     1       5.137   4.066  14.730  0.00  0.00    +0.000 A 
ENDBRANCH  11  12
ENDBRANCH   7  10
TORSDOF 2
ENDMDL
MODEL 9
REMARK VINA RESULT:      -6.3      5.749      7.293
REMARK  Name = 
REMARK  2 active torsions:
REMARK  status: ('A' for Active; 'I' for Inactive)
REMARK    1  A    between atoms: C_7  and  C_8
REMARK    2  A    between atoms: C_9  and  C_10
REMARK                            x       y       z     vdW  Elec       q    Type
REMARK                         _______ _______ _______ _____ _____    ______ ____
ROOT
ATOM      1  O   UNL     1       1.081   2.443  22.657  0.00  0.00    +0.000 OA
ATOM      2  C   UNL     1       1.612   2.673  21.584  0.00  0.00    +0.000 C 
ATOM      3  N   UNL     1       2.934   2.555  21.311  0.00  0.00    +0.000 N 
ATOM      4  C   UNL     1       3.358   2.806  20.041  0.00  0.00    +0.000 C 
ATOM      5  O   UNL     1       4.516   2.670  19.685  0.00  0.00    +0.000 OA
ATOM      6  C   UNL     1       2.207   3.244  19.196  0.00  0.00    +0.000 C 
ATOM      7  C   UNL     1       2.219   3.630  17.912  0.00  0.00    +0.000 C 
ATOM      8  S   UNL     1       0.758   3.200  20.150  0.00  0.00    +0.000 S 
ATOM      9  H   UNL     1       3.581   2.240  22.015  0.00  0.00    +0.000 HD
ENDROOT
BRANCH   7  10
ATOM     10  C   UNL     1       3.386   3.706  17.060  0.00  0.00    +0.000 C 
ATOM     11  C   UNL     1       4.066   4.837  16.824  0.00  0.00    +0.000 C 
BRANCH  11  12
ATOM     12  C   UNL     1       5.227   4.809  15.933  0.00  0.00    +0.000 A 
ATOM     13  C   UNL     1       5.103   4.288  14.641  0.00  0.00    +0.000 A 
ATOM     14  C   UNL     1       6.220   4.205  13.808  0.00  0.00    +0.000 A 
ATOM     15  C   UNL     1       7.464   4.641  14.263  0.00  0.00    +0.000 A 
ATOM     16  C   UNL     1       7.594   5.156  15.552  0.00  0.00    +0.000 A 
ATOM     17  C   UNL     1       6.479   5.240  16.388  0.00  0.00    +0.000 A 
ENDBRANCH  11  12
ENDBRANCH   7  10
TORSDOF 2
ENDMDL
