MODEL 1
REMARK VINA RESULT:      -8.1      0.000      0.000
REMARK  Name = 
REMARK  14 active torsions:
REMARK  status: ('A' for Active; 'I' for Inactive)
REMARK    1  A    between atoms: C_1  and  O_2
REMARK    2  A    between atoms: O_2  and  C_3
REMARK    3  A    between atoms: C_6  and  N_7
REMARK    4  A    between atoms: C_8  and  C_10
REMARK    5  A    between atoms: C_13  and  C_14
REMARK    6  A    between atoms: C_17  and  C_18
REMARK    7  A    between atoms: C_21  and  C_22
REMARK    8  A    between atoms: C_25  and  C_26
REMARK    9  A    between atoms: C_30  and  O_31
REMARK   10  A    between atoms: O_31  and  C_32
REMARK   11  A    between atoms: C_32  and  C_33
REMARK   12  A    between atoms: C_33  and  N_34
REMARK   13  A    between atoms: N_34  and  C_35
REMARK   14  A    between atoms: N_34  and  C_36
REMARK                            x       y       z     vdW  Elec       q    Type
REMARK                         _______ _______ _______ _____ _____    ______ ____
ROOT
ATOM      1  C   UNL     1       0.608   8.983  20.747  0.00  0.00    +0.000 A 
ATOM      2  C   UNL     1       0.963   9.491  19.495  0.00  0.00    +0.000 A 
ATOM      3  C   UNL     1       1.812   8.770  18.657  0.00  0.00    +0.000 A 
ATOM      4  C   UNL     1       2.374   7.540  19.050  0.00  0.00    +0.000 A 
ATOM      5  C   UNL     1       2.050   7.084  20.340  0.00  0.00    +0.000 A 
ATOM      6  C   UNL     1       1.155   7.775  21.173  0.00  0.00    +0.000 A 
ENDROOT
BRANCH   4   7
ATOM      7  C   UNL     1       3.270   6.805  18.113  0.00  0.00    +0.000 A 
ATOM      8  C   UNL     1       4.280   7.534  17.442  0.00  0.00    +0.000 A 
ATOM      9  C   UNL     1       5.095   6.964  16.460  0.00  0.00    +0.000 A 
ATOM     10  C   UNL     1       4.962   5.620  16.128  0.00  0.00    +0.000 A 
ATOM     11  C   UNL     1       4.000   4.860  16.801  0.00  0.00    +0.000 A 
ATOM     12  C   UNL     1       3.145   5.432  17.779  0.00  0.00    +0.000 A 
ATOM     13  C   UNL     1       2.138   4.505  18.413  0.00  0.00    +0.000 C 
BRANCH  10  14
ATOM     14  C   UNL     1       5.795   5.012  15.095  0.00  0.00    +0.000 A 
ATOM     15  N   UNL     1       7.131   5.137  15.043  0.00  0.00    +0.000 NA
ATOM     16  O   UNL     1       7.488   4.413  13.910  0.00  0.00    +0.000 OA
ATOM     17  C   UNL     1       6.333   3.920  13.387  0.00  0.00    +0.000 A 
ATOM     18  C   UNL     1       6.449   3.106  12.167  0.00  0.00    +0.000 C 
ATOM     19  N   UNL     1       5.263   4.251  14.069  0.00  0.00    +0.000 NA
ENDBRANCH  10  14
ENDBRANCH   4   7
BRANCH   1  21
ATOM     20  N   UNL     1      -0.801  10.972  20.992  0.00  0.00    +0.000 N 
ATOM     21  C   UNL     1      -0.332   9.795  21.556  0.00  0.00    +0.000 C 
ATOM     22  O   UNL     1      -0.611   9.373  22.676  0.00  0.00    +0.000 OA
ATOM     23  H   UNL     1      -0.641  11.148  20.011  0.00  0.00    +0.000 HD
BRANCH  20  27
ATOM     24  C   UNL     1      -2.919  13.967  23.109  0.00  0.00    +0.000 A 
ATOM     25  C   UNL     1      -1.598  13.672  23.432  0.00  0.00    +0.000 A 
ATOM     26  C   UNL     1      -0.905  12.677  22.750  0.00  0.00    +0.000 A 
ATOM     27  C   UNL     1      -1.499  11.976  21.703  0.00  0.00    +0.000 A 
ATOM     28  C   UNL     1      -2.799  12.316  21.318  0.00  0.00    +0.000 A 
ATOM     29  C   UNL     1      -3.516  13.308  22.011  0.00  0.00    +0.000 A 
BRANCH  24  31
ATOM     30  C   UNL     1      -3.251  15.308  25.098  0.00  0.00    +0.000 C 
ATOM     31  O   UNL     1      -3.663  14.867  23.812  0.00  0.00    +0.000 OA
ENDBRANCH  24  31
BRANCH  29  32
ATOM     32  O   UNL     1      -4.805  13.504  21.543  0.00  0.00    +0.000 OA
BRANCH  32  33
ATOM     33  C   UNL     1      -5.246  12.496  20.625  0.00  0.00    +0.000 C 
BRANCH  33  34
ATOM     34  C   UNL     1      -5.676  13.086  19.269  0.00  0.00    +0.000 C 
BRANCH  34  35
ATOM     35  N   UNL     1      -6.080  12.025  18.317  0.00  0.00    +0.000 NA
ATOM     36  C   UNL     1      -4.948  11.526  17.533  0.00  0.00    +0.000 C 
ATOM     37  C   UNL     1      -6.744  10.917  18.999  0.00  0.00    +0.000 C 
ENDBRANCH  34  35
ENDBRANCH  33  34
ENDBRANCH  32  33
ENDBRANCH  29  32
ENDBRANCH  20  27
ENDBRANCH   1  21
TORSDOF 9
ENDMDL
MODEL 2
REMARK VINA RESULT:      -8.0      2.809     12.234
REMARK  Name = 
REMARK  14 active torsions:
REMARK  status: ('A' for Active; 'I' for Inactive)
REMARK    1  A    between atoms: C_1  and  O_2
REMARK    2  A    between atoms: O_2  and  C_3
REMARK    3  A    between atoms: C_6  and  N_7
REMARK    4  A    between atoms: C_8  and  C_10
REMARK    5  A    between atoms: C_13  and  C_14
REMARK    6  A    between atoms: C_17  and  C_18
REMARK    7  A    between atoms: C_21  and  C_22
REMARK    8  A    between atoms: C_25  and  C_26
REMARK    9  A    between atoms: C_30  and  O_31
REMARK   10  A    between atoms: O_31  and  C_32
REMARK   11  A    between atoms: C_32  and  C_33
REMARK   12  A    between atoms: C_33  and  N_34
REMARK   13  A    between atoms: N_34  and  C_35
REMARK   14  A    between atoms: N_34  and  C_36
REMARK                            x       y       z     vdW  Elec       q    Type
REMARK                         _______ _______ _______ _____ _____    ______ ____
ROOT
ATOM      1  C   UNL     1       1.350   8.655  19.890  0.00  0.00    +0.000 A 
ATOM      2  C   UNL     1       0.701   8.514  21.119  0.00  0.00    +0.000 A 
ATOM      3  C   UNL     1      -0.206   9.480  21.552  0.00  0.00    +0.000 A 
ATOM      4  C   UNL     1      -0.466  10.643  20.801  0.00  0.00    +0.000 A 
ATOM      5  C   UNL     1       0.249  10.789  19.599  0.00  0.00    +0.000 A 
ATOM      6  C   UNL     1       1.127   9.799  19.127  0.00  0.00    +0.000 A 
ENDROOT
BRANCH   4   7
ATOM      7  C   UNL     1      -1.450  11.642  21.305  0.00  0.00    +0.000 A 
ATOM      8  C   UNL     1      -1.453  11.941  22.688  0.00  0.00    +0.000 A 
ATOM      9  C   UNL     1      -2.408  12.773  23.278  0.00  0.00    +0.000 A 
ATOM     10  C   UNL     1      -3.389  13.380  22.500  0.00  0.00    +0.000 A 
ATOM     11  C   UNL     1      -3.390  13.139  21.123  0.00  0.00    +0.000 A 
ATOM     12  C   UNL     1      -2.445  12.272  20.515  0.00  0.00    +0.000 A 
ATOM     13  C   UNL     1      -2.573  12.083  19.023  0.00  0.00    +0.000 C 
BRANCH  10  14
ATOM     14  C   UNL     1      -4.403  14.241  23.102  0.00  0.00    +0.000 A 
ATOM     15  N   UNL     1      -5.571  13.792  23.588  0.00  0.00    +0.000 NA
ATOM     16  O   UNL     1      -6.205  14.943  24.043  0.00  0.00    +0.000 OA
ATOM     17  C   UNL     1      -5.358  15.977  23.788  0.00  0.00    +0.000 A 
ATOM     18  C   UNL     1      -5.809  17.320  24.186  0.00  0.00    +0.000 C 
ATOM     19  N   UNL     1      -4.238  15.610  23.214  0.00  0.00    +0.000 NA
ENDBRANCH  10  14
ENDBRANCH   4   7
BRANCH   1  21
ATOM     20  N   UNL     1       2.987   7.735  18.317  0.00  0.00    +0.000 N 
ATOM     21  C   UNL     1       2.267   7.561  19.488  0.00  0.00    +0.000 C 
ATOM     22  O   UNL     1       2.306   6.572  20.216  0.00  0.00    +0.000 OA
ATOM     23  H   UNL     1       3.007   8.645  17.879  0.00  0.00    +0.000 HD
BRANCH  20  27
ATOM     24  C   UNL     1       5.128   4.647  16.361  0.00  0.00    +0.000 A 
ATOM     25  C   UNL     1       5.593   5.958  16.334  0.00  0.00    +0.000 A 
ATOM     26  C   UNL     1       4.884   6.977  16.961  0.00  0.00    +0.000 A 
ATOM     27  C   UNL     1       3.711   6.710  17.664  0.00  0.00    +0.000 A 
ATOM     28  C   UNL     1       3.274   5.386  17.764  0.00  0.00    +0.000 A 
ATOM     29  C   UNL     1       3.973   4.349  17.120  0.00  0.00    +0.000 A 
BRANCH  24  31
ATOM     30  C   UNL     1       6.246   3.840  14.372  0.00  0.00    +0.000 C 
ATOM     31  O   UNL     1       5.740   3.636  15.683  0.00  0.00    +0.000 OA
ENDBRANCH  24  31
BRANCH  29  32
ATOM     32  O   UNL     1       3.396   3.099  17.273  0.00  0.00    +0.000 OA
BRANCH  32  33
ATOM     33  C   UNL     1       2.073   3.136  17.822  0.00  0.00    +0.000 C 
BRANCH  33  34
ATOM     34  C   UNL     1       1.801   1.959  18.776  0.00  0.00    +0.000 C 
BRANCH  34  35
ATOM     35  N   UNL     1       1.733   2.407  20.187  0.00  0.00    +0.000 NA
ATOM     36  C   UNL     1       3.054   2.739  20.725  0.00  0.00    +0.000 C 
ATOM     37  C   UNL     1       0.827   3.541  20.346  0.00  0.00    +0.000 C 
ENDBRANCH  34  35
ENDBRANCH  33  34
ENDBRANCH  32  33
ENDBRANCH  29  32
ENDBRANCH  20  27
ENDBRANCH   1  21
TORSDOF 9
ENDMDL
MODEL 3
REMARK VINA RESULT:      -8.0      1.263      1.691
REMARK  Name = 
REMARK  14 active torsions:
REMARK  status: ('A' for Active; 'I' for Inactive)
REMARK    1  A    between atoms: C_1  and  O_2
REMARK    2  A    between atoms: O_2  and  C_3
REMARK    3  A    between atoms: C_6  and  N_7
REMARK    4  A    between atoms: C_8  and  C_10
REMARK    5  A    between atoms: C_13  and  C_14
REMARK    6  A    between atoms: C_17  and  C_18
REMARK    7  A    between atoms: C_21  and  C_22
REMARK    8  A    between atoms: C_25  and  C_26
REMARK    9  A    between atoms: C_30  and  O_31
REMARK   10  A    between atoms: O_31  and  C_32
REMARK   11  A    between atoms: C_32  and  C_33
REMARK   12  A    between atoms: C_33  and  N_34
REMARK   13  A    between atoms: N_34  and  C_35
REMARK   14  A    between atoms: N_34  and  C_36
REMARK                            x       y       z     vdW  Elec       q    Type
REMARK                         _______ _______ _______ _____ _____    ______ ____
ROOT
ATOM      1  C   UNL     1       0.552   9.248  20.836  0.00  0.00    +0.000 A 
ATOM      2  C   UNL     1       1.202   8.094  21.281  0.00  0.00    +0.000 A 
ATOM      3  C   UNL     1       2.032   7.377  20.420  0.00  0.00    +0.000 A 
ATOM      4  C   UNL     1       2.209   7.754  19.075  0.00  0.00    +0.000 A 
ATOM      5  C   UNL     1       1.492   8.882  18.638  0.00  0.00    +0.000 A 
ATOM      6  C   UNL     1       0.694   9.643  19.508  0.00  0.00    +0.000 A 
ENDROOT
BRANCH   4   7
ATOM      7  C   UNL     1       3.112   6.957  18.198  0.00  0.00    +0.000 A 
ATOM      8  C   UNL     1       4.130   7.639  17.489  0.00  0.00    +0.000 A 
ATOM      9  C   UNL     1       4.953   7.005  16.554  0.00  0.00    +0.000 A 
ATOM     10  C   UNL     1       4.821   5.641  16.312  0.00  0.00    +0.000 A 
ATOM     11  C   UNL     1       3.852   4.928  17.026  0.00  0.00    +0.000 A 
ATOM     12  C   UNL     1       2.989   5.565  17.956  0.00  0.00    +0.000 A 
ATOM     13  C   UNL     1       1.976   4.683  18.641  0.00  0.00    +0.000 C 
BRANCH  10  14
ATOM     14  C   UNL     1       5.662   4.965  15.329  0.00  0.00    +0.000 A 
ATOM     15  N   UNL     1       6.995   4.843  15.444  0.00  0.00    +0.000 NA
ATOM     16  O   UNL     1       7.364   4.149  14.297  0.00  0.00    +0.000 OA
ATOM     17  C   UNL     1       6.220   3.918  13.599  0.00  0.00    +0.000 A 
ATOM     18  C   UNL     1       6.350   3.187  12.329  0.00  0.00    +0.000 C 
ATOM     19  N   UNL     1       5.145   4.393  14.181  0.00  0.00    +0.000 NA
ENDBRANCH  10  14
ENDBRANCH   4   7
BRANCH   1  21
ATOM     20  N   UNL     1      -0.798  11.200  21.446  0.00  0.00    +0.000 N 
ATOM     21  C   UNL     1      -0.277   9.973  21.829  0.00  0.00    +0.000 C 
ATOM     22  O   UNL     1      -0.427   9.439  22.925  0.00  0.00    +0.000 OA
ATOM     23  H   UNL     1      -0.753  11.474  20.475  0.00  0.00    +0.000 HD
BRANCH  20  27
ATOM     24  C   UNL     1      -2.610  13.949  24.110  0.00  0.00    +0.000 A 
ATOM     25  C   UNL     1      -1.394  14.248  23.503  0.00  0.00    +0.000 A 
ATOM     26  C   UNL     1      -0.788  13.340  22.640  0.00  0.00    +0.000 A 
ATOM     27  C   UNL     1      -1.396  12.125  22.331  0.00  0.00    +0.000 A 
ATOM     28  C   UNL     1      -2.654  11.846  22.874  0.00  0.00    +0.000 A 
ATOM     29  C   UNL     1      -3.269  12.749  23.761  0.00  0.00    +0.000 A 
BRANCH  24  31
ATOM     30  C   UNL     1      -2.400  15.579  25.888  0.00  0.00    +0.000 C 
ATOM     31  O   UNL     1      -3.191  14.767  25.033  0.00  0.00    +0.000 OA
ENDBRANCH  24  31
BRANCH  29  32
ATOM     32  O   UNL     1      -4.491  12.315  24.250  0.00  0.00    +0.000 OA
BRANCH  32  33
ATOM     33  C   UNL     1      -5.601  13.110  23.818  0.00  0.00    +0.000 C 
BRANCH  33  34
ATOM     34  C   UNL     1      -6.176  12.632  22.472  0.00  0.00    +0.000 C 
BRANCH  34  35
ATOM     35  N   UNL     1      -5.969  13.636  21.402  0.00  0.00    +0.000 NA
ATOM     36  C   UNL     1      -5.050  13.160  20.367  0.00  0.00    +0.000 C 
ATOM     37  C   UNL     1      -7.235  14.045  20.799  0.00  0.00    +0.000 C 
ENDBRANCH  34  35
ENDBRANCH  33  34
ENDBRANCH  32  33
ENDBRANCH  29  32
ENDBRANCH  20  27
ENDBRANCH   1  21
TORSDOF 9
ENDMDL
MODEL 4
REMARK VINA RESULT:      -8.0      0.992      1.276
REMARK  Name = 
REMARK  14 active torsions:
REMARK  status: ('A' for Active; 'I' for Inactive)
REMARK    1  A    between atoms: C_1  and  O_2
REMARK    2  A    between atoms: O_2  and  C_3
REMARK    3  A    between atoms: C_6  and  N_7
REMARK    4  A    between atoms: C_8  and  C_10
REMARK    5  A    between atoms: C_13  and  C_14
REMARK    6  A    between atoms: C_17  and  C_18
REMARK    7  A    between atoms: C_21  and  C_22
REMARK    8  A    between atoms: C_25  and  C_26
REMARK    9  A    between atoms: C_30  and  O_31
REMARK   10  A    between atoms: O_31  and  C_32
REMARK   11  A    between atoms: C_32  and  C_33
REMARK   12  A    between atoms: C_33  and  N_34
REMARK   13  A    between atoms: N_34  and  C_35
REMARK   14  A    between atoms: N_34  and  C_36
REMARK                            x       y       z     vdW  Elec       q    Type
REMARK                         _______ _______ _______ _____ _____    ______ ____
ROOT
ATOM      1  C   UNL     1       0.439   9.374  20.751  0.00  0.00    +0.000 A 
ATOM      2  C   UNL     1       1.084   8.228  21.223  0.00  0.00    +0.000 A 
ATOM      3  C   UNL     1       1.934   7.503  20.389  0.00  0.00    +0.000 A 
ATOM      4  C   UNL     1       2.137   7.864  19.043  0.00  0.00    +0.000 A 
ATOM      5  C   UNL     1       1.426   8.984  18.577  0.00  0.00    +0.000 A 
ATOM      6  C   UNL     1       0.608   9.753  19.422  0.00  0.00    +0.000 A 
ENDROOT
BRANCH   4   7
ATOM      7  C   UNL     1       3.061   7.060  18.195  0.00  0.00    +0.000 A 
ATOM      8  C   UNL     1       4.078   7.739  17.482  0.00  0.00    +0.000 A 
ATOM      9  C   UNL     1       4.920   7.095  16.572  0.00  0.00    +0.000 A 
ATOM     10  C   UNL     1       4.809   5.725  16.359  0.00  0.00    +0.000 A 
ATOM     11  C   UNL     1       3.842   5.015  17.078  0.00  0.00    +0.000 A 
ATOM     12  C   UNL     1       2.959   5.662  17.983  0.00  0.00    +0.000 A 
ATOM     13  C   UNL     1       1.949   4.781  18.676  0.00  0.00    +0.000 C 
BRANCH  10  14
ATOM     14  C   UNL     1       5.671   5.038  15.401  0.00  0.00    +0.000 A 
ATOM     15  N   UNL     1       7.006   4.962  15.519  0.00  0.00    +0.000 NA
ATOM     16  O   UNL     1       7.397   4.236  14.399  0.00  0.00    +0.000 OA
ATOM     17  C   UNL     1       6.259   3.943  13.712  0.00  0.00    +0.000 A 
ATOM     18  C   UNL     1       6.412   3.167  12.472  0.00  0.00    +0.000 C 
ATOM     19  N   UNL     1       5.171   4.405  14.277  0.00  0.00    +0.000 NA
ENDBRANCH  10  14
ENDBRANCH   4   7
BRANCH   1  21
ATOM     20  N   UNL     1      -1.006  11.281  21.277  0.00  0.00    +0.000 N 
ATOM     21  C   UNL     1      -0.413  10.108  21.718  0.00  0.00    +0.000 C 
ATOM     22  O   UNL     1      -0.516   9.630  22.845  0.00  0.00    +0.000 OA
ATOM     23  H   UNL     1      -0.991  11.503  20.291  0.00  0.00    +0.000 HD
BRANCH  20  27
ATOM     24  C   UNL     1      -2.934  14.082  23.803  0.00  0.00    +0.000 A 
ATOM     25  C   UNL     1      -1.545  14.028  23.735  0.00  0.00    +0.000 A 
ATOM     26  C   UNL     1      -0.908  13.098  22.919  0.00  0.00    +0.000 A 
ATOM     27  C   UNL     1      -1.640  12.222  22.121  0.00  0.00    +0.000 A 
ATOM     28  C   UNL     1      -3.035  12.318  22.121  0.00  0.00    +0.000 A 
ATOM     29  C   UNL     1      -3.690  13.242  22.955  0.00  0.00    +0.000 A 
BRANCH  24  31
ATOM     30  C   UNL     1      -4.199  16.109  24.192  0.00  0.00    +0.000 C 
ATOM     31  O   UNL     1      -3.596  14.911  24.658  0.00  0.00    +0.000 OA
ENDBRANCH  24  31
BRANCH  29  32
ATOM     32  O   UNL     1      -5.073  13.190  22.879  0.00  0.00    +0.000 OA
BRANCH  32  33
ATOM     33  C   UNL     1      -5.563  12.591  21.673  0.00  0.00    +0.000 C 
BRANCH  33  34
ATOM     34  C   UNL     1      -6.717  13.395  21.046  0.00  0.00    +0.000 C 
BRANCH  34  35
ATOM     35  N   UNL     1      -7.605  12.531  20.234  0.00  0.00    +0.000 NA
ATOM     36  C   UNL     1      -7.604  12.912  18.820  0.00  0.00    +0.000 C 
ATOM     37  C   UNL     1      -7.253  11.120  20.373  0.00  0.00    +0.000 C 
ENDBRANCH  34  35
ENDBRANCH  33  34
ENDBRANCH  32  33
ENDBRANCH  29  32
ENDBRANCH  20  27
ENDBRANCH   1  21
TORSDOF 9
ENDMDL
MODEL 5
REMARK VINA RESULT:      -8.0      2.773     12.223
REMARK  Name = 
REMARK  14 active torsions:
REMARK  status: ('A' for Active; 'I' for Inactive)
REMARK    1  A    between atoms: C_1  and  O_2
REMARK    2  A    between atoms: O_2  and  C_3
REMARK    3  A    between atoms: C_6  and  N_7
REMARK    4  A    between atoms: C_8  and  C_10
REMARK    5  A    between atoms: C_13  and  C_14
REMARK    6  A    between atoms: C_17  and  C_18
REMARK    7  A    between atoms: C_21  and  C_22
REMARK    8  A    between atoms: C_25  and  C_26
REMARK    9  A    between atoms: C_30  and  O_31
REMARK   10  A    between atoms: O_31  and  C_32
REMARK   11  A    between atoms: C_32  and  C_33
REMARK   12  A    between atoms: C_33  and  N_34
REMARK   13  A    between atoms: N_34  and  C_35
REMARK   14  A    between atoms: N_34  and  C_36
REMARK                            x       y       z     vdW  Elec       q    Type
REMARK                         _______ _______ _______ _____ _____    ______ ____
ROOT
ATOM      1  C   UNL     1       1.530   8.632  19.682  0.00  0.00    +0.000 A 
ATOM      2  C   UNL     1       0.929   8.514  20.938  0.00  0.00    +0.000 A 
ATOM      3  C   UNL     1       0.063   9.504  21.400  0.00  0.00    +0.000 A 
ATOM      4  C   UNL     1      -0.202  10.666  20.651  0.00  0.00    +0.000 A 
ATOM      5  C   UNL     1       0.466  10.788  19.420  0.00  0.00    +0.000 A 
ATOM      6  C   UNL     1       1.301   9.775  18.920  0.00  0.00    +0.000 A 
ENDROOT
BRANCH   4   7
ATOM      7  C   UNL     1      -1.142  11.691  21.187  0.00  0.00    +0.000 A 
ATOM      8  C   UNL     1      -0.980  12.112  22.528  0.00  0.00    +0.000 A 
ATOM      9  C   UNL     1      -1.876  12.979  23.160  0.00  0.00    +0.000 A 
ATOM     10  C   UNL     1      -2.963  13.499  22.463  0.00  0.00    +0.000 A 
ATOM     11  C   UNL     1      -3.129  13.136  21.122  0.00  0.00    +0.000 A 
ATOM     12  C   UNL     1      -2.244  12.232  20.477  0.00  0.00    +0.000 A 
ATOM     13  C   UNL     1      -2.552  11.909  19.036  0.00  0.00    +0.000 C 
BRANCH  10  14
ATOM     14  C   UNL     1      -3.916  14.394  23.110  0.00  0.00    +0.000 A 
ATOM     15  N   UNL     1      -3.614  15.173  24.162  0.00  0.00    +0.000 NA
ATOM     16  O   UNL     1      -4.806  15.832  24.440  0.00  0.00    +0.000 OA
ATOM     17  C   UNL     1      -5.715  15.388  23.529  0.00  0.00    +0.000 A 
ATOM     18  C   UNL     1      -7.072  15.947  23.616  0.00  0.00    +0.000 C 
ATOM     19  N   UNL     1      -5.228  14.508  22.688  0.00  0.00    +0.000 NA
ENDBRANCH  10  14
ENDBRANCH   4   7
BRANCH   1  21
ATOM     20  N   UNL     1       3.180   7.715  18.120  0.00  0.00    +0.000 N 
ATOM     21  C   UNL     1       2.405   7.514  19.252  0.00  0.00    +0.000 C 
ATOM     22  O   UNL     1       2.363   6.485  19.922  0.00  0.00    +0.000 OA
ATOM     23  H   UNL     1       3.264   8.646  17.738  0.00  0.00    +0.000 HD
BRANCH  20  27
ATOM     24  C   UNL     1       5.240   4.628  16.079  0.00  0.00    +0.000 A 
ATOM     25  C   UNL     1       5.557   5.963  15.849  0.00  0.00    +0.000 A 
ATOM     26  C   UNL     1       4.871   6.980  16.505  0.00  0.00    +0.000 A 
ATOM     27  C   UNL     1       3.876   6.691  17.437  0.00  0.00    +0.000 A 
ATOM     28  C   UNL     1       3.601   5.353  17.734  0.00  0.00    +0.000 A 
ATOM     29  C   UNL     1       4.276   4.316  17.064  0.00  0.00    +0.000 A 
BRANCH  24  31
ATOM     30  C   UNL     1       6.238   3.778  14.044  0.00  0.00    +0.000 C 
ATOM     31  O   UNL     1       5.821   3.606  15.390  0.00  0.00    +0.000 OA
ENDBRANCH  24  31
BRANCH  29  32
ATOM     32  O   UNL     1       3.867   3.045  17.434  0.00  0.00    +0.000 OA
BRANCH  32  33
ATOM     33  C   UNL     1       4.127   2.730  18.807  0.00  0.00    +0.000 C 
BRANCH  33  34
ATOM     34  C   UNL     1       2.951   1.990  19.472  0.00  0.00    +0.000 C 
BRANCH  34  35
ATOM     35  N   UNL     1       1.797   2.891  19.696  0.00  0.00    +0.000 NA
ATOM     36  C   UNL     1       0.669   2.573  18.817  0.00  0.00    +0.000 C 
ATOM     37  C   UNL     1       1.365   2.872  21.092  0.00  0.00    +0.000 C 
ENDBRANCH  34  35
ENDBRANCH  33  34
ENDBRANCH  32  33
ENDBRANCH  29  32
ENDBRANCH  20  27
ENDBRANCH   1  21
TORSDOF 9
ENDMDL
MODEL 6
REMARK VINA RESULT:      -8.0      0.824      1.038
REMARK  Name = 
REMARK  14 active torsions:
REMARK  status: ('A' for Active; 'I' for Inactive)
REMARK    1  A    between atoms: C_1  and  O_2
REMARK    2  A    between atoms: O_2  and  C_3
REMARK    3  A    between atoms: C_6  and  N_7
REMARK    4  A    between atoms: C_8  and  C_10
REMARK    5  A    between atoms: C_13  and  C_14
REMARK    6  A    between atoms: C_17  and  C_18
REMARK    7  A    between atoms: C_21  and  C_22
REMARK    8  A    between atoms: C_25  and  C_26
REMARK    9  A    between atoms: C_30  and  O_31
REMARK   10  A    between atoms: O_31  and  C_32
REMARK   11  A    between atoms: C_32  and  C_33
REMARK   12  A    between atoms: C_33  and  N_34
REMARK   13  A    between atoms: N_34  and  C_35
REMARK   14  A    between atoms: N_34  and  C_36
REMARK                            x       y       z     vdW  Elec       q    Type
REMARK                         _______ _______ _______ _____ _____    ______ ____
ROOT
ATOM      1  C   UNL     1       0.542   9.247  20.708  0.00  0.00    +0.000 A 
ATOM      2  C   UNL     1       0.882   9.670  19.421  0.00  0.00    +0.000 A 
ATOM      3  C   UNL     1       1.720   8.893  18.622  0.00  0.00    +0.000 A 
ATOM      4  C   UNL     1       2.286   7.692  19.090  0.00  0.00    +0.000 A 
ATOM      5  C   UNL     1       1.978   7.323  20.412  0.00  0.00    +0.000 A 
ATOM      6  C   UNL     1       1.094   8.070  21.208  0.00  0.00    +0.000 A 
ENDROOT
BRANCH   4   7
ATOM      7  C   UNL     1       3.170   6.895  18.194  0.00  0.00    +0.000 A 
ATOM      8  C   UNL     1       4.176   7.575  17.467  0.00  0.00    +0.000 A 
ATOM      9  C   UNL     1       4.979   6.941  16.515  0.00  0.00    +0.000 A 
ATOM     10  C   UNL     1       4.838   5.578  16.272  0.00  0.00    +0.000 A 
ATOM     11  C   UNL     1       3.882   4.867  17.003  0.00  0.00    +0.000 A 
ATOM     12  C   UNL     1       3.038   5.504  17.951  0.00  0.00    +0.000 A 
ATOM     13  C   UNL     1       2.036   4.623  18.654  0.00  0.00    +0.000 C 
BRANCH  10  14
ATOM     14  C   UNL     1       5.658   4.902  15.272  0.00  0.00    +0.000 A 
ATOM     15  N   UNL     1       6.993   4.781  15.358  0.00  0.00    +0.000 NA
ATOM     16  O   UNL     1       7.338   4.086  14.204  0.00  0.00    +0.000 OA
ATOM     17  C   UNL     1       6.179   3.854  13.531  0.00  0.00    +0.000 A 
ATOM     18  C   UNL     1       6.282   3.122  12.259  0.00  0.00    +0.000 C 
ATOM     19  N   UNL     1       5.117   4.328  14.136  0.00  0.00    +0.000 NA
ENDBRANCH  10  14
ENDBRANCH   4   7
BRANCH   1  21
ATOM     20  N   UNL     1      -0.812  11.283  20.862  0.00  0.00    +0.000 N 
ATOM     21  C   UNL     1      -0.388  10.113  21.473  0.00  0.00    +0.000 C 
ATOM     22  O   UNL     1      -0.699   9.737  22.600  0.00  0.00    +0.000 OA
ATOM     23  H   UNL     1      -0.630  11.421  19.878  0.00  0.00    +0.000 HD
BRANCH  20  27
ATOM     24  C   UNL     1      -2.878  14.406  22.842  0.00  0.00    +0.000 A 
ATOM     25  C   UNL     1      -1.529  14.176  23.097  0.00  0.00    +0.000 A 
ATOM     26  C   UNL     1      -0.852  13.141  22.460  0.00  0.00    +0.000 A 
ATOM     27  C   UNL     1      -1.492  12.330  21.526  0.00  0.00    +0.000 A 
ATOM     28  C   UNL     1      -2.826  12.599  21.204  0.00  0.00    +0.000 A 
ATOM     29  C   UNL     1      -3.526  13.632  21.853  0.00  0.00    +0.000 A 
BRANCH  24  31
ATOM     30  C   UNL     1      -3.820  15.239  24.911  0.00  0.00    +0.000 C 
ATOM     31  O   UNL     1      -3.602  15.346  23.512  0.00  0.00    +0.000 OA
ENDBRANCH  24  31
BRANCH  29  32
ATOM     32  O   UNL     1      -4.850  13.750  21.461  0.00  0.00    +0.000 OA
BRANCH  32  33
ATOM     33  C   UNL     1      -5.758  12.968  22.246  0.00  0.00    +0.000 C 
BRANCH  33  34
ATOM     34  C   UNL     1      -7.058  12.643  21.489  0.00  0.00    +0.000 C 
BRANCH  34  35
ATOM     35  N   UNL     1      -6.833  11.633  20.428  0.00  0.00    +0.000 NA
ATOM     36  C   UNL     1      -7.592  10.404  20.665  0.00  0.00    +0.000 C 
ATOM     37  C   UNL     1      -7.145  12.169  19.105  0.00  0.00    +0.000 C 
ENDBRANCH  34  35
ENDBRANCH  33  34
ENDBRANCH  32  33
ENDBRANCH  29  32
ENDBRANCH  20  27
ENDBRANCH   1  21
TORSDOF 9
ENDMDL
MODEL 7
REMARK VINA RESULT:      -8.0      2.775     12.235
REMARK  Name = 
REMARK  14 active torsions:
REMARK  status: ('A' for Active; 'I' for Inactive)
REMARK    1  A    between atoms: C_1  and  O_2
REMARK    2  A    between atoms: O_2  and  C_3
REMARK    3  A    between atoms: C_6  and  N_7
REMARK    4  A    between atoms: C_8  and  C_10
REMARK    5  A    between atoms: C_13  and  C_14
REMARK    6  A    between atoms: C_17  and  C_18
REMARK    7  A    between atoms: C_21  and  C_22
REMARK    8  A    between atoms: C_25  and  C_26
REMARK    9  A    between atoms: C_30  and  O_31
REMARK   10  A    between atoms: O_31  and  C_32
REMARK   11  A    between atoms: C_32  and  C_33
REMARK   12  A    between atoms: C_33  and  N_34
REMARK   13  A    between atoms: N_34  and  C_35
REMARK   14  A    between atoms: N_34  and  C_36
REMARK                            x       y       z     vdW  Elec       q    Type
REMARK                         _______ _______ _______ _____ _____    ______ ____
ROOT
ATOM      1  C   UNL     1       1.549   8.238  20.048  0.00  0.00    +0.000 A 
ATOM      2  C   UNL     1       1.276   9.330  19.221  0.00  0.00    +0.000 A 
ATOM      3  C   UNL     1       0.452  10.363  19.666  0.00  0.00    +0.000 A 
ATOM      4  C   UNL     1      -0.164  10.326  20.931  0.00  0.00    +0.000 A 
ATOM      5  C   UNL     1       0.078   9.186  21.717  0.00  0.00    +0.000 A 
ATOM      6  C   UNL     1       0.946   8.163  21.301  0.00  0.00    +0.000 A 
ENDROOT
BRANCH   4   7
ATOM      7  C   UNL     1      -1.030  11.460  21.363  0.00  0.00    +0.000 A 
ATOM      8  C   UNL     1      -0.925  11.911  22.700  0.00  0.00    +0.000 A 
ATOM      9  C   UNL     1      -1.770  12.886  23.237  0.00  0.00    +0.000 A 
ATOM     10  C   UNL     1      -2.743  13.487  22.443  0.00  0.00    +0.000 A 
ATOM     11  C   UNL     1      -2.847  13.094  21.105  0.00  0.00    +0.000 A 
ATOM     12  C   UNL     1      -2.015  12.083  20.556  0.00  0.00    +0.000 A 
ATOM     13  C   UNL     1      -2.248  11.741  19.105  0.00  0.00    +0.000 C 
BRANCH  10  14
ATOM     14  C   UNL     1      -3.643  14.498  22.990  0.00  0.00    +0.000 A 
ATOM     15  N   UNL     1      -3.258  15.457  23.847  0.00  0.00    +0.000 NA
ATOM     16  O   UNL     1      -4.427  16.168  24.096  0.00  0.00    +0.000 OA
ATOM     17  C   UNL     1      -5.406  15.570  23.366  0.00  0.00    +0.000 A 
ATOM     18  C   UNL     1      -6.755  16.149  23.460  0.00  0.00    +0.000 C 
ATOM     19  N   UNL     1      -4.988  14.543  22.667  0.00  0.00    +0.000 NA
ENDBRANCH  10  14
ENDBRANCH   4   7
BRANCH   1  21
ATOM     20  N   UNL     1       3.095   7.480  18.305  0.00  0.00    +0.000 N 
ATOM     21  C   UNL     1       2.468   7.205  19.511  0.00  0.00    +0.000 C 
ATOM     22  O   UNL     1       2.591   6.174  20.167  0.00  0.00    +0.000 OA
ATOM     23  H   UNL     1       3.053   8.416  17.928  0.00  0.00    +0.000 HD
BRANCH  20  27
ATOM     24  C   UNL     1       5.184   4.601  16.006  0.00  0.00    +0.000 A 
ATOM     25  C   UNL     1       5.514   5.951  15.920  0.00  0.00    +0.000 A 
ATOM     26  C   UNL     1       4.819   6.900  16.662  0.00  0.00    +0.000 A 
ATOM     27  C   UNL     1       3.800   6.526  17.536  0.00  0.00    +0.000 A 
ATOM     28  C   UNL     1       3.512   5.167  17.689  0.00  0.00    +0.000 A 
ATOM     29  C   UNL     1       4.196   4.198  16.932  0.00  0.00    +0.000 A 
BRANCH  24  31
ATOM     30  C   UNL     1       6.178   3.942  13.899  0.00  0.00    +0.000 C 
ATOM     31  O   UNL     1       5.775   3.650  15.228  0.00  0.00    +0.000 OA
ENDBRANCH  24  31
BRANCH  29  32
ATOM     32  O   UNL     1       3.771   2.899  17.160  0.00  0.00    +0.000 OA
BRANCH  32  33
ATOM     33  C   UNL     1       2.453   2.812  17.714  0.00  0.00    +0.000 C 
BRANCH  33  34
ATOM     34  C   UNL     1       2.417   1.986  19.014  0.00  0.00    +0.000 C 
BRANCH  34  35
ATOM     35  N   UNL     1       3.055   2.712  20.137  0.00  0.00    +0.000 NA
ATOM     36  C   UNL     1       2.226   2.699  21.344  0.00  0.00    +0.000 C 
ATOM     37  C   UNL     1       4.382   2.177  20.435  0.00  0.00    +0.000 C 
ENDBRANCH  34  35
ENDBRANCH  33  34
ENDBRANCH  32  33
ENDBRANCH  29  32
ENDBRANCH  20  27
ENDBRANCH   1  21
TORSDOF 9
ENDMDL
MODEL 8
REMARK VINA RESULT:      -7.9      2.827     12.322
REMARK  Name = 
REMARK  14 active torsions:
REMARK  status: ('A' for Active; 'I' for Inactive)
REMARK    1  A    between atoms: C_1  and  O_2
REMARK    2  A    between atoms: O_2  and  C_3
REMARK    3  A    between atoms: C_6  and  N_7
REMARK    4  A    between atoms: C_8  and  C_10
REMARK    5  A    between atoms: C_13  and  C_14
REMARK    6  A    between atoms: C_17  and  C_18
REMARK    7  A    between atoms: C_21  and  C_22
REMARK    8  A    between atoms: C_25  and  C_26
REMARK    9  A    between atoms: C_30  and  O_31
REMARK   10  A    between atoms: O_31  and  C_32
REMARK   11  A    between atoms: C_32  and  C_33
REMARK   12  A    between atoms: C_33  and  N_34
REMARK   13  A    between atoms: N_34  and  C_35
REMARK   14  A    between atoms: N_34  and  C_36
REMARK                            x       y       z     vdW  Elec       q    Type
REMARK                         _______ _______ _______ _____ _____    ______ ____
ROOT
ATOM      1  C   UNL     1       0.999   8.657  20.570  0.00  0.00    +0.000 A 
ATOM      2  C   UNL     1       0.784   9.739  19.712  0.00  0.00    +0.000 A 
ATOM      3  C   UNL     1      -0.007  10.813  20.118  0.00  0.00    +0.000 A 
ATOM      4  C   UNL     1      -0.647  10.831  21.372  0.00  0.00    +0.000 A 
ATOM      5  C   UNL     1      -0.465   9.701  22.188  0.00  0.00    +0.000 A 
ATOM      6  C   UNL     1       0.371   8.636  21.812  0.00  0.00    +0.000 A 
ENDROOT
BRANCH   4   7
ATOM      7  C   UNL     1      -1.476  12.007  21.761  0.00  0.00    +0.000 A 
ATOM      8  C   UNL     1      -1.313  12.539  23.062  0.00  0.00    +0.000 A 
ATOM      9  C   UNL     1      -2.121  13.563  23.564  0.00  0.00    +0.000 A 
ATOM     10  C   UNL     1      -3.110  14.134  22.769  0.00  0.00    +0.000 A 
ATOM     11  C   UNL     1      -3.269  13.660  21.463  0.00  0.00    +0.000 A 
ATOM     12  C   UNL     1      -2.477  12.599  20.950  0.00  0.00    +0.000 A 
ATOM     13  C   UNL     1      -2.768  12.171  19.533  0.00  0.00    +0.000 C 
BRANCH  10  14
ATOM     14  C   UNL     1      -3.971  15.195  23.281  0.00  0.00    +0.000 A 
ATOM     15  N   UNL     1      -5.201  15.454  22.806  0.00  0.00    +0.000 NA
ATOM     16  O   UNL     1      -5.632  16.530  23.574  0.00  0.00    +0.000 OA
ATOM     17  C   UNL     1      -4.622  16.818  24.439  0.00  0.00    +0.000 A 
ATOM     18  C   UNL     1      -4.843  17.934  25.372  0.00  0.00    +0.000 C 
ATOM     19  N   UNL     1      -3.580  16.034  24.309  0.00  0.00    +0.000 NA
ENDBRANCH  10  14
ENDBRANCH   4   7
BRANCH   1  21
ATOM     20  N   UNL     1       2.480   7.763  18.835  0.00  0.00    +0.000 N 
ATOM     21  C   UNL     1       1.886   7.577  20.074  0.00  0.00    +0.000 C 
ATOM     22  O   UNL     1       2.015   6.589  20.792  0.00  0.00    +0.000 OA
ATOM     23  H   UNL     1       2.440   8.674  18.400  0.00  0.00    +0.000 HD
BRANCH  20  27
ATOM     24  C   UNL     1       4.453   4.714  16.656  0.00  0.00    +0.000 A 
ATOM     25  C   UNL     1       5.076   5.937  16.885  0.00  0.00    +0.000 A 
ATOM     26  C   UNL     1       4.424   6.946  17.586  0.00  0.00    +0.000 A 
ATOM     27  C   UNL     1       3.148   6.750  18.109  0.00  0.00    +0.000 A 
ATOM     28  C   UNL     1       2.542   5.500  17.952  0.00  0.00    +0.000 A 
ATOM     29  C   UNL     1       3.184   4.477  17.230  0.00  0.00    +0.000 A 
BRANCH  24  31
ATOM     30  C   UNL     1       6.034   4.037  14.952  0.00  0.00    +0.000 C 
ATOM     31  O   UNL     1       5.017   3.734  15.895  0.00  0.00    +0.000 OA
ENDBRANCH  24  31
BRANCH  29  32
ATOM     32  O   UNL     1       2.442   3.312  17.123  0.00  0.00    +0.000 OA
BRANCH  32  33
ATOM     33  C   UNL     1       1.513   3.116  18.195  0.00  0.00    +0.000 C 
BRANCH  33  34
ATOM     34  C   UNL     1       2.041   2.133  19.256  0.00  0.00    +0.000 C 
BRANCH  34  35
ATOM     35  N   UNL     1       2.920   2.810  20.238  0.00  0.00    +0.000 NA
ATOM     36  C   UNL     1       2.415   2.692  21.606  0.00  0.00    +0.000 C 
ATOM     37  C   UNL     1       4.291   2.309  20.164  0.00  0.00    +0.000 C 
ENDBRANCH  34  35
ENDBRANCH  33  34
ENDBRANCH  32  33
ENDBRANCH  29  32
ENDBRANCH  20  27
ENDBRANCH   1  21
TORSDOF 9
ENDMDL
MODEL 9
REMARK VINA RESULT:      -7.9      1.141      1.353
REMARK  Name = 
REMARK  14 active torsions:
REMARK  status: ('A' for Active; 'I' for Inactive)
REMARK    1  A    between atoms: C_1  and  O_2
REMARK    2  A    between atoms: O_2  and  C_3
REMARK    3  A    between atoms: C_6  and  N_7
REMARK    4  A    between atoms: C_8  and  C_10
REMARK    5  A    between atoms: C_13  and  C_14
REMARK    6  A    between atoms: C_17  and  C_18
REMARK    7  A    between atoms: C_21  and  C_22
REMARK    8  A    between atoms: C_25  and  C_26
REMARK    9  A    between atoms: C_30  and  O_31
REMARK   10  A    between atoms: O_31  and  C_32
REMARK   11  A    between atoms: C_32  and  C_33
REMARK   12  A    between atoms: C_33  and  N_34
REMARK   13  A    between atoms: N_34  and  C_35
REMARK   14  A    between atoms: N_34  and  C_36
REMARK                            x       y       z     vdW  Elec       q    Type
REMARK                         _______ _______ _______ _____ _____    ______ ____
ROOT
ATOM      1  C   UNL     1       0.694   8.854  20.803  0.00  0.00    +0.000 A 
ATOM      2  C   UNL     1       1.059   9.400  19.571  0.00  0.00    +0.000 A 
ATOM      3  C   UNL     1       1.895   8.694  18.707  0.00  0.00    +0.000 A 
ATOM      4  C   UNL     1       2.434   7.441  19.055  0.00  0.00    +0.000 A 
ATOM      5  C   UNL     1       2.101   6.945  20.328  0.00  0.00    +0.000 A 
ATOM      6  C   UNL     1       1.219   7.622  21.186  0.00  0.00    +0.000 A 
ENDROOT
BRANCH   4   7
ATOM      7  C   UNL     1       3.317   6.724  18.093  0.00  0.00    +0.000 A 
ATOM      8  C   UNL     1       4.321   7.465  17.425  0.00  0.00    +0.000 A 
ATOM      9  C   UNL     1       5.122   6.914  16.421  0.00  0.00    +0.000 A 
ATOM     10  C   UNL     1       4.982   5.577  16.063  0.00  0.00    +0.000 A 
ATOM     11  C   UNL     1       4.028   4.805  16.733  0.00  0.00    +0.000 A 
ATOM     12  C   UNL     1       3.186   5.359  17.733  0.00  0.00    +0.000 A 
ATOM     13  C   UNL     1       2.185   4.420  18.360  0.00  0.00    +0.000 C 
BRANCH  10  14
ATOM     14  C   UNL     1       5.801   4.989  15.007  0.00  0.00    +0.000 A 
ATOM     15  N   UNL     1       7.120   5.206  14.877  0.00  0.00    +0.000 NA
ATOM     16  O   UNL     1       7.468   4.465  13.753  0.00  0.00    +0.000 OA
ATOM     17  C   UNL     1       6.326   3.872  13.312  0.00  0.00    +0.000 A 
ATOM     18  C   UNL     1       6.436   3.020  12.117  0.00  0.00    +0.000 C 
ATOM     19  N   UNL     1       5.273   4.153  14.040  0.00  0.00    +0.000 NA
ENDBRANCH  10  14
ENDBRANCH   4   7
BRANCH   1  21
ATOM     20  N   UNL     1      -0.465  10.965  21.255  0.00  0.00    +0.000 N 
ATOM     21  C   UNL     1      -0.232   9.654  21.641  0.00  0.00    +0.000 C 
ATOM     22  O   UNL     1      -0.709   9.099  22.628  0.00  0.00    +0.000 OA
ATOM     23  H   UNL     1      -0.154  11.274  20.345  0.00  0.00    +0.000 HD
BRANCH  20  27
ATOM     24  C   UNL     1      -2.432  13.837  23.667  0.00  0.00    +0.000 A 
ATOM     25  C   UNL     1      -1.120  14.041  23.251  0.00  0.00    +0.000 A 
ATOM     26  C   UNL     1      -0.466  13.092  22.472  0.00  0.00    +0.000 A 
ATOM     27  C   UNL     1      -1.114  11.931  22.057  0.00  0.00    +0.000 A 
ATOM     28  C   UNL     1      -2.456  11.751  22.404  0.00  0.00    +0.000 A 
ATOM     29  C   UNL     1      -3.124  12.695  23.205  0.00  0.00    +0.000 A 
BRANCH  24  31
ATOM     30  C   UNL     1      -3.463  15.990  24.071  0.00  0.00    +0.000 C 
ATOM     31  O   UNL     1      -3.078  14.695  24.506  0.00  0.00    +0.000 OA
ENDBRANCH  24  31
BRANCH  29  32
ATOM     32  O   UNL     1      -4.435  12.358  23.501  0.00  0.00    +0.000 OA
BRANCH  32  33
ATOM     33  C   UNL     1      -5.406  13.101  22.754  0.00  0.00    +0.000 C 
BRANCH  33  34
ATOM     34  C   UNL     1      -5.610  12.539  21.336  0.00  0.00    +0.000 C 
BRANCH  34  35
ATOM     35  N   UNL     1      -5.795  13.622  20.342  0.00  0.00    +0.000 NA
ATOM     36  C   UNL     1      -7.162  13.666  19.821  0.00  0.00    +0.000 C 
ATOM     37  C   UNL     1      -5.426  14.924  20.894  0.00  0.00    +0.000 C 
ENDBRANCH  34  35
ENDBRANCH  33  34
ENDBRANCH  32  33
ENDBRANCH  29  32
ENDBRANCH  20  27
ENDBRANCH   1  21
TORSDOF 9
ENDMDL
