MODEL 1
REMARK VINA RESULT:      -7.9      0.000      0.000
REMARK  Name = 
REMARK  10 active torsions:
REMARK  status: ('A' for Active; 'I' for Inactive)
REMARK    1  A    between atoms: C_1  and  C_2
REMARK    2  A    between atoms: C_2  and  C_3
REMARK    3  A    between atoms: C_5  and  C_6
REMARK    4  A    between atoms: C_6  and  N_7
REMARK    5  A    between atoms: C_8  and  C_10
REMARK    6  A    between atoms: C_13  and  O_14
REMARK    7  A    between atoms: O_14  and  C_15
REMARK    8  A    between atoms: C_16  and  O_17
REMARK    9  A    between atoms: O_17  and  C_18
REMARK   10  A    between atoms: C_18  and  C_19
REMARK                            x       y       z     vdW  Elec       q    Type
REMARK                         _______ _______ _______ _____ _____    ______ ____
ROOT
ATOM      1  C   UNL     1       4.832   4.429  18.833  0.00  0.00    +0.000 A 
ATOM      2  C   UNL     1       4.482   3.097  19.045  0.00  0.00    +0.000 A 
ATOM      3  C   UNL     1       3.308   2.779  19.724  0.00  0.00    +0.000 A 
ATOM      4  C   UNL     1       2.446   3.781  20.181  0.00  0.00    +0.000 A 
ATOM      5  C   UNL     1       2.816   5.130  20.020  0.00  0.00    +0.000 A 
ATOM      6  C   UNL     1       4.003   5.444  19.327  0.00  0.00    +0.000 A 
ENDROOT
BRANCH   1   8
ATOM      7  N   UNL     1       5.864   5.279  16.801  0.00  0.00    +0.000 N 
ATOM      8  C   UNL     1       6.050   4.687  18.021  0.00  0.00    +0.000 C 
ATOM      9  O   UNL     1       7.156   4.389  18.466  0.00  0.00    +0.000 OA
ATOM     10  H   UNL     1       4.981   5.735  16.603  0.00  0.00    +0.000 HD
BRANCH   7  11
ATOM     11  C   UNL     1       6.994   5.603  15.954  0.00  0.00    +0.000 C 
BRANCH  11  14
ATOM     12  C   UNL     1       6.236   3.722  12.910  0.00  0.00    +0.000 A 
ATOM     13  C   UNL     1       6.002   3.844  14.296  0.00  0.00    +0.000 A 
ATOM     14  C   UNL     1       6.826   4.868  14.687  0.00  0.00    +0.000 A 
ATOM     15  O   UNL     1       7.566   5.281  13.623  0.00  0.00    +0.000 OA
ATOM     16  N   UNL     1       7.197   4.559  12.500  0.00  0.00    +0.000 NA
BRANCH  12  18
ATOM     17  C   UNL     1       6.408   1.819  11.328  0.00  0.00    +0.000 C 
ATOM     18  C   UNL     1       5.493   2.868  11.946  0.00  0.00    +0.000 C 
ENDBRANCH  12  18
ENDBRANCH  11  14
ENDBRANCH   7  11
ENDBRANCH   1   8
BRANCH   4  19
ATOM     19  O   UNL     1       1.255   3.477  20.792  0.00  0.00    +0.000 OA
ATOM     20  C   UNL     1       1.315   2.509  21.837  0.00  0.00    +0.000 C 
ENDBRANCH   4  19
BRANCH   5  21
ATOM     21  O   UNL     1       2.099   6.230  20.431  0.00  0.00    +0.000 OA
BRANCH  21  22
ATOM     22  C   UNL     1       2.189   7.399  19.606  0.00  0.00    +0.000 C 
BRANCH  22  23
ATOM     23  C   UNL     1       1.437   8.546  20.245  0.00  0.00    +0.000 A 
ATOM     24  C   UNL     1       0.961   9.602  19.470  0.00  0.00    +0.000 A 
ATOM     25  C   UNL     1       0.278  10.640  20.098  0.00  0.00    +0.000 A 
ATOM     26  C   UNL     1       0.087  10.596  21.474  0.00  0.00    +0.000 A 
ATOM     27  C   UNL     1       0.582   9.509  22.170  0.00  0.00    +0.000 A 
ATOM     28  N   UNL     1       1.244   8.487  21.589  0.00  0.00    +0.000 NA
ENDBRANCH  22  23
ENDBRANCH  21  22
ENDBRANCH   5  21
TORSDOF 8
ENDMDL
MODEL 2
REMARK VINA RESULT:      -7.8      0.747      1.132
REMARK  Name = 
REMARK  10 active torsions:
REMARK  status: ('A' for Active; 'I' for Inactive)
REMARK    1  A    between atoms: C_1  and  C_2
REMARK    2  A    between atoms: C_2  and  C_3
REMARK    3  A    between atoms: C_5  and  C_6
REMARK    4  A    between atoms: C_6  and  N_7
REMARK    5  A    between atoms: C_8  and  C_10
REMARK    6  A    between atoms: C_13  and  O_14
REMARK    7  A    between atoms: O_14  and  C_15
REMARK    8  A    between atoms: C_16  and  O_17
REMARK    9  A    between atoms: O_17  and  C_18
REMARK   10  A    between atoms: C_18  and  C_19
REMARK                            x       y       z     vdW  Elec       q    Type
REMARK                         _______ _______ _______ _____ _____    ______ ____
ROOT
ATOM      1  C   UNL     1       5.109   4.489  18.833  0.00  0.00    +0.000 A 
ATOM      2  C   UNL     1       4.797   3.157  19.102  0.00  0.00    +0.000 A 
ATOM      3  C   UNL     1       3.659   2.837  19.838  0.00  0.00    +0.000 A 
ATOM      4  C   UNL     1       2.794   3.835  20.298  0.00  0.00    +0.000 A 
ATOM      5  C   UNL     1       3.128   5.186  20.080  0.00  0.00    +0.000 A 
ATOM      6  C   UNL     1       4.279   5.502  19.328  0.00  0.00    +0.000 A 
ENDROOT
BRANCH   1   8
ATOM      7  N   UNL     1       6.039   5.306  16.739  0.00  0.00    +0.000 N 
ATOM      8  C   UNL     1       6.287   4.745  17.964  0.00  0.00    +0.000 C 
ATOM      9  O   UNL     1       7.415   4.474  18.367  0.00  0.00    +0.000 OA
ATOM     10  H   UNL     1       5.142   5.743  16.569  0.00  0.00    +0.000 HD
BRANCH   7  11
ATOM     11  C   UNL     1       7.127   5.626  15.837  0.00  0.00    +0.000 C 
BRANCH  11  14
ATOM     12  C   UNL     1       6.288   3.633  12.887  0.00  0.00    +0.000 A 
ATOM     13  C   UNL     1       6.122   3.783  14.280  0.00  0.00    +0.000 A 
ATOM     14  C   UNL     1       6.923   4.850  14.601  0.00  0.00    +0.000 A 
ATOM     15  O   UNL     1       7.589   5.263  13.489  0.00  0.00    +0.000 OA
ATOM     16  N   UNL     1       7.191   4.495  12.405  0.00  0.00    +0.000 NA
BRANCH  12  18
ATOM     17  C   UNL     1       4.318   3.430  11.393  0.00  0.00    +0.000 C 
ATOM     18  C   UNL     1       5.531   2.724  11.987  0.00  0.00    +0.000 C 
ENDBRANCH  12  18
ENDBRANCH  11  14
ENDBRANCH   7  11
ENDBRANCH   1   8
BRANCH   4  19
ATOM     19  O   UNL     1       1.637   3.527  20.967  0.00  0.00    +0.000 OA
ATOM     20  C   UNL     1       0.581   2.983  20.178  0.00  0.00    +0.000 C 
ENDBRANCH   4  19
BRANCH   5  21
ATOM     21  O   UNL     1       2.404   6.283  20.485  0.00  0.00    +0.000 OA
BRANCH  21  22
ATOM     22  C   UNL     1       2.159   7.291  19.496  0.00  0.00    +0.000 C 
BRANCH  22  23
ATOM     23  C   UNL     1       1.424   8.460  20.114  0.00  0.00    +0.000 A 
ATOM     24  C   UNL     1       0.945   8.387  21.420  0.00  0.00    +0.000 A 
ATOM     25  C   UNL     1       0.270   9.483  21.950  0.00  0.00    +0.000 A 
ATOM     26  C   UNL     1       0.094  10.619  21.167  0.00  0.00    +0.000 A 
ATOM     27  C   UNL     1       0.608  10.615  19.884  0.00  0.00    +0.000 A 
ATOM     28  N   UNL     1       1.270   9.571  19.345  0.00  0.00    +0.000 NA
ENDBRANCH  22  23
ENDBRANCH  21  22
ENDBRANCH   5  21
TORSDOF 8
ENDMDL
MODEL 3
REMARK VINA RESULT:      -7.7      2.093      3.758
REMARK  Name = 
REMARK  10 active torsions:
REMARK  status: ('A' for Active; 'I' for Inactive)
REMARK    1  A    between atoms: C_1  and  C_2
REMARK    2  A    between atoms: C_2  and  C_3
REMARK    3  A    between atoms: C_5  and  C_6
REMARK    4  A    between atoms: C_6  and  N_7
REMARK    5  A    between atoms: C_8  and  C_10
REMARK    6  A    between atoms: C_13  and  O_14
REMARK    7  A    between atoms: O_14  and  C_15
REMARK    8  A    between atoms: C_16  and  O_17
REMARK    9  A    between atoms: O_17  and  C_18
REMARK   10  A    between atoms: C_18  and  C_19
REMARK                            x       y       z     vdW  Elec       q    Type
REMARK                         _______ _______ _______ _____ _____    ______ ____
ROOT
ATOM      1  C   UNL     1       3.134   6.687  18.601  0.00  0.00    +0.000 A 
ATOM      2  C   UNL     1       3.097   7.624  17.569  0.00  0.00    +0.000 A 
ATOM      3  C   UNL     1       2.320   8.773  17.692  0.00  0.00    +0.000 A 
ATOM      4  C   UNL     1       1.587   9.027  18.855  0.00  0.00    +0.000 A 
ATOM      5  C   UNL     1       1.574   8.062  19.882  0.00  0.00    +0.000 A 
ATOM      6  C   UNL     1       2.367   6.903  19.752  0.00  0.00    +0.000 A 
ENDROOT
BRANCH   1   8
ATOM      7  N   UNL     1       5.305   5.809  17.943  0.00  0.00    +0.000 N 
ATOM      8  C   UNL     1       4.057   5.533  18.434  0.00  0.00    +0.000 C 
ATOM      9  O   UNL     1       3.689   4.406  18.752  0.00  0.00    +0.000 OA
ATOM     10  H   UNL     1       5.638   6.765  17.948  0.00  0.00    +0.000 HD
BRANCH   7  11
ATOM     11  C   UNL     1       6.286   4.755  17.780  0.00  0.00    +0.000 C 
BRANCH  11  14
ATOM     12  C   UNL     1       6.826   4.455  14.175  0.00  0.00    +0.000 A 
ATOM     13  C   UNL     1       6.236   3.877  15.319  0.00  0.00    +0.000 A 
ATOM     14  C   UNL     1       6.635   4.689  16.350  0.00  0.00    +0.000 A 
ATOM     15  O   UNL     1       7.476   5.645  15.869  0.00  0.00    +0.000 OA
ATOM     16  N   UNL     1       7.600   5.498  14.497  0.00  0.00    +0.000 NA
BRANCH  12  18
ATOM     17  C   UNL     1       5.274   3.332  12.599  0.00  0.00    +0.000 C 
ATOM     18  C   UNL     1       6.597   4.071  12.757  0.00  0.00    +0.000 C 
ENDBRANCH  12  18
ENDBRANCH  11  14
ENDBRANCH   7  11
ENDBRANCH   1   8
BRANCH   4  19
ATOM     19  O   UNL     1       0.872  10.187  19.013  0.00  0.00    +0.000 OA
ATOM     20  C   UNL     1       1.494  11.377  18.535  0.00  0.00    +0.000 C 
ENDBRANCH   4  19
BRANCH   5  21
ATOM     21  O   UNL     1       0.890   8.143  21.072  0.00  0.00    +0.000 OA
BRANCH  21  22
ATOM     22  C   UNL     1       1.412   9.051  22.051  0.00  0.00    +0.000 C 
BRANCH  22  23
ATOM     23  C   UNL     1       0.432  10.179  22.291  0.00  0.00    +0.000 A 
ATOM     24  C   UNL     1      -0.696   9.982  23.084  0.00  0.00    +0.000 A 
ATOM     25  C   UNL     1      -1.574  11.045  23.276  0.00  0.00    +0.000 A 
ATOM     26  C   UNL     1      -1.304  12.270  22.677  0.00  0.00    +0.000 A 
ATOM     27  C   UNL     1      -0.158  12.386  21.912  0.00  0.00    +0.000 A 
ATOM     28  N   UNL     1       0.714  11.376  21.712  0.00  0.00    +0.000 NA
ENDBRANCH  22  23
ENDBRANCH  21  22
ENDBRANCH   5  21
TORSDOF 8
ENDMDL
MODEL 4
REMARK VINA RESULT:      -7.7      1.840      4.545
REMARK  Name = 
REMARK  10 active torsions:
REMARK  status: ('A' for Active; 'I' for Inactive)
REMARK    1  A    between atoms: C_1  and  C_2
REMARK    2  A    between atoms: C_2  and  C_3
REMARK    3  A    between atoms: C_5  and  C_6
REMARK    4  A    between atoms: C_6  and  N_7
REMARK    5  A    between atoms: C_8  and  C_10
REMARK    6  A    between atoms: C_13  and  O_14
REMARK    7  A    between atoms: O_14  and  C_15
REMARK    8  A    between atoms: C_16  and  O_17
REMARK    9  A    between atoms: O_17  and  C_18
REMARK   10  A    between atoms: C_18  and  C_19
REMARK                            x       y       z     vdW  Elec       q    Type
REMARK                         _______ _______ _______ _____ _____    ______ ____
ROOT
ATOM      1  C   UNL     1       4.211   6.767  17.970  0.00  0.00    +0.000 A 
ATOM      2  C   UNL     1       3.567   7.933  17.556  0.00  0.00    +0.000 A 
ATOM      3  C   UNL     1       2.430   8.382  18.223  0.00  0.00    +0.000 A 
ATOM      4  C   UNL     1       1.927   7.694  19.332  0.00  0.00    +0.000 A 
ATOM      5  C   UNL     1       2.537   6.486  19.725  0.00  0.00    +0.000 A 
ATOM      6  C   UNL     1       3.691   6.042  19.048  0.00  0.00    +0.000 A 
ENDROOT
BRANCH   1   8
ATOM      7  N   UNL     1       6.088   5.250  17.666  0.00  0.00    +0.000 N 
ATOM      8  C   UNL     1       5.470   6.405  17.267  0.00  0.00    +0.000 C 
ATOM      9  O   UNL     1       5.893   7.120  16.363  0.00  0.00    +0.000 OA
ATOM     10  H   UNL     1       5.569   4.577  18.218  0.00  0.00    +0.000 HD
BRANCH   7  11
ATOM     11  C   UNL     1       7.300   4.795  17.016  0.00  0.00    +0.000 C 
BRANCH  11  14
ATOM     12  C   UNL     1       6.132   3.991  13.644  0.00  0.00    +0.000 A 
ATOM     13  C   UNL     1       6.009   3.708  15.021  0.00  0.00    +0.000 A 
ATOM     14  C   UNL     1       6.966   4.493  15.613  0.00  0.00    +0.000 A 
ATOM     15  O   UNL     1       7.672   5.145  14.649  0.00  0.00    +0.000 OA
ATOM     16  N   UNL     1       7.149   4.828  13.405  0.00  0.00    +0.000 NA
BRANCH  12  18
ATOM     17  C   UNL     1       5.898   2.438  11.724  0.00  0.00    +0.000 C 
ATOM     18  C   UNL     1       5.235   3.533  12.551  0.00  0.00    +0.000 C 
ENDBRANCH  12  18
ENDBRANCH  11  14
ENDBRANCH   7  11
ENDBRANCH   1   8
BRANCH   4  19
ATOM     19  O   UNL     1       0.846   8.164  20.036  0.00  0.00    +0.000 OA
ATOM     20  C   UNL     1       0.890   9.539  20.408  0.00  0.00    +0.000 C 
ENDBRANCH   4  19
BRANCH   5  21
ATOM     21  O   UNL     1       2.154   5.680  20.771  0.00  0.00    +0.000 OA
BRANCH  21  22
ATOM     22  C   UNL     1       1.289   4.582  20.452  0.00  0.00    +0.000 C 
BRANCH  22  23
ATOM     23  C   UNL     1       2.049   3.527  19.678  0.00  0.00    +0.000 A 
ATOM     24  C   UNL     1       1.652   3.167  18.392  0.00  0.00    +0.000 A 
ATOM     25  C   UNL     1       2.377   2.189  17.716  0.00  0.00    +0.000 A 
ATOM     26  C   UNL     1       3.474   1.602  18.336  0.00  0.00    +0.000 A 
ATOM     27  C   UNL     1       3.808   2.023  19.610  0.00  0.00    +0.000 A 
ATOM     28  N   UNL     1       3.128   2.971  20.288  0.00  0.00    +0.000 NA
ENDBRANCH  22  23
ENDBRANCH  21  22
ENDBRANCH   5  21
TORSDOF 8
ENDMDL
MODEL 5
REMARK VINA RESULT:      -7.6      3.037      7.915
REMARK  Name = 
REMARK  10 active torsions:
REMARK  status: ('A' for Active; 'I' for Inactive)
REMARK    1  A    between atoms: C_1  and  C_2
REMARK    2  A    between atoms: C_2  and  C_3
REMARK    3  A    between atoms: C_5  and  C_6
REMARK    4  A    between atoms: C_6  and  N_7
REMARK    5  A    between atoms: C_8  and  C_10
REMARK    6  A    between atoms: C_13  and  O_14
REMARK    7  A    between atoms: O_14  and  C_15
REMARK    8  A    between atoms: C_16  and  O_17
REMARK    9  A    between atoms: O_17  and  C_18
REMARK   10  A    between atoms: C_18  and  C_19
REMARK                            x       y       z     vdW  Elec       q    Type
REMARK                         _______ _______ _______ _____ _____    ______ ____
ROOT
ATOM      1  C   UNL     1       2.062   6.752  19.840  0.00  0.00    +0.000 A 
ATOM      2  C   UNL     1       1.835   5.730  20.760  0.00  0.00    +0.000 A 
ATOM      3  C   UNL     1       2.283   4.437  20.499  0.00  0.00    +0.000 A 
ATOM      4  C   UNL     1       2.991   4.143  19.329  0.00  0.00    +0.000 A 
ATOM      5  C   UNL     1       3.178   5.156  18.367  0.00  0.00    +0.000 A 
ATOM      6  C   UNL     1       2.727   6.463  18.643  0.00  0.00    +0.000 A 
ENDROOT
BRANCH   1   8
ATOM      7  N   UNL     1       1.361   8.996  19.216  0.00  0.00    +0.000 N 
ATOM      8  C   UNL     1       1.636   8.121  20.232  0.00  0.00    +0.000 C 
ATOM      9  O   UNL     1       1.527   8.410  21.421  0.00  0.00    +0.000 OA
ATOM     10  H   UNL     1       1.214   8.636  18.281  0.00  0.00    +0.000 HD
BRANCH   7  11
ATOM     11  C   UNL     1       0.904  10.342  19.500  0.00  0.00    +0.000 C 
BRANCH  11  14
ATOM     12  C   UNL     1      -1.991  10.719  17.296  0.00  0.00    +0.000 A 
ATOM     13  C   UNL     1      -0.973   9.853  17.749  0.00  0.00    +0.000 A 
ATOM     14  C   UNL     1      -0.220  10.631  18.591  0.00  0.00    +0.000 A 
ATOM     15  O   UNL     1      -0.704  11.902  18.583  0.00  0.00    +0.000 OA
ATOM     16  N   UNL     1      -1.821  11.961  17.765  0.00  0.00    +0.000 NA
BRANCH  12  18
ATOM     17  C   UNL     1      -4.401  11.162  16.907  0.00  0.00    +0.000 C 
ATOM     18  C   UNL     1      -3.179  10.357  16.480  0.00  0.00    +0.000 C 
ENDBRANCH  12  18
ENDBRANCH  11  14
ENDBRANCH   7  11
ENDBRANCH   1   8
BRANCH   4  19
ATOM     19  O   UNL     1       3.494   2.888  19.092  0.00  0.00    +0.000 OA
ATOM     20  C   UNL     1       2.594   1.952  18.504  0.00  0.00    +0.000 C 
ENDBRANCH   4  19
BRANCH   5  21
ATOM     21  O   UNL     1       3.826   5.028  17.161  0.00  0.00    +0.000 OA
BRANCH  21  22
ATOM     22  C   UNL     1       5.100   4.372  17.183  0.00  0.00    +0.000 C 
BRANCH  22  23
ATOM     23  C   UNL     1       6.169   5.327  17.668  0.00  0.00    +0.000 A 
ATOM     24  C   UNL     1       6.379   6.544  17.023  0.00  0.00    +0.000 A 
ATOM     25  C   UNL     1       7.375   7.392  17.499  0.00  0.00    +0.000 A 
ATOM     26  C   UNL     1       8.130   7.006  18.602  0.00  0.00    +0.000 A 
ATOM     27  C   UNL     1       7.853   5.786  19.191  0.00  0.00    +0.000 A 
ATOM     28  N   UNL     1       6.891   4.946  18.755  0.00  0.00    +0.000 NA
ENDBRANCH  22  23
ENDBRANCH  21  22
ENDBRANCH   5  21
TORSDOF 8
ENDMDL
MODEL 6
REMARK VINA RESULT:      -7.6      2.994      7.797
REMARK  Name = 
REMARK  10 active torsions:
REMARK  status: ('A' for Active; 'I' for Inactive)
REMARK    1  A    between atoms: C_1  and  C_2
REMARK    2  A    between atoms: C_2  and  C_3
REMARK    3  A    between atoms: C_5  and  C_6
REMARK    4  A    between atoms: C_6  and  N_7
REMARK    5  A    between atoms: C_8  and  C_10
REMARK    6  A    between atoms: C_13  and  O_14
REMARK    7  A    between atoms: O_14  and  C_15
REMARK    8  A    between atoms: C_16  and  O_17
REMARK    9  A    between atoms: O_17  and  C_18
REMARK   10  A    between atoms: C_18  and  C_19
REMARK                            x       y       z     vdW  Elec       q    Type
REMARK                         _______ _______ _______ _____ _____    ______ ____
ROOT
ATOM      1  C   UNL     1       2.167   6.732  19.754  0.00  0.00    +0.000 A 
ATOM      2  C   UNL     1       1.986   5.676  20.646  0.00  0.00    +0.000 A 
ATOM      3  C   UNL     1       2.512   4.418  20.362  0.00  0.00    +0.000 A 
ATOM      4  C   UNL     1       3.254   4.194  19.197  0.00  0.00    +0.000 A 
ATOM      5  C   UNL     1       3.397   5.239  18.263  0.00  0.00    +0.000 A 
ATOM      6  C   UNL     1       2.866   6.511  18.562  0.00  0.00    +0.000 A 
ENDROOT
BRANCH   1   8
ATOM      7  N   UNL     1       1.406   8.968  19.174  0.00  0.00    +0.000 N 
ATOM      8  C   UNL     1       1.657   8.065  20.172  0.00  0.00    +0.000 C 
ATOM      9  O   UNL     1       1.462   8.299  21.361  0.00  0.00    +0.000 OA
ATOM     10  H   UNL     1       1.332   8.641  18.219  0.00  0.00    +0.000 HD
BRANCH   7  11
ATOM     11  C   UNL     1       0.872  10.280  19.481  0.00  0.00    +0.000 C 
BRANCH  11  14
ATOM     12  C   UNL     1      -2.003  10.582  17.240  0.00  0.00    +0.000 A 
ATOM     13  C   UNL     1      -1.006   9.725  17.751  0.00  0.00    +0.000 A 
ATOM     14  C   UNL     1      -0.241  10.536  18.549  0.00  0.00    +0.000 A 
ATOM     15  O   UNL     1      -0.699  11.814  18.461  0.00  0.00    +0.000 OA
ATOM     16  N   UNL     1      -1.810  11.847  17.634  0.00  0.00    +0.000 NA
BRANCH  12  18
ATOM     17  C   UNL     1      -2.918  10.335  14.947  0.00  0.00    +0.000 C 
ATOM     18  C   UNL     1      -3.195  10.195  16.439  0.00  0.00    +0.000 C 
ENDBRANCH  12  18
ENDBRANCH  11  14
ENDBRANCH   7  11
ENDBRANCH   1   8
BRANCH   4  19
ATOM     19  O   UNL     1       3.832   2.976  18.940  0.00  0.00    +0.000 OA
ATOM     20  C   UNL     1       2.995   2.003  18.320  0.00  0.00    +0.000 C 
ENDBRANCH   4  19
BRANCH   5  21
ATOM     21  O   UNL     1       4.069   5.179  17.065  0.00  0.00    +0.000 OA
BRANCH  21  22
ATOM     22  C   UNL     1       5.384   4.607  17.095  0.00  0.00    +0.000 C 
BRANCH  22  23
ATOM     23  C   UNL     1       6.390   5.639  17.556  0.00  0.00    +0.000 A 
ATOM     24  C   UNL     1       7.216   5.385  18.649  0.00  0.00    +0.000 A 
ATOM     25  C   UNL     1       8.126   6.363  19.043  0.00  0.00    +0.000 A 
ATOM     26  C   UNL     1       8.189   7.559  18.338  0.00  0.00    +0.000 A 
ATOM     27  C   UNL     1       7.341   7.729  17.259  0.00  0.00    +0.000 A 
ATOM     28  N   UNL     1       6.453   6.799  16.851  0.00  0.00    +0.000 NA
ENDBRANCH  22  23
ENDBRANCH  21  22
ENDBRANCH   5  21
TORSDOF 8
ENDMDL
MODEL 7
REMARK VINA RESULT:      -7.5      2.558      4.569
REMARK  Name = 
REMARK  10 active torsions:
REMARK  status: ('A' for Active; 'I' for Inactive)
REMARK    1  A    between atoms: C_1  and  C_2
REMARK    2  A    between atoms: C_2  and  C_3
REMARK    3  A    between atoms: C_5  and  C_6
REMARK    4  A    between atoms: C_6  and  N_7
REMARK    5  A    between atoms: C_8  and  C_10
REMARK    6  A    between atoms: C_13  and  O_14
REMARK    7  A    between atoms: O_14  and  C_15
REMARK    8  A    between atoms: C_16  and  O_17
REMARK    9  A    between atoms: O_17  and  C_18
REMARK   10  A    between atoms: C_18  and  C_19
REMARK                            x       y       z     vdW  Elec       q    Type
REMARK                         _______ _______ _______ _____ _____    ______ ____
ROOT
ATOM      1  C   UNL     1       4.980   5.461  16.659  0.00  0.00    +0.000 A 
ATOM      2  C   UNL     1       4.020   6.441  16.911  0.00  0.00    +0.000 A 
ATOM      3  C   UNL     1       3.429   6.537  18.168  0.00  0.00    +0.000 A 
ATOM      4  C   UNL     1       3.801   5.678  19.207  0.00  0.00    +0.000 A 
ATOM      5  C   UNL     1       4.729   4.650  18.949  0.00  0.00    +0.000 A 
ATOM      6  C   UNL     1       5.328   4.563  17.675  0.00  0.00    +0.000 A 
ENDROOT
BRANCH   1   8
ATOM      7  N   UNL     1       6.237   4.323  14.914  0.00  0.00    +0.000 N 
ATOM      8  C   UNL     1       5.632   5.481  15.323  0.00  0.00    +0.000 C 
ATOM      9  O   UNL     1       5.591   6.500  14.638  0.00  0.00    +0.000 OA
ATOM     10  H   UNL     1       6.016   3.456  15.390  0.00  0.00    +0.000 HD
BRANCH   7  11
ATOM     11  C   UNL     1       6.867   4.235  13.612  0.00  0.00    +0.000 C 
BRANCH  11  14
ATOM     12  C   UNL     1       4.368   2.945  11.273  0.00  0.00    +0.000 A 
ATOM     13  C   UNL     1       4.654   3.912  12.261  0.00  0.00    +0.000 A 
ATOM     14  C   UNL     1       5.912   3.583  12.699  0.00  0.00    +0.000 A 
ATOM     15  O   UNL     1       6.323   2.446  12.075  0.00  0.00    +0.000 OA
ATOM     16  N   UNL     1       5.350   2.040  11.176  0.00  0.00    +0.000 NA
BRANCH  12  18
ATOM     17  C   UNL     1       3.019   4.261   9.660  0.00  0.00    +0.000 C 
ATOM     18  C   UNL     1       3.198   2.918  10.358  0.00  0.00    +0.000 C 
ENDBRANCH  12  18
ENDBRANCH  11  14
ENDBRANCH   7  11
ENDBRANCH   1   8
BRANCH   4  19
ATOM     19  O   UNL     1       3.272   5.807  20.467  0.00  0.00    +0.000 OA
ATOM     20  C   UNL     1       1.963   6.366  20.544  0.00  0.00    +0.000 C 
ENDBRANCH   4  19
BRANCH   5  21
ATOM     21  O   UNL     1       5.181   3.712  19.847  0.00  0.00    +0.000 OA
BRANCH  21  22
ATOM     22  C   UNL     1       4.574   2.415  19.778  0.00  0.00    +0.000 C 
BRANCH  22  23
ATOM     23  C   UNL     1       3.071   2.535  19.908  0.00  0.00    +0.000 A 
ATOM     24  C   UNL     1       2.479   2.709  21.157  0.00  0.00    +0.000 A 
ATOM     25  C   UNL     1       1.092   2.812  21.232  0.00  0.00    +0.000 A 
ATOM     26  C   UNL     1       0.339   2.742  20.066  0.00  0.00    +0.000 A 
ATOM     27  C   UNL     1       1.004   2.578  18.866  0.00  0.00    +0.000 A 
ATOM     28  N   UNL     1       2.345   2.480  18.760  0.00  0.00    +0.000 NA
ENDBRANCH  22  23
ENDBRANCH  21  22
ENDBRANCH   5  21
TORSDOF 8
ENDMDL
MODEL 8
REMARK VINA RESULT:      -7.4      3.122      7.746
REMARK  Name = 
REMARK  10 active torsions:
REMARK  status: ('A' for Active; 'I' for Inactive)
REMARK    1  A    between atoms: C_1  and  C_2
REMARK    2  A    between atoms: C_2  and  C_3
REMARK    3  A    between atoms: C_5  and  C_6
REMARK    4  A    between atoms: C_6  and  N_7
REMARK    5  A    between atoms: C_8  and  C_10
REMARK    6  A    between atoms: C_13  and  O_14
REMARK    7  A    between atoms: O_14  and  C_15
REMARK    8  A    between atoms: C_16  and  O_17
REMARK    9  A    between atoms: O_17  and  C_18
REMARK   10  A    between atoms: C_18  and  C_19
REMARK                            x       y       z     vdW  Elec       q    Type
REMARK                         _______ _______ _______ _____ _____    ______ ____
ROOT
ATOM      1  C   UNL     1       2.237   7.293  19.063  0.00  0.00    +0.000 A 
ATOM      2  C   UNL     1       1.833   6.806  20.306  0.00  0.00    +0.000 A 
ATOM      3  C   UNL     1       2.165   5.511  20.694  0.00  0.00    +0.000 A 
ATOM      4  C   UNL     1       2.931   4.684  19.867  0.00  0.00    +0.000 A 
ATOM      5  C   UNL     1       3.299   5.145  18.587  0.00  0.00    +0.000 A 
ATOM      6  C   UNL     1       2.963   6.460  18.203  0.00  0.00    +0.000 A 
ENDROOT
BRANCH   1   8
ATOM      7  N   UNL     1       0.990   9.323  19.553  0.00  0.00    +0.000 N 
ATOM      8  C   UNL     1       1.924   8.714  18.759  0.00  0.00    +0.000 C 
ATOM      9  O   UNL     1       2.512   9.287  17.845  0.00  0.00    +0.000 OA
ATOM     10  H   UNL     1       0.739   8.896  20.436  0.00  0.00    +0.000 HD
BRANCH   7  11
ATOM     11  C   UNL     1       0.645  10.716  19.356  0.00  0.00    +0.000 C 
BRANCH  11  14
ATOM     12  C   UNL     1      -2.198  10.500  17.065  0.00  0.00    +0.000 A 
ATOM     13  C   UNL     1      -1.100   9.818  17.632  0.00  0.00    +0.000 A 
ATOM     14  C   UNL     1      -0.473  10.767  18.398  0.00  0.00    +0.000 A 
ATOM     15  O   UNL     1      -1.106  11.961  18.240  0.00  0.00    +0.000 OA
ATOM     16  N   UNL     1      -2.193  11.796  17.398  0.00  0.00    +0.000 NA
BRANCH  12  18
ATOM     17  C   UNL     1      -3.129  10.203  14.785  0.00  0.00    +0.000 C 
ATOM     18  C   UNL     1      -3.306   9.910  16.270  0.00  0.00    +0.000 C 
ENDBRANCH  12  18
ENDBRANCH  11  14
ENDBRANCH   7  11
ENDBRANCH   1   8
BRANCH   4  19
ATOM     19  O   UNL     1       3.320   3.431  20.268  0.00  0.00    +0.000 OA
ATOM     20  C   UNL     1       2.450   2.767  21.182  0.00  0.00    +0.000 C 
ENDBRANCH   4  19
BRANCH   5  21
ATOM     21  O   UNL     1       4.026   4.454  17.646  0.00  0.00    +0.000 OA
BRANCH  21  22
ATOM     22  C   UNL     1       4.779   5.240  16.713  0.00  0.00    +0.000 C 
BRANCH  22  23
ATOM     23  C   UNL     1       5.996   5.830  17.392  0.00  0.00    +0.000 A 
ATOM     24  C   UNL     1       6.453   7.101  17.051  0.00  0.00    +0.000 A 
ATOM     25  C   UNL     1       7.578   7.605  17.697  0.00  0.00    +0.000 A 
ATOM     26  C   UNL     1       8.213   6.832  18.663  0.00  0.00    +0.000 A 
ATOM     27  C   UNL     1       7.692   5.584  18.950  0.00  0.00    +0.000 A 
ATOM     28  N   UNL     1       6.601   5.072  18.345  0.00  0.00    +0.000 NA
ENDBRANCH  22  23
ENDBRANCH  21  22
ENDBRANCH   5  21
TORSDOF 8
ENDMDL
MODEL 9
REMARK VINA RESULT:      -7.4      2.748      8.428
REMARK  Name = 
REMARK  10 active torsions:
REMARK  status: ('A' for Active; 'I' for Inactive)
REMARK    1  A    between atoms: C_1  and  C_2
REMARK    2  A    between atoms: C_2  and  C_3
REMARK    3  A    between atoms: C_5  and  C_6
REMARK    4  A    between atoms: C_6  and  N_7
REMARK    5  A    between atoms: C_8  and  C_10
REMARK    6  A    between atoms: C_13  and  O_14
REMARK    7  A    between atoms: O_14  and  C_15
REMARK    8  A    between atoms: C_16  and  O_17
REMARK    9  A    between atoms: O_17  and  C_18
REMARK   10  A    between atoms: C_18  and  C_19
REMARK                            x       y       z     vdW  Elec       q    Type
REMARK                         _______ _______ _______ _____ _____    ______ ____
ROOT
ATOM      1  C   UNL     1       2.255   6.649  19.755  0.00  0.00    +0.000 A 
ATOM      2  C   UNL     1       2.197   5.550  20.611  0.00  0.00    +0.000 A 
ATOM      3  C   UNL     1       2.787   4.343  20.243  0.00  0.00    +0.000 A 
ATOM      4  C   UNL     1       3.469   4.214  19.030  0.00  0.00    +0.000 A 
ATOM      5  C   UNL     1       3.487   5.301  18.134  0.00  0.00    +0.000 A 
ATOM      6  C   UNL     1       2.893   6.521  18.516  0.00  0.00    +0.000 A 
ENDROOT
BRANCH   1   8
ATOM      7  N   UNL     1       1.492   8.920  19.335  0.00  0.00    +0.000 N 
ATOM      8  C   UNL     1       1.684   7.927  20.257  0.00  0.00    +0.000 C 
ATOM      9  O   UNL     1       1.391   8.040  21.444  0.00  0.00    +0.000 OA
ATOM     10  H   UNL     1       1.501   8.688  18.349  0.00  0.00    +0.000 HD
BRANCH   7  11
ATOM     11  C   UNL     1       0.908  10.188  19.723  0.00  0.00    +0.000 C 
BRANCH  11  14
ATOM     12  C   UNL     1      -2.044  10.366  17.570  0.00  0.00    +0.000 A 
ATOM     13  C   UNL     1      -0.779   9.774  17.770  0.00  0.00    +0.000 A 
ATOM     14  C   UNL     1      -0.287  10.401  18.887  0.00  0.00    +0.000 A 
ATOM     15  O   UNL     1      -1.163  11.363  19.285  0.00  0.00    +0.000 OA
ATOM     16  N   UNL     1      -2.272  11.345  18.454  0.00  0.00    +0.000 NA
BRANCH  12  18
ATOM     17  C   UNL     1      -3.010  10.808  15.328  0.00  0.00    +0.000 C 
ATOM     18  C   UNL     1      -3.081   9.954  16.588  0.00  0.00    +0.000 C 
ENDBRANCH  12  18
ENDBRANCH  11  14
ENDBRANCH   7  11
ENDBRANCH   1   8
BRANCH   4  19
ATOM     19  O   UNL     1       4.110   3.049  18.688  0.00  0.00    +0.000 OA
ATOM     20  C   UNL     1       3.315   2.067  18.028  0.00  0.00    +0.000 C 
ENDBRANCH   4  19
BRANCH   5  21
ATOM     21  O   UNL     1       4.088   5.332  16.897  0.00  0.00    +0.000 OA
BRANCH  21  22
ATOM     22  C   UNL     1       5.522   5.337  16.881  0.00  0.00    +0.000 C 
BRANCH  22  23
ATOM     23  C   UNL     1       6.028   4.969  15.503  0.00  0.00    +0.000 A 
ATOM     24  C   UNL     1       5.303   4.101  14.689  0.00  0.00    +0.000 A 
ATOM     25  C   UNL     1       5.806   3.785  13.430  0.00  0.00    +0.000 A 
ATOM     26  C   UNL     1       7.012   4.341  13.018  0.00  0.00    +0.000 A 
ATOM     27  C   UNL     1       7.666   5.200  13.882  0.00  0.00    +0.000 A 
ATOM     28  N   UNL     1       7.201   5.529  15.105  0.00  0.00    +0.000 NA
ENDBRANCH  22  23
ENDBRANCH  21  22
ENDBRANCH   5  21
TORSDOF 8
ENDMDL
