MODEL 1
REMARK VINA RESULT:      -6.8      0.000      0.000
REMARK  Name = 
REMARK  11 active torsions:
REMARK  status: ('A' for Active; 'I' for Inactive)
REMARK    1  A    between atoms: C_1  and  C_2
REMARK    2  A    between atoms: C_2  and  N_3
REMARK    3  A    between atoms: N_3  and  C_24
REMARK    4  A    between atoms: C_4  and  C_6
REMARK    5  A    between atoms: C_12  and  C_13
REMARK    6  A    between atoms: N_16  and  C_17
REMARK    7  A    between atoms: C_17  and  C_18
REMARK    8  A    between atoms: C_18  and  O_19
REMARK    9  A    between atoms: O_19  and  C_20
REMARK   10  A    between atoms: C_24  and  C_25
REMARK   11  A    between atoms: C_24  and  C_26
REMARK                            x       y       z     vdW  Elec       q    Type
REMARK                         _______ _______ _______ _____ _____    ______ ____
ROOT
ATOM      1  C   UNL     1       2.584   7.226  18.810  0.00  0.00    +0.000 A 
ATOM      2  C   UNL     1       2.248   6.222  19.826  0.00  0.00    +0.000 A 
ATOM      3  C   UNL     1       2.996   5.141  20.093  0.00  0.00    +0.000 A 
ATOM      4  C   UNL     1       4.176   4.925  19.370  0.00  0.00    +0.000 A 
ATOM      5  N   UNL     1       5.091   3.995  19.467  0.00  0.00    +0.000 NA
ATOM      6  N   UNL     1       6.016   4.238  18.498  0.00  0.00    +0.000 NA
ATOM      7  C   UNL     1       5.641   5.298  17.806  0.00  0.00    +0.000 A 
ATOM      8  N   UNL     1       4.485   5.822  18.361  0.00  0.00    +0.000 N 
ATOM      9  C   UNL     1       3.717   6.969  18.092  0.00  0.00    +0.000 A 
ENDROOT
BRANCH   7  10
ATOM     10  C   UNL     1       6.348   5.821  16.606  0.00  0.00    +0.000 C 
ATOM     11  C   UNL     1       5.369   6.189  15.491  0.00  0.00    +0.000 C 
ATOM     12  C   UNL     1       5.269   4.918  14.665  0.00  0.00    +0.000 C 
ATOM     13  N   UNL     1       6.610   4.316  14.704  0.00  0.00    +0.000 NA
ATOM     14  C   UNL     1       7.242   4.763  15.963  0.00  0.00    +0.000 C 
BRANCH  13  15
ATOM     15  C   UNL     1       7.401   4.654  13.510  0.00  0.00    +0.000 C 
BRANCH  15  16
ATOM     16  C   UNL     1       6.812   4.044  12.226  0.00  0.00    +0.000 C 
BRANCH  16  17
ATOM     17  O   UNL     1       6.299   2.739  12.503  0.00  0.00    +0.000 OA
ATOM     18  C   UNL     1       5.381   2.336  11.495  0.00  0.00    +0.000 C 
ENDBRANCH  16  17
ENDBRANCH  15  16
ENDBRANCH  13  15
ENDBRANCH   7  10
BRANCH   1  20
ATOM     19  N   UNL     1       1.058   9.248  19.457  0.00  0.00    +0.000 N 
ATOM     20  C   UNL     1       1.849   8.554  18.517  0.00  0.00    +0.000 C 
ATOM     21  O   UNL     1       1.968   9.000  17.371  0.00  0.00    +0.000 OA
BRANCH  19  22
ATOM     22  C   UNL     1       0.921   8.881  20.876  0.00  0.00    +0.000 C 
ATOM     23  C   UNL     1       1.164  10.104  21.774  0.00  0.00    +0.000 C 
ATOM     24  C   UNL     1      -0.359   8.165  21.309  0.00  0.00    +0.000 C 
ENDBRANCH  19  22
BRANCH  19  26
ATOM     25  C   UNL     1      -0.987  10.355  18.464  0.00  0.00    +0.000 C 
ATOM     26  C   UNL     1       0.424  10.514  19.022  0.00  0.00    +0.000 C 
ENDBRANCH  19  26
ENDBRANCH   1  20
TORSDOF 7
ENDMDL
MODEL 2
REMARK VINA RESULT:      -6.6      3.293      5.081
REMARK  Name = 
REMARK  11 active torsions:
REMARK  status: ('A' for Active; 'I' for Inactive)
REMARK    1  A    between atoms: C_1  and  C_2
REMARK    2  A    between atoms: C_2  and  N_3
REMARK    3  A    between atoms: N_3  and  C_24
REMARK    4  A    between atoms: C_4  and  C_6
REMARK    5  A    between atoms: C_12  and  C_13
REMARK    6  A    between atoms: N_16  and  C_17
REMARK    7  A    between atoms: C_17  and  C_18
REMARK    8  A    between atoms: C_18  and  O_19
REMARK    9  A    between atoms: O_19  and  C_20
REMARK   10  A    between atoms: C_24  and  C_25
REMARK   11  A    between atoms: C_24  and  C_26
REMARK                            x       y       z     vdW  Elec       q    Type
REMARK                         _______ _______ _______ _____ _____    ______ ____
ROOT
ATOM      1  C   UNL     1       5.504   4.170  18.296  0.00  0.00    +0.000 A 
ATOM      2  C   UNL     1       6.322   5.317  18.709  0.00  0.00    +0.000 A 
ATOM      3  C   UNL     1       7.085   6.037  17.874  0.00  0.00    +0.000 A 
ATOM      4  C   UNL     1       7.132   5.695  16.516  0.00  0.00    +0.000 A 
ATOM      5  N   UNL     1       7.745   6.254  15.505  0.00  0.00    +0.000 NA
ATOM      6  N   UNL     1       7.478   5.497  14.405  0.00  0.00    +0.000 NA
ATOM      7  C   UNL     1       6.727   4.473  14.764  0.00  0.00    +0.000 A 
ATOM      8  N   UNL     1       6.420   4.579  16.110  0.00  0.00    +0.000 N 
ATOM      9  C   UNL     1       5.600   3.834  16.977  0.00  0.00    +0.000 A 
ENDROOT
BRANCH   7  10
ATOM     10  C   UNL     1       6.303   3.374  13.855  0.00  0.00    +0.000 C 
ATOM     11  C   UNL     1       7.101   3.382  12.551  0.00  0.00    +0.000 C 
ATOM     12  C   UNL     1       6.264   4.242  11.620  0.00  0.00    +0.000 C 
ATOM     13  N   UNL     1       4.866   3.956  11.972  0.00  0.00    +0.000 NA
ATOM     14  C   UNL     1       4.858   3.542  13.390  0.00  0.00    +0.000 C 
BRANCH  13  15
ATOM     15  C   UNL     1       4.264   2.957  11.076  0.00  0.00    +0.000 C 
BRANCH  15  16
ATOM     16  C   UNL     1       2.950   3.451  10.445  0.00  0.00    +0.000 C 
BRANCH  16  17
ATOM     17  O   UNL     1       3.208   3.969   9.138  0.00  0.00    +0.000 OA
ATOM     18  C   UNL     1       2.259   4.972   8.800  0.00  0.00    +0.000 C 
ENDBRANCH  16  17
ENDBRANCH  15  16
ENDBRANCH  13  15
ENDBRANCH   7  10
BRANCH   1  20
ATOM     19  N   UNL     1       3.118   3.589  19.193  0.00  0.00    +0.000 N 
ATOM     20  C   UNL     1       4.510   3.361  19.161  0.00  0.00    +0.000 C 
ATOM     21  O   UNL     1       5.001   2.477  19.870  0.00  0.00    +0.000 OA
BRANCH  19  22
ATOM     22  C   UNL     1       2.399   4.535  18.324  0.00  0.00    +0.000 C 
ATOM     23  C   UNL     1       1.064   3.932  17.860  0.00  0.00    +0.000 C 
ATOM     24  C   UNL     1       2.174   5.956  18.845  0.00  0.00    +0.000 C 
ENDBRANCH  19  22
BRANCH  19  26
ATOM     25  C   UNL     1       1.906   3.355  21.400  0.00  0.00    +0.000 C 
ATOM     26  C   UNL     1       2.298   2.720  20.070  0.00  0.00    +0.000 C 
ENDBRANCH  19  26
ENDBRANCH   1  20
TORSDOF 7
ENDMDL
MODEL 3
REMARK VINA RESULT:      -6.5      1.241      1.586
REMARK  Name = 
REMARK  11 active torsions:
REMARK  status: ('A' for Active; 'I' for Inactive)
REMARK    1  A    between atoms: C_1  and  C_2
REMARK    2  A    between atoms: C_2  and  N_3
REMARK    3  A    between atoms: N_3  and  C_24
REMARK    4  A    between atoms: C_4  and  C_6
REMARK    5  A    between atoms: C_12  and  C_13
REMARK    6  A    between atoms: N_16  and  C_17
REMARK    7  A    between atoms: C_17  and  C_18
REMARK    8  A    between atoms: C_18  and  O_19
REMARK    9  A    between atoms: O_19  and  C_20
REMARK   10  A    between atoms: C_24  and  C_25
REMARK   11  A    between atoms: C_24  and  C_26
REMARK                            x       y       z     vdW  Elec       q    Type
REMARK                         _______ _______ _______ _____ _____    ______ ____
ROOT
ATOM      1  C   UNL     1       2.266   6.533  19.596  0.00  0.00    +0.000 A 
ATOM      2  C   UNL     1       1.495   5.605  20.431  0.00  0.00    +0.000 A 
ATOM      3  C   UNL     1       1.893   4.363  20.741  0.00  0.00    +0.000 A 
ATOM      4  C   UNL     1       3.115   3.888  20.247  0.00  0.00    +0.000 A 
ATOM      5  N   UNL     1       3.744   2.757  20.439  0.00  0.00    +0.000 NA
ATOM      6  N   UNL     1       4.885   2.800  19.696  0.00  0.00    +0.000 NA
ATOM      7  C   UNL     1       4.925   3.946  19.043  0.00  0.00    +0.000 A 
ATOM      8  N   UNL     1       3.834   4.719  19.405  0.00  0.00    +0.000 N 
ATOM      9  C   UNL     1       3.433   6.031  19.094  0.00  0.00    +0.000 A 
ENDROOT
BRANCH   7  10
ATOM     10  C   UNL     1       5.975   4.323  18.058  0.00  0.00    +0.000 C 
ATOM     11  C   UNL     1       6.077   5.840  17.898  0.00  0.00    +0.000 C 
ATOM     12  C   UNL     1       5.132   6.147  16.749  0.00  0.00    +0.000 C 
ATOM     13  N   UNL     1       5.243   5.003  15.833  0.00  0.00    +0.000 NA
ATOM     14  C   UNL     1       5.639   3.838  16.650  0.00  0.00    +0.000 C 
BRANCH  13  15
ATOM     15  C   UNL     1       6.173   5.272  14.724  0.00  0.00    +0.000 C 
BRANCH  15  16
ATOM     16  C   UNL     1       6.433   4.024  13.862  0.00  0.00    +0.000 C 
BRANCH  16  17
ATOM     17  O   UNL     1       5.275   3.732  13.076  0.00  0.00    +0.000 OA
ATOM     18  C   UNL     1       5.626   2.956  11.936  0.00  0.00    +0.000 C 
ENDBRANCH  16  17
ENDBRANCH  15  16
ENDBRANCH  13  15
ENDBRANCH   7  10
BRANCH   1  20
ATOM     19  N   UNL     1       1.235   8.870  20.154  0.00  0.00    +0.000 N 
ATOM     20  C   UNL     1       1.944   8.013  19.285  0.00  0.00    +0.000 C 
ATOM     21  O   UNL     1       2.330   8.435  18.190  0.00  0.00    +0.000 OA
BRANCH  19  22
ATOM     22  C   UNL     1       0.816   8.524  21.521  0.00  0.00    +0.000 C 
ATOM     23  C   UNL     1       1.529   9.419  22.546  0.00  0.00    +0.000 C 
ATOM     24  C   UNL     1      -0.684   8.484  21.820  0.00  0.00    +0.000 C 
ENDBRANCH  19  22
BRANCH  19  26
ATOM     25  C   UNL     1      -0.254  10.476  18.889  0.00  0.00    +0.000 C 
ATOM     26  C   UNL     1       1.014  10.267  19.711  0.00  0.00    +0.000 C 
ENDBRANCH  19  26
ENDBRANCH   1  20
TORSDOF 7
ENDMDL
MODEL 4
REMARK VINA RESULT:      -6.3      4.105      9.298
REMARK  Name = 
REMARK  11 active torsions:
REMARK  status: ('A' for Active; 'I' for Inactive)
REMARK    1  A    between atoms: C_1  and  C_2
REMARK    2  A    between atoms: C_2  and  N_3
REMARK    3  A    between atoms: N_3  and  C_24
REMARK    4  A    between atoms: C_4  and  C_6
REMARK    5  A    between atoms: C_12  and  C_13
REMARK    6  A    between atoms: N_16  and  C_17
REMARK    7  A    between atoms: C_17  and  C_18
REMARK    8  A    between atoms: C_18  and  O_19
REMARK    9  A    between atoms: O_19  and  C_20
REMARK   10  A    between atoms: C_24  and  C_25
REMARK   11  A    between atoms: C_24  and  C_26
REMARK                            x       y       z     vdW  Elec       q    Type
REMARK                         _______ _______ _______ _____ _____    ______ ____
ROOT
ATOM      1  C   UNL     1       2.585   6.345  19.435  0.00  0.00    +0.000 A 
ATOM      2  C   UNL     1       3.426   6.664  18.275  0.00  0.00    +0.000 A 
ATOM      3  C   UNL     1       3.385   7.829  17.613  0.00  0.00    +0.000 A 
ATOM      4  C   UNL     1       2.489   8.824  18.024  0.00  0.00    +0.000 A 
ATOM      5  N   UNL     1       2.290  10.041  17.589  0.00  0.00    +0.000 NA
ATOM      6  N   UNL     1       1.274  10.570  18.325  0.00  0.00    +0.000 NA
ATOM      7  C   UNL     1       0.850   9.661  19.182  0.00  0.00    +0.000 A 
ATOM      8  N   UNL     1       1.638   8.527  19.075  0.00  0.00    +0.000 N 
ATOM      9  C   UNL     1       1.692   7.316  19.788  0.00  0.00    +0.000 A 
ENDROOT
BRANCH   7  10
ATOM     10  C   UNL     1      -0.310   9.836  20.098  0.00  0.00    +0.000 C 
ATOM     11  C   UNL     1      -1.039  11.154  19.838  0.00  0.00    +0.000 C 
ATOM     12  C   UNL     1      -0.364  12.132  20.785  0.00  0.00    +0.000 C 
ATOM     13  N   UNL     1      -0.037  11.353  21.988  0.00  0.00    +0.000 NA
ATOM     14  C   UNL     1       0.126   9.950  21.557  0.00  0.00    +0.000 C 
BRANCH  13  15
ATOM     15  C   UNL     1      -1.049  11.518  23.044  0.00  0.00    +0.000 C 
BRANCH  15  16
ATOM     16  C   UNL     1      -1.615  12.948  23.094  0.00  0.00    +0.000 C 
BRANCH  16  17
ATOM     17  O   UNL     1      -2.970  12.914  23.548  0.00  0.00    +0.000 OA
ATOM     18  C   UNL     1      -3.865  12.819  22.447  0.00  0.00    +0.000 C 
ENDBRANCH  16  17
ENDBRANCH  15  16
ENDBRANCH  13  15
ENDBRANCH   7  10
BRANCH   1  20
ATOM     19  N   UNL     1       2.738   3.766  19.831  0.00  0.00    +0.000 N 
ATOM     20  C   UNL     1       2.645   5.084  20.326  0.00  0.00    +0.000 C 
ATOM     21  O   UNL     1       2.589   5.276  21.545  0.00  0.00    +0.000 OA
BRANCH  19  22
ATOM     22  C   UNL     1       2.918   3.409  18.415  0.00  0.00    +0.000 C 
ATOM     23  C   UNL     1       3.468   1.980  18.285  0.00  0.00    +0.000 C 
ATOM     24  C   UNL     1       1.726   3.595  17.474  0.00  0.00    +0.000 C 
ENDBRANCH  19  22
BRANCH  19  26
ATOM     25  C   UNL     1       1.501   2.446  21.599  0.00  0.00    +0.000 C 
ATOM     26  C   UNL     1       2.795   2.662  20.819  0.00  0.00    +0.000 C 
ENDBRANCH  19  26
ENDBRANCH   1  20
TORSDOF 7
ENDMDL
MODEL 5
REMARK VINA RESULT:      -6.3      1.663      2.096
REMARK  Name = 
REMARK  11 active torsions:
REMARK  status: ('A' for Active; 'I' for Inactive)
REMARK    1  A    between atoms: C_1  and  C_2
REMARK    2  A    between atoms: C_2  and  N_3
REMARK    3  A    between atoms: N_3  and  C_24
REMARK    4  A    between atoms: C_4  and  C_6
REMARK    5  A    between atoms: C_12  and  C_13
REMARK    6  A    between atoms: N_16  and  C_17
REMARK    7  A    between atoms: C_17  and  C_18
REMARK    8  A    between atoms: C_18  and  O_19
REMARK    9  A    between atoms: O_19  and  C_20
REMARK   10  A    between atoms: C_24  and  C_25
REMARK   11  A    between atoms: C_24  and  C_26
REMARK                            x       y       z     vdW  Elec       q    Type
REMARK                         _______ _______ _______ _____ _____    ______ ____
ROOT
ATOM      1  C   UNL     1       2.239   6.450  19.689  0.00  0.00    +0.000 A 
ATOM      2  C   UNL     1       1.548   5.588  20.655  0.00  0.00    +0.000 A 
ATOM      3  C   UNL     1       1.958   4.357  20.993  0.00  0.00    +0.000 A 
ATOM      4  C   UNL     1       3.112   3.828  20.401  0.00  0.00    +0.000 A 
ATOM      5  N   UNL     1       3.740   2.696  20.590  0.00  0.00    +0.000 NA
ATOM      6  N   UNL     1       4.794   2.673  19.728  0.00  0.00    +0.000 NA
ATOM      7  C   UNL     1       4.782   3.778  19.008  0.00  0.00    +0.000 A 
ATOM      8  N   UNL     1       3.749   4.594  19.439  0.00  0.00    +0.000 N 
ATOM      9  C   UNL     1       3.337   5.895  19.096  0.00  0.00    +0.000 A 
ENDROOT
BRANCH   7  10
ATOM     10  C   UNL     1       5.724   4.076  17.896  0.00  0.00    +0.000 C 
ATOM     11  C   UNL     1       6.393   5.439  18.075  0.00  0.00    +0.000 C 
ATOM     12  C   UNL     1       5.478   6.391  17.324  0.00  0.00    +0.000 C 
ATOM     13  N   UNL     1       4.980   5.630  16.170  0.00  0.00    +0.000 NA
ATOM     14  C   UNL     1       5.005   4.204  16.555  0.00  0.00    +0.000 C 
BRANCH  13  15
ATOM     15  C   UNL     1       5.751   5.911  14.949  0.00  0.00    +0.000 C 
BRANCH  15  16
ATOM     16  C   UNL     1       6.710   4.763  14.585  0.00  0.00    +0.000 C 
BRANCH  16  17
ATOM     17  O   UNL     1       7.980   5.298  14.204  0.00  0.00    +0.000 OA
ATOM     18  C   UNL     1       8.074   5.408  12.789  0.00  0.00    +0.000 C 
ENDBRANCH  16  17
ENDBRANCH  15  16
ENDBRANCH  13  15
ENDBRANCH   7  10
BRANCH   1  20
ATOM     19  N   UNL     1       1.208   8.803  20.174  0.00  0.00    +0.000 N 
ATOM     20  C   UNL     1       1.908   7.916  19.328  0.00  0.00    +0.000 C 
ATOM     21  O   UNL     1       2.279   8.299  18.214  0.00  0.00    +0.000 OA
BRANCH  19  22
ATOM     22  C   UNL     1       0.806   8.506  21.558  0.00  0.00    +0.000 C 
ATOM     23  C   UNL     1       1.575   9.398  22.545  0.00  0.00    +0.000 C 
ATOM     24  C   UNL     1      -0.687   8.531  21.890  0.00  0.00    +0.000 C 
ENDBRANCH  19  22
BRANCH  19  26
ATOM     25  C   UNL     1      -0.318  10.363  18.894  0.00  0.00    +0.000 C 
ATOM     26  C   UNL     1       0.976  10.182  19.683  0.00  0.00    +0.000 C 
ENDBRANCH  19  26
ENDBRANCH   1  20
TORSDOF 7
ENDMDL
MODEL 6
REMARK VINA RESULT:      -6.3      1.608      2.409
REMARK  Name = 
REMARK  11 active torsions:
REMARK  status: ('A' for Active; 'I' for Inactive)
REMARK    1  A    between atoms: C_1  and  C_2
REMARK    2  A    between atoms: C_2  and  N_3
REMARK    3  A    between atoms: N_3  and  C_24
REMARK    4  A    between atoms: C_4  and  C_6
REMARK    5  A    between atoms: C_12  and  C_13
REMARK    6  A    between atoms: N_16  and  C_17
REMARK    7  A    between atoms: C_17  and  C_18
REMARK    8  A    between atoms: C_18  and  O_19
REMARK    9  A    between atoms: O_19  and  C_20
REMARK   10  A    between atoms: C_24  and  C_25
REMARK   11  A    between atoms: C_24  and  C_26
REMARK                            x       y       z     vdW  Elec       q    Type
REMARK                         _______ _______ _______ _____ _____    ______ ____
ROOT
ATOM      1  C   UNL     1       1.740   6.485  20.452  0.00  0.00    +0.000 A 
ATOM      2  C   UNL     1       0.886   5.318  20.702  0.00  0.00    +0.000 A 
ATOM      3  C   UNL     1       1.246   4.052  20.445  0.00  0.00    +0.000 A 
ATOM      4  C   UNL     1       2.508   3.794  19.895  0.00  0.00    +0.000 A 
ATOM      5  N   UNL     1       3.109   2.669  19.603  0.00  0.00    +0.000 NA
ATOM      6  N   UNL     1       4.318   2.988  19.062  0.00  0.00    +0.000 NA
ATOM      7  C   UNL     1       4.428   4.303  19.009  0.00  0.00    +0.000 A 
ATOM      8  N   UNL     1       3.310   4.880  19.589  0.00  0.00    +0.000 N 
ATOM      9  C   UNL     1       2.948   6.208  19.878  0.00  0.00    +0.000 A 
ENDROOT
BRANCH   7  10
ATOM     10  C   UNL     1       5.571   5.033  18.399  0.00  0.00    +0.000 C 
ATOM     11  C   UNL     1       5.103   6.269  17.630  0.00  0.00    +0.000 C 
ATOM     12  C   UNL     1       4.898   5.757  16.214  0.00  0.00    +0.000 C 
ATOM     13  N   UNL     1       5.945   4.747  16.005  0.00  0.00    +0.000 NA
ATOM     14  C   UNL     1       6.281   4.199  17.335  0.00  0.00    +0.000 C 
BRANCH  13  15
ATOM     15  C   UNL     1       7.111   5.300  15.299  0.00  0.00    +0.000 C 
BRANCH  15  16
ATOM     16  C   UNL     1       7.146   4.889  13.816  0.00  0.00    +0.000 C 
BRANCH  16  17
ATOM     17  O   UNL     1       6.451   3.653  13.642  0.00  0.00    +0.000 OA
ATOM     18  C   UNL     1       6.253   3.379  12.260  0.00  0.00    +0.000 C 
ENDBRANCH  16  17
ENDBRANCH  15  16
ENDBRANCH  13  15
ENDBRANCH   7  10
BRANCH   1  20
ATOM     19  N   UNL     1       1.240   8.987  19.882  0.00  0.00    +0.000 N 
ATOM     20  C   UNL     1       1.457   7.958  20.824  0.00  0.00    +0.000 C 
ATOM     21  O   UNL     1       1.444   8.222  22.031  0.00  0.00    +0.000 OA
BRANCH  19  22
ATOM     22  C   UNL     1       1.126   8.787  18.429  0.00  0.00    +0.000 C 
ATOM     23  C   UNL     1       0.058   9.722  17.839  0.00  0.00    +0.000 C 
ATOM     24  C   UNL     1       2.405   8.867  17.593  0.00  0.00    +0.000 C 
ENDBRANCH  19  22
BRANCH  19  26
ATOM     25  C   UNL     1      -0.402  10.525  21.038  0.00  0.00    +0.000 C 
ATOM     26  C   UNL     1       0.973  10.349  20.401  0.00  0.00    +0.000 C 
ENDBRANCH  19  26
ENDBRANCH   1  20
TORSDOF 7
ENDMDL
MODEL 7
REMARK VINA RESULT:      -6.3      1.957      3.582
REMARK  Name = 
REMARK  11 active torsions:
REMARK  status: ('A' for Active; 'I' for Inactive)
REMARK    1  A    between atoms: C_1  and  C_2
REMARK    2  A    between atoms: C_2  and  N_3
REMARK    3  A    between atoms: N_3  and  C_24
REMARK    4  A    between atoms: C_4  and  C_6
REMARK    5  A    between atoms: C_12  and  C_13
REMARK    6  A    between atoms: N_16  and  C_17
REMARK    7  A    between atoms: C_17  and  C_18
REMARK    8  A    between atoms: C_18  and  O_19
REMARK    9  A    between atoms: O_19  and  C_20
REMARK   10  A    between atoms: C_24  and  C_25
REMARK   11  A    between atoms: C_24  and  C_26
REMARK                            x       y       z     vdW  Elec       q    Type
REMARK                         _______ _______ _______ _____ _____    ______ ____
ROOT
ATOM      1  C   UNL     1       0.916   9.724  19.705  0.00  0.00    +0.000 A 
ATOM      2  C   UNL     1       0.447   9.270  21.020  0.00  0.00    +0.000 A 
ATOM      3  C   UNL     1       0.728   8.068  21.545  0.00  0.00    +0.000 A 
ATOM      4  C   UNL     1       1.510   7.164  20.815  0.00  0.00    +0.000 A 
ATOM      5  N   UNL     1       1.960   5.972  21.116  0.00  0.00    +0.000 NA
ATOM      6  N   UNL     1       2.648   5.518  20.032  0.00  0.00    +0.000 NA
ATOM      7  C   UNL     1       2.588   6.426  19.076  0.00  0.00    +0.000 A 
ATOM      8  N   UNL     1       1.913   7.541  19.546  0.00  0.00    +0.000 N 
ATOM      9  C   UNL     1       1.642   8.808  18.999  0.00  0.00    +0.000 A 
ENDROOT
BRANCH   7  10
ATOM     10  C   UNL     1       3.144   6.254  17.707  0.00  0.00    +0.000 C 
ATOM     11  C   UNL     1       3.403   4.782  17.385  0.00  0.00    +0.000 C 
ATOM     12  C   UNL     1       4.845   4.567  17.812  0.00  0.00    +0.000 C 
ATOM     13  N   UNL     1       5.537   5.827  17.507  0.00  0.00    +0.000 NA
ATOM     14  C   UNL     1       4.521   6.898  17.565  0.00  0.00    +0.000 C 
BRANCH  13  15
ATOM     15  C   UNL     1       6.242   5.770  16.217  0.00  0.00    +0.000 C 
BRANCH  15  16
ATOM     16  C   UNL     1       7.054   4.474  16.049  0.00  0.00    +0.000 C 
BRANCH  16  17
ATOM     17  O   UNL     1       6.397   3.611  15.119  0.00  0.00    +0.000 OA
ATOM     18  C   UNL     1       6.310   4.226  13.839  0.00  0.00    +0.000 C 
ENDBRANCH  16  17
ENDBRANCH  15  16
ENDBRANCH  13  15
ENDBRANCH   7  10
BRANCH   1  20
ATOM     19  N   UNL     1      -0.464  11.600  18.518  0.00  0.00    +0.000 N 
ATOM     20  C   UNL     1       0.742  11.125  19.074  0.00  0.00    +0.000 C 
ATOM     21  O   UNL     1       1.748  11.842  19.057  0.00  0.00    +0.000 OA
BRANCH  19  22
ATOM     22  C   UNL     1      -1.752  10.891  18.569  0.00  0.00    +0.000 C 
ATOM     23  C   UNL     1      -2.897  11.873  18.866  0.00  0.00    +0.000 C 
ATOM     24  C   UNL     1      -2.127  10.001  17.383  0.00  0.00    +0.000 C 
ENDBRANCH  19  22
BRANCH  19  26
ATOM     25  C   UNL     1      -0.342  14.080  18.998  0.00  0.00    +0.000 C 
ATOM     26  C   UNL     1      -0.470  12.972  17.957  0.00  0.00    +0.000 C 
ENDBRANCH  19  26
ENDBRANCH   1  20
TORSDOF 7
ENDMDL
MODEL 8
REMARK VINA RESULT:      -6.3      3.344      8.319
REMARK  Name = 
REMARK  11 active torsions:
REMARK  status: ('A' for Active; 'I' for Inactive)
REMARK    1  A    between atoms: C_1  and  C_2
REMARK    2  A    between atoms: C_2  and  N_3
REMARK    3  A    between atoms: N_3  and  C_24
REMARK    4  A    between atoms: C_4  and  C_6
REMARK    5  A    between atoms: C_12  and  C_13
REMARK    6  A    between atoms: N_16  and  C_17
REMARK    7  A    between atoms: C_17  and  C_18
REMARK    8  A    between atoms: C_18  and  O_19
REMARK    9  A    between atoms: O_19  and  C_20
REMARK   10  A    between atoms: C_24  and  C_25
REMARK   11  A    between atoms: C_24  and  C_26
REMARK                            x       y       z     vdW  Elec       q    Type
REMARK                         _______ _______ _______ _____ _____    ______ ____
ROOT
ATOM      1  C   UNL     1       1.969   7.911  19.587  0.00  0.00    +0.000 A 
ATOM      2  C   UNL     1       2.097   7.901  21.049  0.00  0.00    +0.000 A 
ATOM      3  C   UNL     1       1.353   8.652  21.875  0.00  0.00    +0.000 A 
ATOM      4  C   UNL     1       0.388   9.515  21.340  0.00  0.00    +0.000 A 
ATOM      5  N   UNL     1      -0.484  10.301  21.917  0.00  0.00    +0.000 NA
ATOM      6  N   UNL     1      -1.162  10.945  20.927  0.00  0.00    +0.000 NA
ATOM      7  C   UNL     1      -0.678  10.563  19.760  0.00  0.00    +0.000 A 
ATOM      8  N   UNL     1       0.290   9.592  19.961  0.00  0.00    +0.000 N 
ATOM      9  C   UNL     1       1.051   8.791  19.091  0.00  0.00    +0.000 A 
ENDROOT
BRANCH   7  10
ATOM     10  C   UNL     1      -1.103  11.114  18.446  0.00  0.00    +0.000 C 
ATOM     11  C   UNL     1      -1.985  12.352  18.613  0.00  0.00    +0.000 C 
ATOM     12  C   UNL     1      -3.396  11.788  18.637  0.00  0.00    +0.000 C 
ATOM     13  N   UNL     1      -3.381  10.649  17.708  0.00  0.00    +0.000 NA
ATOM     14  C   UNL     1      -1.994  10.141  17.678  0.00  0.00    +0.000 C 
BRANCH  13  15
ATOM     15  C   UNL     1      -3.890  11.016  16.377  0.00  0.00    +0.000 C 
BRANCH  15  16
ATOM     16  C   UNL     1      -2.826  10.849  15.277  0.00  0.00    +0.000 C 
BRANCH  16  17
ATOM     17  O   UNL     1      -3.106   9.676  14.511  0.00  0.00    +0.000 OA
ATOM     18  C   UNL     1      -4.060   9.957  13.494  0.00  0.00    +0.000 C 
ENDBRANCH  16  17
ENDBRANCH  15  16
ENDBRANCH  13  15
ENDBRANCH   7  10
BRANCH   1  20
ATOM     19  N   UNL     1       2.644   5.591  18.589  0.00  0.00    +0.000 N 
ATOM     20  C   UNL     1       2.696   7.001  18.571  0.00  0.00    +0.000 C 
ATOM     21  O   UNL     1       3.371   7.577  17.711  0.00  0.00    +0.000 OA
BRANCH  19  22
ATOM     22  C   UNL     1       1.798   4.791  19.489  0.00  0.00    +0.000 C 
ATOM     23  C   UNL     1       1.266   3.546  18.762  0.00  0.00    +0.000 C 
ATOM     24  C   UNL     1       2.377   4.392  20.847  0.00  0.00    +0.000 C 
ENDBRANCH  19  22
BRANCH  19  26
ATOM     25  C   UNL     1       4.734   4.295  17.995  0.00  0.00    +0.000 C 
ATOM     26  C   UNL     1       3.392   4.862  17.538  0.00  0.00    +0.000 C 
ENDBRANCH  19  26
ENDBRANCH   1  20
TORSDOF 7
ENDMDL
MODEL 9
REMARK VINA RESULT:      -6.1      7.933     11.867
REMARK  Name = 
REMARK  11 active torsions:
REMARK  status: ('A' for Active; 'I' for Inactive)
REMARK    1  A    between atoms: C_1  and  C_2
REMARK    2  A    between atoms: C_2  and  N_3
REMARK    3  A    between atoms: N_3  and  C_24
REMARK    4  A    between atoms: C_4  and  C_6
REMARK    5  A    between atoms: C_12  and  C_13
REMARK    6  A    between atoms: N_16  and  C_17
REMARK    7  A    between atoms: C_17  and  C_18
REMARK    8  A    between atoms: C_18  and  O_19
REMARK    9  A    between atoms: O_19  and  C_20
REMARK   10  A    between atoms: C_24  and  C_25
REMARK   11  A    between atoms: C_24  and  C_26
REMARK                            x       y       z     vdW  Elec       q    Type
REMARK                         _______ _______ _______ _____ _____    ______ ____
ROOT
ATOM      1  C   UNL     1       8.200  14.512  18.253  0.00  0.00    +0.000 A 
ATOM      2  C   UNL     1       9.135  15.632  18.407  0.00  0.00    +0.000 A 
ATOM      3  C   UNL     1       8.778  16.860  18.810  0.00  0.00    +0.000 A 
ATOM      4  C   UNL     1       7.434  17.125  19.104  0.00  0.00    +0.000 A 
ATOM      5  N   UNL     1       6.844  18.202  19.554  0.00  0.00    +0.000 NA
ATOM      6  N   UNL     1       5.513  17.927  19.634  0.00  0.00    +0.000 NA
ATOM      7  C   UNL     1       5.305  16.696  19.208  0.00  0.00    +0.000 A 
ATOM      8  N   UNL     1       6.520  16.104  18.906  0.00  0.00    +0.000 N 
ATOM      9  C   UNL     1       6.892  14.808  18.506  0.00  0.00    +0.000 A 
ENDROOT
BRANCH   7  10
ATOM     10  C   UNL     1       3.966  16.065  19.062  0.00  0.00    +0.000 C 
ATOM     11  C   UNL     1       3.621  15.809  17.594  0.00  0.00    +0.000 C 
ATOM     12  C   UNL     1       2.883  17.068  17.173  0.00  0.00    +0.000 C 
ATOM     13  N   UNL     1       2.117  17.490  18.354  0.00  0.00    +0.000 NA
ATOM     14  C   UNL     1       2.844  16.985  19.537  0.00  0.00    +0.000 C 
BRANCH  13  15
ATOM     15  C   UNL     1       0.720  17.031  18.298  0.00  0.00    +0.000 C 
BRANCH  15  16
ATOM     16  C   UNL     1       0.397  15.999  19.393  0.00  0.00    +0.000 C 
BRANCH  16  17
ATOM     17  O   UNL     1       0.381  14.686  18.828  0.00  0.00    +0.000 OA
ATOM     18  C   UNL     1      -0.645  13.899  19.418  0.00  0.00    +0.000 C 
ENDBRANCH  16  17
ENDBRANCH  15  16
ENDBRANCH  13  15
ENDBRANCH   7  10
BRANCH   1  20
ATOM     19  N   UNL     1       9.555  12.294  18.540  0.00  0.00    +0.000 N 
ATOM     20  C   UNL     1       8.537  13.042  17.910  0.00  0.00    +0.000 C 
ATOM     21  O   UNL     1       7.867  12.526  17.010  0.00  0.00    +0.000 OA
BRANCH  19  22
ATOM     22  C   UNL     1      10.349  12.754  19.689  0.00  0.00    +0.000 C 
ATOM     23  C   UNL     1       9.519  12.683  20.981  0.00  0.00    +0.000 C 
ATOM     24  C   UNL     1      11.718  12.109  19.916  0.00  0.00    +0.000 C 
ENDBRANCH  19  22
BRANCH  19  26
ATOM     25  C   UNL     1       8.922   9.868  18.874  0.00  0.00    +0.000 C 
ATOM     26  C   UNL     1       9.748  10.891  18.101  0.00  0.00    +0.000 C 
ENDBRANCH  19  26
ENDBRANCH   1  20
TORSDOF 7
ENDMDL
