MODEL 1
REMARK VINA RESULT:      -8.3      0.000      0.000
REMARK  Name = 
REMARK  8 active torsions:
REMARK  status: ('A' for Active; 'I' for Inactive)
REMARK    1  A    between atoms: C_1  and  C_2
REMARK    2  A    between atoms: C_5  and  N_6
REMARK    3  A    between atoms: C_7  and  C_9
REMARK    4  A    between atoms: C_9  and  C_10
REMARK    5  A    between atoms: C_10  and  C_11
REMARK    6  A    between atoms: C_16  and  O_17
REMARK    7  A    between atoms: C_22  and  C_23
REMARK    8  A    between atoms: C_23  and  O_25
REMARK                            x       y       z     vdW  Elec       q    Type
REMARK                         _______ _______ _______ _____ _____    ______ ____
ROOT
ATOM      1  N   UNL     1       2.354   6.619  20.615  0.00  0.00    +0.000 N 
ATOM      2  C   UNL     1       1.694   5.393  20.727  0.00  0.00    +0.000 C 
ATOM      3  O   UNL     1       0.593   5.135  20.249  0.00  0.00    +0.000 OA
ATOM      4  H   UNL     1       3.219   6.714  21.143  0.00  0.00    +0.000 HD
ENDROOT
BRANCH   1   9
ATOM      5  C   UNL     1      -0.702  10.092  17.727  0.00  0.00    +0.000 C 
ATOM      6  C   UNL     1       0.711  10.017  18.322  0.00  0.00    +0.000 C 
ATOM      7  C   UNL     1       1.517   8.932  17.617  0.00  0.00    +0.000 C 
ATOM      8  C   UNL     1       2.067   7.784  18.448  0.00  0.00    +0.000 C 
ATOM      9  C   UNL     1       1.867   7.750  19.946  0.00  0.00    +0.000 C 
ATOM     10  C   UNL     1       1.225   8.759  20.572  0.00  0.00    +0.000 C 
ATOM     11  C   UNL     1       0.653   9.959  19.857  0.00  0.00    +0.000 C 
BRANCH  10  12
ATOM     12  C   UNL     1       0.960   8.820  22.043  0.00  0.00    +0.000 C 
ATOM     13  O   UNL     1      -0.144   8.690  22.538  0.00  0.00    +0.000 OA
BRANCH  12  14
ATOM     14  O   UNL     1       2.065   9.070  22.779  0.00  0.00    +0.000 OA
ATOM     15  H   UNL     1       1.837   9.426  23.658  0.00  0.00    +0.000 HD
ENDBRANCH  12  14
ENDBRANCH  10  12
ENDBRANCH   1   9
BRANCH   2  16
ATOM     16  C   UNL     1       2.478   4.327  21.468  0.00  0.00    +0.000 C 
BRANCH  16  17
ATOM     17  C   UNL     1       2.662   3.108  20.554  0.00  0.00    +0.000 C 
BRANCH  17  18
ATOM     18  C   UNL     1       3.407   3.424  19.287  0.00  0.00    +0.000 A 
ATOM     19  C   UNL     1       2.789   3.268  18.043  0.00  0.00    +0.000 A 
ATOM     20  C   UNL     1       3.472   3.600  16.871  0.00  0.00    +0.000 A 
ATOM     21  C   UNL     1       4.786   4.096  16.921  0.00  0.00    +0.000 A 
ATOM     22  C   UNL     1       5.482   4.446  15.749  0.00  0.00    +0.000 A 
ATOM     23  C   UNL     1       6.781   4.937  15.834  0.00  0.00    +0.000 A 
ATOM     24  C   UNL     1       7.410   5.092  17.060  0.00  0.00    +0.000 A 
ATOM     25  C   UNL     1       6.730   4.753  18.232  0.00  0.00    +0.000 A 
ATOM     26  C   UNL     1       5.418   4.253  18.176  0.00  0.00    +0.000 A 
ATOM     27  C   UNL     1       4.718   3.913  19.344  0.00  0.00    +0.000 A 
BRANCH  23  28
ATOM     28  O   UNL     1       7.480   5.284  14.716  0.00  0.00    +0.000 OA
ATOM     29  H   UNL     1       6.851   5.557  14.029  0.00  0.00    +0.000 HD
ENDBRANCH  23  28
ENDBRANCH  17  18
ENDBRANCH  16  17
ENDBRANCH   2  16
TORSDOF 7
ENDMDL
MODEL 2
REMARK VINA RESULT:      -8.2      1.536      2.334
REMARK  Name = 
REMARK  8 active torsions:
REMARK  status: ('A' for Active; 'I' for Inactive)
REMARK    1  A    between atoms: C_1  and  C_2
REMARK    2  A    between atoms: C_5  and  N_6
REMARK    3  A    between atoms: C_7  and  C_9
REMARK    4  A    between atoms: C_9  and  C_10
REMARK    5  A    between atoms: C_10  and  C_11
REMARK    6  A    between atoms: C_16  and  O_17
REMARK    7  A    between atoms: C_22  and  C_23
REMARK    8  A    between atoms: C_23  and  O_25
REMARK                            x       y       z     vdW  Elec       q    Type
REMARK                         _______ _______ _______ _____ _____    ______ ____
ROOT
ATOM      1  N   UNL     1       2.214   6.270  20.891  0.00  0.00    +0.000 N 
ATOM      2  C   UNL     1       1.649   4.996  20.802  0.00  0.00    +0.000 C 
ATOM      3  O   UNL     1       0.620   4.718  20.193  0.00  0.00    +0.000 OA
ATOM      4  H   UNL     1       3.018   6.365  21.509  0.00  0.00    +0.000 HD
ENDROOT
BRANCH   1   9
ATOM      5  C   UNL     1       1.396  11.425  19.310  0.00  0.00    +0.000 C 
ATOM      6  C   UNL     1       0.668  10.074  19.266  0.00  0.00    +0.000 C 
ATOM      7  C   UNL     1       0.299   9.635  20.678  0.00  0.00    +0.000 C 
ATOM      8  C   UNL     1       0.850   8.316  21.193  0.00  0.00    +0.000 C 
ATOM      9  C   UNL     1       1.698   7.435  20.305  0.00  0.00    +0.000 C 
ATOM     10  C   UNL     1       1.949   7.792  19.028  0.00  0.00    +0.000 C 
ATOM     11  C   UNL     1       1.441   9.067  18.400  0.00  0.00    +0.000 C 
BRANCH  10  12
ATOM     12  C   UNL     1       2.786   7.005  18.070  0.00  0.00    +0.000 C 
ATOM     13  O   UNL     1       3.869   7.373  17.655  0.00  0.00    +0.000 OA
BRANCH  12  14
ATOM     14  O   UNL     1       2.207   5.850  17.674  0.00  0.00    +0.000 OA
ATOM     15  H   UNL     1       2.734   5.075  17.944  0.00  0.00    +0.000 HD
ENDBRANCH  12  14
ENDBRANCH  10  12
ENDBRANCH   1   9
BRANCH   2  16
ATOM     16  C   UNL     1       2.448   3.909  21.496  0.00  0.00    +0.000 C 
BRANCH  16  17
ATOM     17  C   UNL     1       2.655   2.738  20.525  0.00  0.00    +0.000 C 
BRANCH  17  18
ATOM     18  C   UNL     1       3.491   3.100  19.328  0.00  0.00    +0.000 A 
ATOM     19  C   UNL     1       3.134   2.653  18.053  0.00  0.00    +0.000 A 
ATOM     20  C   UNL     1       3.891   3.024  16.940  0.00  0.00    +0.000 A 
ATOM     21  C   UNL     1       5.018   3.851  17.081  0.00  0.00    +0.000 A 
ATOM     22  C   UNL     1       5.784   4.243  15.967  0.00  0.00    +0.000 A 
ATOM     23  C   UNL     1       6.892   5.065  16.140  0.00  0.00    +0.000 A 
ATOM     24  C   UNL     1       7.263   5.512  17.401  0.00  0.00    +0.000 A 
ATOM     25  C   UNL     1       6.510   5.135  18.515  0.00  0.00    +0.000 A 
ATOM     26  C   UNL     1       5.387   4.304  18.369  0.00  0.00    +0.000 A 
ATOM     27  C   UNL     1       4.616   3.920  19.477  0.00  0.00    +0.000 A 
BRANCH  23  28
ATOM     28  O   UNL     1       7.652   5.461  15.080  0.00  0.00    +0.000 OA
ATOM     29  H   UNL     1       8.493   4.976  15.104  0.00  0.00    +0.000 HD
ENDBRANCH  23  28
ENDBRANCH  17  18
ENDBRANCH  16  17
ENDBRANCH   2  16
TORSDOF 7
ENDMDL
MODEL 3
REMARK VINA RESULT:      -8.1      6.342      9.121
REMARK  Name = 
REMARK  8 active torsions:
REMARK  status: ('A' for Active; 'I' for Inactive)
REMARK    1  A    between atoms: C_1  and  C_2
REMARK    2  A    between atoms: C_5  and  N_6
REMARK    3  A    between atoms: C_7  and  C_9
REMARK    4  A    between atoms: C_9  and  C_10
REMARK    5  A    between atoms: C_10  and  C_11
REMARK    6  A    between atoms: C_16  and  O_17
REMARK    7  A    between atoms: C_22  and  C_23
REMARK    8  A    between atoms: C_23  and  O_25
REMARK                            x       y       z     vdW  Elec       q    Type
REMARK                         _______ _______ _______ _____ _____    ______ ____
ROOT
ATOM      1  N   UNL     1       6.376   7.002  17.243  0.00  0.00    +0.000 N 
ATOM      2  C   UNL     1       7.523   7.369  17.950  0.00  0.00    +0.000 C 
ATOM      3  O   UNL     1       8.090   6.675  18.790  0.00  0.00    +0.000 OA
ATOM      4  H   UNL     1       5.965   7.719  16.647  0.00  0.00    +0.000 HD
ENDROOT
BRANCH   1   9
ATOM      5  C   UNL     1       2.519   3.148  17.345  0.00  0.00    +0.000 C 
ATOM      6  C   UNL     1       3.986   3.325  17.762  0.00  0.00    +0.000 C 
ATOM      7  C   UNL     1       4.087   4.341  18.893  0.00  0.00    +0.000 C 
ATOM      8  C   UNL     1       4.925   5.590  18.671  0.00  0.00    +0.000 C 
ATOM      9  C   UNL     1       5.685   5.790  17.380  0.00  0.00    +0.000 C 
ATOM     10  C   UNL     1       5.656   4.844  16.417  0.00  0.00    +0.000 C 
ATOM     11  C   UNL     1       4.877   3.557  16.531  0.00  0.00    +0.000 C 
BRANCH  10  12
ATOM     12  C   UNL     1       6.356   4.946  15.099  0.00  0.00    +0.000 C 
ATOM     13  O   UNL     1       5.893   4.535  14.052  0.00  0.00    +0.000 OA
BRANCH  12  14
ATOM     14  O   UNL     1       7.581   5.511  15.183  0.00  0.00    +0.000 OA
ATOM     15  H   UNL     1       7.866   5.877  14.325  0.00  0.00    +0.000 HD
ENDBRANCH  12  14
ENDBRANCH  10  12
ENDBRANCH   1   9
BRANCH   2  16
ATOM     16  C   UNL     1       8.088   8.722  17.565  0.00  0.00    +0.000 C 
BRANCH  16  17
ATOM     17  C   UNL     1       8.841   9.314  18.765  0.00  0.00    +0.000 C 
BRANCH  17  18
ATOM     18  C   UNL     1       9.263  10.743  18.555  0.00  0.00    +0.000 A 
ATOM     19  C   UNL     1       8.489  11.603  17.771  0.00  0.00    +0.000 A 
ATOM     20  C   UNL     1       8.864  12.938  17.610  0.00  0.00    +0.000 A 
ATOM     21  C   UNL     1      10.019  13.439  18.234  0.00  0.00    +0.000 A 
ATOM     22  C   UNL     1      10.403  14.786  18.091  0.00  0.00    +0.000 A 
ATOM     23  C   UNL     1      11.551  15.251  18.724  0.00  0.00    +0.000 A 
ATOM     24  C   UNL     1      12.333  14.409  19.502  0.00  0.00    +0.000 A 
ATOM     25  C   UNL     1      11.962  13.071  19.655  0.00  0.00    +0.000 A 
ATOM     26  C   UNL     1      10.808  12.574  19.027  0.00  0.00    +0.000 A 
ATOM     27  C   UNL     1      10.418  11.234  19.175  0.00  0.00    +0.000 A 
BRANCH  23  28
ATOM     28  O   UNL     1      11.948  16.550  18.605  0.00  0.00    +0.000 OA
ATOM     29  H   UNL     1      12.024  16.934  19.493  0.00  0.00    +0.000 HD
ENDBRANCH  23  28
ENDBRANCH  17  18
ENDBRANCH  16  17
ENDBRANCH   2  16
TORSDOF 7
ENDMDL
MODEL 4
REMARK VINA RESULT:      -8.0      6.256      9.053
REMARK  Name = 
REMARK  8 active torsions:
REMARK  status: ('A' for Active; 'I' for Inactive)
REMARK    1  A    between atoms: C_1  and  C_2
REMARK    2  A    between atoms: C_5  and  N_6
REMARK    3  A    between atoms: C_7  and  C_9
REMARK    4  A    between atoms: C_9  and  C_10
REMARK    5  A    between atoms: C_10  and  C_11
REMARK    6  A    between atoms: C_16  and  O_17
REMARK    7  A    between atoms: C_22  and  C_23
REMARK    8  A    between atoms: C_23  and  O_25
REMARK                            x       y       z     vdW  Elec       q    Type
REMARK                         _______ _______ _______ _____ _____    ______ ____
ROOT
ATOM      1  N   UNL     1       6.312   7.137  17.477  0.00  0.00    +0.000 N 
ATOM      2  C   UNL     1       7.534   7.393  18.105  0.00  0.00    +0.000 C 
ATOM      3  O   UNL     1       8.161   6.589  18.789  0.00  0.00    +0.000 OA
ATOM      4  H   UNL     1       5.865   7.929  17.021  0.00  0.00    +0.000 HD
ENDROOT
BRANCH   1   9
ATOM      5  C   UNL     1       2.438   3.311  17.180  0.00  0.00    +0.000 C 
ATOM      6  C   UNL     1       3.868   3.467  17.715  0.00  0.00    +0.000 C 
ATOM      7  C   UNL     1       3.886   4.455  18.875  0.00  0.00    +0.000 C 
ATOM      8  C   UNL     1       4.746   5.702  18.751  0.00  0.00    +0.000 C 
ATOM      9  C   UNL     1       5.606   5.927  17.529  0.00  0.00    +0.000 C 
ATOM     10  C   UNL     1       5.648   5.004  16.544  0.00  0.00    +0.000 C 
ATOM     11  C   UNL     1       4.855   3.721  16.565  0.00  0.00    +0.000 C 
BRANCH  10  12
ATOM     12  C   UNL     1       6.451   5.132  15.288  0.00  0.00    +0.000 C 
ATOM     13  O   UNL     1       7.577   5.589  15.248  0.00  0.00    +0.000 OA
BRANCH  12  14
ATOM     14  O   UNL     1       5.788   4.723  14.183  0.00  0.00    +0.000 OA
ATOM     15  H   UNL     1       4.840   4.582  14.366  0.00  0.00    +0.000 HD
ENDBRANCH  12  14
ENDBRANCH  10  12
ENDBRANCH   1   9
BRANCH   2  16
ATOM     16  C   UNL     1       8.094   8.777  17.839  0.00  0.00    +0.000 C 
BRANCH  16  17
ATOM     17  C   UNL     1       9.056   9.158  18.972  0.00  0.00    +0.000 C 
BRANCH  17  18
ATOM     18  C   UNL     1       9.395  10.623  18.995  0.00  0.00    +0.000 A 
ATOM     19  C   UNL     1       9.109  11.400  20.122  0.00  0.00    +0.000 A 
ATOM     20  C   UNL     1       9.461  12.750  20.154  0.00  0.00    +0.000 A 
ATOM     21  C   UNL     1      10.109  13.349  19.060  0.00  0.00    +0.000 A 
ATOM     22  C   UNL     1      10.481  14.707  19.083  0.00  0.00    +0.000 A 
ATOM     23  C   UNL     1      11.124  15.269  17.985  0.00  0.00    +0.000 A 
ATOM     24  C   UNL     1      11.410  14.513  16.857  0.00  0.00    +0.000 A 
ATOM     25  C   UNL     1      11.051  13.164  16.822  0.00  0.00    +0.000 A 
ATOM     26  C   UNL     1      10.399  12.571  17.916  0.00  0.00    +0.000 A 
ATOM     27  C   UNL     1      10.037  11.215  17.900  0.00  0.00    +0.000 A 
BRANCH  23  28
ATOM     28  O   UNL     1      11.496  16.580  17.978  0.00  0.00    +0.000 OA
ATOM     29  H   UNL     1      11.015  17.035  17.268  0.00  0.00    +0.000 HD
ENDBRANCH  23  28
ENDBRANCH  17  18
ENDBRANCH  16  17
ENDBRANCH   2  16
TORSDOF 7
ENDMDL
MODEL 5
REMARK VINA RESULT:      -7.9      2.871      4.753
REMARK  Name = 
REMARK  8 active torsions:
REMARK  status: ('A' for Active; 'I' for Inactive)
REMARK    1  A    between atoms: C_1  and  C_2
REMARK    2  A    between atoms: C_5  and  N_6
REMARK    3  A    between atoms: C_7  and  C_9
REMARK    4  A    between atoms: C_9  and  C_10
REMARK    5  A    between atoms: C_10  and  C_11
REMARK    6  A    between atoms: C_16  and  O_17
REMARK    7  A    between atoms: C_22  and  C_23
REMARK    8  A    between atoms: C_23  and  O_25
REMARK                            x       y       z     vdW  Elec       q    Type
REMARK                         _______ _______ _______ _____ _____    ______ ____
ROOT
ATOM      1  N   UNL     1      -0.391  10.086  19.607  0.00  0.00    +0.000 N 
ATOM      2  C   UNL     1       0.782  10.250  18.866  0.00  0.00    +0.000 C 
ATOM      3  O   UNL     1       1.562  11.193  18.973  0.00  0.00    +0.000 OA
ATOM      4  H   UNL     1      -0.985   9.303  19.342  0.00  0.00    +0.000 HD
ENDROOT
BRANCH   1   9
ATOM      5  C   UNL     1      -3.569  12.891  23.037  0.00  0.00    +0.000 C 
ATOM      6  C   UNL     1      -2.115  12.896  22.545  0.00  0.00    +0.000 C 
ATOM      7  C   UNL     1      -2.066  13.264  21.067  0.00  0.00    +0.000 C 
ATOM      8  C   UNL     1      -1.459  12.268  20.093  0.00  0.00    +0.000 C 
ATOM      9  C   UNL     1      -0.867  10.968  20.587  0.00  0.00    +0.000 C 
ATOM     10  C   UNL     1      -0.839  10.689  21.908  0.00  0.00    +0.000 C 
ATOM     11  C   UNL     1      -1.393  11.607  22.969  0.00  0.00    +0.000 C 
BRANCH  10  12
ATOM     12  C   UNL     1      -0.293   9.429  22.503  0.00  0.00    +0.000 C 
ATOM     13  O   UNL     1      -0.620   8.314  22.145  0.00  0.00    +0.000 OA
BRANCH  12  14
ATOM     14  O   UNL     1       0.581   9.646  23.511  0.00  0.00    +0.000 OA
ATOM     15  H   UNL     1       0.988   8.814  23.816  0.00  0.00    +0.000 HD
ENDBRANCH  12  14
ENDBRANCH  10  12
ENDBRANCH   1   9
BRANCH   2  16
ATOM     16  C   UNL     1       1.078   9.115  17.905  0.00  0.00    +0.000 C 
BRANCH  16  17
ATOM     17  C   UNL     1       2.593   8.878  17.855  0.00  0.00    +0.000 C 
BRANCH  17  18
ATOM     18  C   UNL     1       2.965   7.422  17.796  0.00  0.00    +0.000 A 
ATOM     19  C   UNL     1       4.220   7.029  17.323  0.00  0.00    +0.000 A 
ATOM     20  C   UNL     1       4.575   5.679  17.306  0.00  0.00    +0.000 A 
ATOM     21  C   UNL     1       3.682   4.696  17.765  0.00  0.00    +0.000 A 
ATOM     22  C   UNL     1       4.031   3.332  17.766  0.00  0.00    +0.000 A 
ATOM     23  C   UNL     1       3.124   2.384  18.229  0.00  0.00    +0.000 A 
ATOM     24  C   UNL     1       1.872   2.758  18.696  0.00  0.00    +0.000 A 
ATOM     25  C   UNL     1       1.514   4.107  18.705  0.00  0.00    +0.000 A 
ATOM     26  C   UNL     1       2.409   5.086  18.242  0.00  0.00    +0.000 A 
ATOM     27  C   UNL     1       2.067   6.447  18.250  0.00  0.00    +0.000 A 
BRANCH  23  28
ATOM     28  O   UNL     1       3.434   1.057  18.242  0.00  0.00    +0.000 OA
ATOM     29  H   UNL     1       3.116   0.656  17.417  0.00  0.00    +0.000 HD
ENDBRANCH  23  28
ENDBRANCH  17  18
ENDBRANCH  16  17
ENDBRANCH   2  16
TORSDOF 7
ENDMDL
MODEL 6
REMARK VINA RESULT:      -7.9      1.637      2.720
REMARK  Name = 
REMARK  8 active torsions:
REMARK  status: ('A' for Active; 'I' for Inactive)
REMARK    1  A    between atoms: C_1  and  C_2
REMARK    2  A    between atoms: C_5  and  N_6
REMARK    3  A    between atoms: C_7  and  C_9
REMARK    4  A    between atoms: C_9  and  C_10
REMARK    5  A    between atoms: C_10  and  C_11
REMARK    6  A    between atoms: C_16  and  O_17
REMARK    7  A    between atoms: C_22  and  C_23
REMARK    8  A    between atoms: C_23  and  O_25
REMARK                            x       y       z     vdW  Elec       q    Type
REMARK                         _______ _______ _______ _____ _____    ______ ____
ROOT
ATOM      1  N   UNL     1       2.279   6.316  20.821  0.00  0.00    +0.000 N 
ATOM      2  C   UNL     1       1.767   5.028  20.642  0.00  0.00    +0.000 C 
ATOM      3  O   UNL     1       0.747   4.752  20.017  0.00  0.00    +0.000 OA
ATOM      4  H   UNL     1       3.082   6.399  21.441  0.00  0.00    +0.000 HD
ENDROOT
BRANCH   1   9
ATOM      5  C   UNL     1       1.254  11.530  19.594  0.00  0.00    +0.000 C 
ATOM      6  C   UNL     1       0.570  10.160  19.479  0.00  0.00    +0.000 C 
ATOM      7  C   UNL     1       0.249   9.620  20.867  0.00  0.00    +0.000 C 
ATOM      8  C   UNL     1       0.856   8.290  21.284  0.00  0.00    +0.000 C 
ATOM      9  C   UNL     1       1.711   7.497  20.323  0.00  0.00    +0.000 C 
ATOM     10  C   UNL     1       1.920   7.944  19.066  0.00  0.00    +0.000 C 
ATOM     11  C   UNL     1       1.355   9.237  18.533  0.00  0.00    +0.000 C 
BRANCH  10  12
ATOM     12  C   UNL     1       2.760   7.249  18.042  0.00  0.00    +0.000 C 
ATOM     13  O   UNL     1       3.805   7.694  17.606  0.00  0.00    +0.000 OA
BRANCH  12  14
ATOM     14  O   UNL     1       2.228   6.083  17.612  0.00  0.00    +0.000 OA
ATOM     15  H   UNL     1       1.277   6.175  17.412  0.00  0.00    +0.000 HD
ENDBRANCH  12  14
ENDBRANCH  10  12
ENDBRANCH   1   9
BRANCH   2  16
ATOM     16  C   UNL     1       2.615   3.929  21.252  0.00  0.00    +0.000 C 
BRANCH  16  17
ATOM     17  C   UNL     1       3.120   3.003  20.137  0.00  0.00    +0.000 C 
BRANCH  17  18
ATOM     18  C   UNL     1       4.107   3.667  19.217  0.00  0.00    +0.000 A 
ATOM     19  C   UNL     1       5.053   4.565  19.719  0.00  0.00    +0.000 A 
ATOM     20  C   UNL     1       5.992   5.148  18.867  0.00  0.00    +0.000 A 
ATOM     21  C   UNL     1       6.004   4.843  17.495  0.00  0.00    +0.000 A 
ATOM     22  C   UNL     1       6.953   5.414  16.626  0.00  0.00    +0.000 A 
ATOM     23  C   UNL     1       6.940   5.089  15.274  0.00  0.00    +0.000 A 
ATOM     24  C   UNL     1       6.004   4.204  14.758  0.00  0.00    +0.000 A 
ATOM     25  C   UNL     1       5.060   3.626  15.610  0.00  0.00    +0.000 A 
ATOM     26  C   UNL     1       5.049   3.938  16.979  0.00  0.00    +0.000 A 
ATOM     27  C   UNL     1       4.110   3.362  17.850  0.00  0.00    +0.000 A 
BRANCH  23  28
ATOM     28  O   UNL     1       7.846   5.626  14.408  0.00  0.00    +0.000 OA
ATOM     29  H   UNL     1       7.860   5.088  13.601  0.00  0.00    +0.000 HD
ENDBRANCH  23  28
ENDBRANCH  17  18
ENDBRANCH  16  17
ENDBRANCH   2  16
TORSDOF 7
ENDMDL
MODEL 7
REMARK VINA RESULT:      -7.8      6.288      9.147
REMARK  Name = 
REMARK  8 active torsions:
REMARK  status: ('A' for Active; 'I' for Inactive)
REMARK    1  A    between atoms: C_1  and  C_2
REMARK    2  A    between atoms: C_5  and  N_6
REMARK    3  A    between atoms: C_7  and  C_9
REMARK    4  A    between atoms: C_9  and  C_10
REMARK    5  A    between atoms: C_10  and  C_11
REMARK    6  A    between atoms: C_16  and  O_17
REMARK    7  A    between atoms: C_22  and  C_23
REMARK    8  A    between atoms: C_23  and  O_25
REMARK                            x       y       z     vdW  Elec       q    Type
REMARK                         _______ _______ _______ _____ _____    ______ ____
ROOT
ATOM      1  N   UNL     1       6.324   7.271  17.209  0.00  0.00    +0.000 N 
ATOM      2  C   UNL     1       7.522   7.598  17.849  0.00  0.00    +0.000 C 
ATOM      3  O   UNL     1       8.094   6.900  18.682  0.00  0.00    +0.000 OA
ATOM      4  H   UNL     1       5.921   7.991  16.612  0.00  0.00    +0.000 HD
ENDROOT
BRANCH   1   9
ATOM      5  C   UNL     1       2.385   3.500  17.251  0.00  0.00    +0.000 C 
ATOM      6  C   UNL     1       3.762   3.739  17.886  0.00  0.00    +0.000 C 
ATOM      7  C   UNL     1       3.698   4.928  18.837  0.00  0.00    +0.000 C 
ATOM      8  C   UNL     1       4.602   6.119  18.568  0.00  0.00    +0.000 C 
ATOM      9  C   UNL     1       5.580   6.101  17.416  0.00  0.00    +0.000 C 
ATOM     10  C   UNL     1       5.689   5.009  16.630  0.00  0.00    +0.000 C 
ATOM     11  C   UNL     1       4.860   3.761  16.811  0.00  0.00    +0.000 C 
BRANCH  10  12
ATOM     12  C   UNL     1       6.610   4.889  15.457  0.00  0.00    +0.000 C 
ATOM     13  O   UNL     1       7.821   4.812  15.552  0.00  0.00    +0.000 OA
BRANCH  12  14
ATOM     14  O   UNL     1       5.971   4.911  14.267  0.00  0.00    +0.000 OA
ATOM     15  H   UNL     1       6.301   5.630  13.696  0.00  0.00    +0.000 HD
ENDBRANCH  12  14
ENDBRANCH  10  12
ENDBRANCH   1   9
BRANCH   2  16
ATOM     16  C   UNL     1       8.134   8.910  17.396  0.00  0.00    +0.000 C 
BRANCH  16  17
ATOM     17  C   UNL     1       8.768   9.614  18.604  0.00  0.00    +0.000 C 
BRANCH  17  18
ATOM     18  C   UNL     1       9.374  10.947  18.262  0.00  0.00    +0.000 A 
ATOM     19  C   UNL     1      10.705  11.035  17.843  0.00  0.00    +0.000 A 
ATOM     20  C   UNL     1      11.252  12.269  17.490  0.00  0.00    +0.000 A 
ATOM     21  C   UNL     1      10.477  13.441  17.547  0.00  0.00    +0.000 A 
ATOM     22  C   UNL     1      11.012  14.691  17.182  0.00  0.00    +0.000 A 
ATOM     23  C   UNL     1      10.217  15.831  17.247  0.00  0.00    +0.000 A 
ATOM     24  C   UNL     1       8.897  15.762  17.667  0.00  0.00    +0.000 A 
ATOM     25  C   UNL     1       8.352  14.528  18.028  0.00  0.00    +0.000 A 
ATOM     26  C   UNL     1       9.131  13.360  17.973  0.00  0.00    +0.000 A 
ATOM     27  C   UNL     1       8.598  12.111  18.327  0.00  0.00    +0.000 A 
BRANCH  23  28
ATOM     28  O   UNL     1      10.707  17.055  16.901  0.00  0.00    +0.000 OA
ATOM     29  H   UNL     1      11.663  16.976  16.752  0.00  0.00    +0.000 HD
ENDBRANCH  23  28
ENDBRANCH  17  18
ENDBRANCH  16  17
ENDBRANCH   2  16
TORSDOF 7
ENDMDL
MODEL 8
REMARK VINA RESULT:      -7.8      0.678      1.527
REMARK  Name = 
REMARK  8 active torsions:
REMARK  status: ('A' for Active; 'I' for Inactive)
REMARK    1  A    between atoms: C_1  and  C_2
REMARK    2  A    between atoms: C_5  and  N_6
REMARK    3  A    between atoms: C_7  and  C_9
REMARK    4  A    between atoms: C_9  and  C_10
REMARK    5  A    between atoms: C_10  and  C_11
REMARK    6  A    between atoms: C_16  and  O_17
REMARK    7  A    between atoms: C_22  and  C_23
REMARK    8  A    between atoms: C_23  and  O_25
REMARK                            x       y       z     vdW  Elec       q    Type
REMARK                         _______ _______ _______ _____ _____    ______ ____
ROOT
ATOM      1  N   UNL     1       2.338   6.727  20.582  0.00  0.00    +0.000 N 
ATOM      2  C   UNL     1       1.971   5.412  20.284  0.00  0.00    +0.000 C 
ATOM      3  O   UNL     1       1.159   5.080  19.424  0.00  0.00    +0.000 OA
ATOM      4  H   UNL     1       2.953   6.852  21.383  0.00  0.00    +0.000 HD
ENDROOT
BRANCH   1   9
ATOM      5  C   UNL     1      -0.761  10.269  17.827  0.00  0.00    +0.000 C 
ATOM      6  C   UNL     1       0.655  10.187  18.414  0.00  0.00    +0.000 C 
ATOM      7  C   UNL     1       1.468   9.134  17.669  0.00  0.00    +0.000 C 
ATOM      8  C   UNL     1       2.031   7.963  18.457  0.00  0.00    +0.000 C 
ATOM      9  C   UNL     1       1.838   7.876  19.953  0.00  0.00    +0.000 C 
ATOM     10  C   UNL     1       1.189   8.857  20.617  0.00  0.00    +0.000 C 
ATOM     11  C   UNL     1       0.604  10.075  19.946  0.00  0.00    +0.000 C 
BRANCH  10  12
ATOM     12  C   UNL     1       0.929   8.864  22.090  0.00  0.00    +0.000 C 
ATOM     13  O   UNL     1      -0.175   8.732  22.583  0.00  0.00    +0.000 OA
BRANCH  12  14
ATOM     14  O   UNL     1       2.041   9.069  22.831  0.00  0.00    +0.000 OA
ATOM     15  H   UNL     1       2.348   8.244  23.252  0.00  0.00    +0.000 HD
ENDBRANCH  12  14
ENDBRANCH  10  12
ENDBRANCH   1   9
BRANCH   2  16
ATOM     16  C   UNL     1       2.708   4.360  21.090  0.00  0.00    +0.000 C 
BRANCH  16  17
ATOM     17  C   UNL     1       3.300   3.315  20.135  0.00  0.00    +0.000 C 
BRANCH  17  18
ATOM     18  C   UNL     1       4.277   3.898  19.150  0.00  0.00    +0.000 A 
ATOM     19  C   UNL     1       5.305   4.739  19.583  0.00  0.00    +0.000 A 
ATOM     20  C   UNL     1       6.232   5.246  18.671  0.00  0.00    +0.000 A 
ATOM     21  C   UNL     1       6.150   4.918  17.307  0.00  0.00    +0.000 A 
ATOM     22  C   UNL     1       7.084   5.412  16.377  0.00  0.00    +0.000 A 
ATOM     23  C   UNL     1       6.977   5.067  15.034  0.00  0.00    +0.000 A 
ATOM     24  C   UNL     1       5.958   4.237  14.587  0.00  0.00    +0.000 A 
ATOM     25  C   UNL     1       5.027   3.736  15.499  0.00  0.00    +0.000 A 
ATOM     26  C   UNL     1       5.110   4.070  16.861  0.00  0.00    +0.000 A 
ATOM     27  C   UNL     1       4.186   3.571  17.791  0.00  0.00    +0.000 A 
BRANCH  23  28
ATOM     28  O   UNL     1       7.867   5.529  14.111  0.00  0.00    +0.000 OA
ATOM     29  H   UNL     1       8.718   5.684  14.552  0.00  0.00    +0.000 HD
ENDBRANCH  23  28
ENDBRANCH  17  18
ENDBRANCH  16  17
ENDBRANCH   2  16
TORSDOF 7
ENDMDL
MODEL 9
REMARK VINA RESULT:      -7.7      5.957      7.699
REMARK  Name = 
REMARK  8 active torsions:
REMARK  status: ('A' for Active; 'I' for Inactive)
REMARK    1  A    between atoms: C_1  and  C_2
REMARK    2  A    between atoms: C_5  and  N_6
REMARK    3  A    between atoms: C_7  and  C_9
REMARK    4  A    between atoms: C_9  and  C_10
REMARK    5  A    between atoms: C_10  and  C_11
REMARK    6  A    between atoms: C_16  and  O_17
REMARK    7  A    between atoms: C_22  and  C_23
REMARK    8  A    between atoms: C_23  and  O_25
REMARK                            x       y       z     vdW  Elec       q    Type
REMARK                         _______ _______ _______ _____ _____    ______ ____
ROOT
ATOM      1  N   UNL     1       9.637   9.908  19.431  0.00  0.00    +0.000 N 
ATOM      2  C   UNL     1       8.641   9.643  18.488  0.00  0.00    +0.000 C 
ATOM      3  O   UNL     1       8.151  10.471  17.724  0.00  0.00    +0.000 OA
ATOM      4  H   UNL     1       9.878   9.143  20.059  0.00  0.00    +0.000 HD
ENDROOT
BRANCH   1   9
ATOM      5  C   UNL     1      10.969  15.193  19.263  0.00  0.00    +0.000 C 
ATOM      6  C   UNL     1      11.487  13.892  19.890  0.00  0.00    +0.000 C 
ATOM      7  C   UNL     1      11.967  12.942  18.798  0.00  0.00    +0.000 C 
ATOM      8  C   UNL     1      11.304  11.580  18.681  0.00  0.00    +0.000 C 
ATOM      9  C   UNL     1      10.234  11.156  19.661  0.00  0.00    +0.000 C 
ATOM     10  C   UNL     1       9.876  11.970  20.676  0.00  0.00    +0.000 C 
ATOM     11  C   UNL     1      10.476  13.336  20.904  0.00  0.00    +0.000 C 
BRANCH  10  12
ATOM     12  C   UNL     1       8.821  11.658  21.690  0.00  0.00    +0.000 C 
ATOM     13  O   UNL     1       8.011  12.469  22.096  0.00  0.00    +0.000 OA
BRANCH  12  14
ATOM     14  O   UNL     1       8.873  10.386  22.145  0.00  0.00    +0.000 OA
ATOM     15  H   UNL     1       8.577   9.751  21.466  0.00  0.00    +0.000 HD
ENDBRANCH  12  14
ENDBRANCH  10  12
ENDBRANCH   1   9
BRANCH   2  16
ATOM     16  C   UNL     1       8.211   8.191  18.424  0.00  0.00    +0.000 C 
BRANCH  16  17
ATOM     17  C   UNL     1       7.431   7.952  17.124  0.00  0.00    +0.000 C 
BRANCH  17  18
ATOM     18  C   UNL     1       6.540   6.742  17.180  0.00  0.00    +0.000 A 
ATOM     19  C   UNL     1       7.074   5.460  17.023  0.00  0.00    +0.000 A 
ATOM     20  C   UNL     1       6.250   4.337  17.115  0.00  0.00    +0.000 A 
ATOM     21  C   UNL     1       4.874   4.476  17.368  0.00  0.00    +0.000 A 
ATOM     22  C   UNL     1       4.032   3.352  17.475  0.00  0.00    +0.000 A 
ATOM     23  C   UNL     1       2.675   3.524  17.729  0.00  0.00    +0.000 A 
ATOM     24  C   UNL     1       2.129   4.790  17.881  0.00  0.00    +0.000 A 
ATOM     25  C   UNL     1       2.953   5.913  17.782  0.00  0.00    +0.000 A 
ATOM     26  C   UNL     1       4.326   5.770  17.525  0.00  0.00    +0.000 A 
ATOM     27  C   UNL     1       5.169   6.887  17.428  0.00  0.00    +0.000 A 
BRANCH  23  28
ATOM     28  O   UNL     1       1.836   2.455  17.838  0.00  0.00    +0.000 OA
ATOM     29  H   UNL     1       1.043   2.733  18.324  0.00  0.00    +0.000 HD
ENDBRANCH  23  28
ENDBRANCH  17  18
ENDBRANCH  16  17
ENDBRANCH   2  16
TORSDOF 7
ENDMDL
