MODEL 1
REMARK VINA RESULT:      -8.9      0.000      0.000
REMARK  Name = 
REMARK  7 active torsions:
REMARK  status: ('A' for Active; 'I' for Inactive)
REMARK    1  A    between atoms: C_1  and  C_2
REMARK    2  A    between atoms: N_4  and  C_5
REMARK    3  A    between atoms: C_5  and  C_6
REMARK    4  A    between atoms: C_12  and  C_13
REMARK    5  A    between atoms: C_14  and  N_15
REMARK    6  A    between atoms: C_16  and  C_18
REMARK    7  A    between atoms: C_20  and  C_21
REMARK                            x       y       z     vdW  Elec       q    Type
REMARK                         _______ _______ _______ _____ _____    ______ ____
ROOT
ATOM      1  N   UNL     1      -0.217   9.960  19.045  0.00  0.00    +0.000 N 
ATOM      2  C   UNL     1       1.122  10.203  18.802  0.00  0.00    +0.000 C 
ATOM      3  O   UNL     1       1.674  11.298  18.768  0.00  0.00    +0.000 OA
ATOM      4  H   UNL     1      -0.417   9.005  19.320  0.00  0.00    +0.000 HD
ENDROOT
BRANCH   1  11
ATOM      5  C   UNL     1      -2.608  11.309  17.303  0.00  0.00    +0.000 C 
ATOM      6  C   UNL     1      -2.147  11.570  18.690  0.00  0.00    +0.000 A 
ATOM      7  N   UNL     1      -2.796  12.457  19.456  0.00  0.00    +0.000 NA
ATOM      8  N   UNL     1      -2.193  12.365  20.664  0.00  0.00    +0.000 N 
ATOM      9  C   UNL     1      -1.203  11.414  20.701  0.00  0.00    +0.000 A 
ATOM     10  C   UNL     1      -0.340  11.130  21.880  0.00  0.00    +0.000 C 
ATOM     11  C   UNL     1      -1.127  10.918  19.421  0.00  0.00    +0.000 A 
BRANCH   8  12
ATOM     12  C   UNL     1      -2.515  13.361  21.687  0.00  0.00    +0.000 C 
BRANCH  12  13
ATOM     13  C   UNL     1      -3.684  12.986  22.566  0.00  0.00    +0.000 A 
ATOM     14  C   UNL     1      -3.478  12.648  23.914  0.00  0.00    +0.000 A 
ATOM     15  C   UNL     1      -4.562  12.426  24.764  0.00  0.00    +0.000 A 
ATOM     16  C   UNL     1      -5.865  12.541  24.282  0.00  0.00    +0.000 A 
ATOM     17  C   UNL     1      -6.084  12.853  22.942  0.00  0.00    +0.000 A 
ATOM     18  C   UNL     1      -5.001  13.072  22.087  0.00  0.00    +0.000 A 
ENDBRANCH  12  13
ENDBRANCH   8  12
ENDBRANCH   1  11
BRANCH   2  19
ATOM     19  C   UNL     1       1.858   8.944  18.712  0.00  0.00    +0.000 A 
ATOM     20  C   UNL     1       2.733   8.492  17.696  0.00  0.00    +0.000 A 
ATOM     21  C   UNL     1       3.203   7.286  18.159  0.00  0.00    +0.000 A 
ATOM     22  O   UNL     1       2.620   7.017  19.358  0.00  0.00    +0.000 OA
ATOM     23  N   UNL     1       1.795   8.054  19.719  0.00  0.00    +0.000 NA
BRANCH  21  24
ATOM     24  C   UNL     1       4.067   6.239  17.644  0.00  0.00    +0.000 A 
ATOM     25  C   UNL     1       3.566   4.926  17.434  0.00  0.00    +0.000 A 
ATOM     26  C   UNL     1       4.304   3.970  16.734  0.00  0.00    +0.000 A 
ATOM     27  C   UNL     1       5.516   4.372  16.226  0.00  0.00    +0.000 A 
ATOM     28  C   UNL     1       6.039   5.619  16.489  0.00  0.00    +0.000 A 
ATOM     29  C   UNL     1       5.364   6.560  17.229  0.00  0.00    +0.000 A 
ATOM     30  O   UNL     1       7.205   5.836  15.817  0.00  0.00    +0.000 OA
ATOM     31  C   UNL     1       7.109   4.765  14.860  0.00  0.00    +0.000 C 
ATOM     32  O   UNL     1       6.283   3.681  15.337  0.00  0.00    +0.000 OA
ENDBRANCH  21  24
ENDBRANCH   2  19
TORSDOF 5
ENDMDL
MODEL 2
REMARK VINA RESULT:      -8.9      3.211     11.473
REMARK  Name = 
REMARK  7 active torsions:
REMARK  status: ('A' for Active; 'I' for Inactive)
REMARK    1  A    between atoms: C_1  and  C_2
REMARK    2  A    between atoms: N_4  and  C_5
REMARK    3  A    between atoms: C_5  and  C_6
REMARK    4  A    between atoms: C_12  and  C_13
REMARK    5  A    between atoms: C_14  and  N_15
REMARK    6  A    between atoms: C_16  and  C_18
REMARK    7  A    between atoms: C_20  and  C_21
REMARK                            x       y       z     vdW  Elec       q    Type
REMARK                         _______ _______ _______ _____ _____    ______ ____
ROOT
ATOM      1  N   UNL     1       2.696   6.214  18.114  0.00  0.00    +0.000 N 
ATOM      2  C   UNL     1       2.554   6.422  19.472  0.00  0.00    +0.000 C 
ATOM      3  O   UNL     1       3.022   5.733  20.373  0.00  0.00    +0.000 OA
ATOM      4  H   UNL     1       2.495   7.032  17.550  0.00  0.00    +0.000 HD
ENDROOT
BRANCH   1  11
ATOM      5  C   UNL     1       2.216   3.007  17.870  0.00  0.00    +0.000 C 
ATOM      6  C   UNL     1       3.369   3.853  17.468  0.00  0.00    +0.000 A 
ATOM      7  N   UNL     1       4.416   3.302  16.840  0.00  0.00    +0.000 NA
ATOM      8  N   UNL     1       5.212   4.351  16.527  0.00  0.00    +0.000 N 
ATOM      9  C   UNL     1       4.681   5.561  16.902  0.00  0.00    +0.000 A 
ATOM     10  C   UNL     1       5.355   6.876  16.732  0.00  0.00    +0.000 C 
ATOM     11  C   UNL     1       3.508   5.257  17.553  0.00  0.00    +0.000 A 
BRANCH   8  12
ATOM     12  C   UNL     1       6.559   4.085  16.022  0.00  0.00    +0.000 C 
BRANCH  12  13
ATOM     13  C   UNL     1       6.707   4.275  14.531  0.00  0.00    +0.000 A 
ATOM     14  C   UNL     1       7.646   5.188  14.022  0.00  0.00    +0.000 A 
ATOM     15  C   UNL     1       7.878   5.276  12.650  0.00  0.00    +0.000 A 
ATOM     16  C   UNL     1       7.180   4.454  11.767  0.00  0.00    +0.000 A 
ATOM     17  C   UNL     1       6.229   3.560  12.255  0.00  0.00    +0.000 A 
ATOM     18  C   UNL     1       5.992   3.472  13.628  0.00  0.00    +0.000 A 
ENDBRANCH  12  13
ENDBRANCH   8  12
ENDBRANCH   1  11
BRANCH   2  19
ATOM     19  C   UNL     1       1.859   7.683  19.723  0.00  0.00    +0.000 A 
ATOM     20  C   UNL     1       1.181   8.113  20.888  0.00  0.00    +0.000 A 
ATOM     21  C   UNL     1       0.788   9.399  20.602  0.00  0.00    +0.000 A 
ATOM     22  O   UNL     1       1.175   9.705  19.335  0.00  0.00    +0.000 OA
ATOM     23  N   UNL     1       1.859   8.649  18.786  0.00  0.00    +0.000 NA
BRANCH  21  24
ATOM     24  C   UNL     1       0.011  10.423  21.276  0.00  0.00    +0.000 A 
ATOM     25  C   UNL     1      -0.699  10.124  22.469  0.00  0.00    +0.000 A 
ATOM     26  C   UNL     1      -1.261  11.134  23.253  0.00  0.00    +0.000 A 
ATOM     27  C   UNL     1      -1.061  12.427  22.835  0.00  0.00    +0.000 A 
ATOM     28  C   UNL     1      -0.438  12.720  21.640  0.00  0.00    +0.000 A 
ATOM     29  C   UNL     1       0.069  11.744  20.817  0.00  0.00    +0.000 A 
ATOM     30  O   UNL     1      -0.269  14.061  21.467  0.00  0.00    +0.000 OA
ATOM     31  C   UNL     1      -0.502  14.488  22.822  0.00  0.00    +0.000 C 
ATOM     32  O   UNL     1      -1.325  13.554  23.553  0.00  0.00    +0.000 OA
ENDBRANCH  21  24
ENDBRANCH   2  19
TORSDOF 5
ENDMDL
MODEL 3
REMARK VINA RESULT:      -8.8      7.286     10.098
REMARK  Name = 
REMARK  7 active torsions:
REMARK  status: ('A' for Active; 'I' for Inactive)
REMARK    1  A    between atoms: C_1  and  C_2
REMARK    2  A    between atoms: N_4  and  C_5
REMARK    3  A    between atoms: C_5  and  C_6
REMARK    4  A    between atoms: C_12  and  C_13
REMARK    5  A    between atoms: C_14  and  N_15
REMARK    6  A    between atoms: C_16  and  C_18
REMARK    7  A    between atoms: C_20  and  C_21
REMARK                            x       y       z     vdW  Elec       q    Type
REMARK                         _______ _______ _______ _____ _____    ______ ____
ROOT
ATOM      1  N   UNL     1       6.194   6.886  17.529  0.00  0.00    +0.000 N 
ATOM      2  C   UNL     1       7.383   7.016  18.221  0.00  0.00    +0.000 C 
ATOM      3  O   UNL     1       8.030   6.114  18.744  0.00  0.00    +0.000 OA
ATOM      4  H   UNL     1       5.976   7.678  16.935  0.00  0.00    +0.000 HD
ENDROOT
BRANCH   1  11
ATOM      5  C   UNL     1       7.107   4.705  15.297  0.00  0.00    +0.000 C 
ATOM      6  C   UNL     1       5.937   4.732  16.211  0.00  0.00    +0.000 A 
ATOM      7  N   UNL     1       5.081   3.702  16.234  0.00  0.00    +0.000 NA
ATOM      8  N   UNL     1       4.220   3.999  17.235  0.00  0.00    +0.000 N 
ATOM      9  C   UNL     1       4.528   5.173  17.878  0.00  0.00    +0.000 A 
ATOM     10  C   UNL     1       3.729   5.774  18.980  0.00  0.00    +0.000 C 
ATOM     11  C   UNL     1       5.610   5.686  17.201  0.00  0.00    +0.000 A 
BRANCH   8  12
ATOM     12  C   UNL     1       3.016   3.183  17.392  0.00  0.00    +0.000 C 
BRANCH  12  13
ATOM     13  C   UNL     1       2.557   3.032  18.823  0.00  0.00    +0.000 A 
ATOM     14  C   UNL     1       3.412   2.469  19.786  0.00  0.00    +0.000 A 
ATOM     15  C   UNL     1       3.046   2.444  21.132  0.00  0.00    +0.000 A 
ATOM     16  C   UNL     1       1.825   2.981  21.535  0.00  0.00    +0.000 A 
ATOM     17  C   UNL     1       0.956   3.521  20.589  0.00  0.00    +0.000 A 
ATOM     18  C   UNL     1       1.319   3.545  19.240  0.00  0.00    +0.000 A 
ENDBRANCH  12  13
ENDBRANCH   8  12
ENDBRANCH   1  11
BRANCH   2  19
ATOM     19  C   UNL     1       7.865   8.393  18.148  0.00  0.00    +0.000 A 
ATOM     20  C   UNL     1       8.918   9.010  18.865  0.00  0.00    +0.000 A 
ATOM     21  C   UNL     1       8.987  10.282  18.347  0.00  0.00    +0.000 A 
ATOM     22  O   UNL     1       8.015  10.427  17.407  0.00  0.00    +0.000 OA
ATOM     23  N   UNL     1       7.324   9.250  17.263  0.00  0.00    +0.000 NA
BRANCH  21  24
ATOM     24  C   UNL     1       9.761  11.478  18.626  0.00  0.00    +0.000 A 
ATOM     25  C   UNL     1      10.945  11.408  19.408  0.00  0.00    +0.000 A 
ATOM     26  C   UNL     1      11.821  12.490  19.499  0.00  0.00    +0.000 A 
ATOM     27  C   UNL     1      11.504  13.608  18.767  0.00  0.00    +0.000 A 
ATOM     28  C   UNL     1      10.321  13.710  18.067  0.00  0.00    +0.000 A 
ATOM     29  C   UNL     1       9.408  12.684  18.010  0.00  0.00    +0.000 A 
ATOM     30  O   UNL     1      10.252  14.865  17.345  0.00  0.00    +0.000 OA
ATOM     31  C   UNL     1      11.642  15.235  17.390  0.00  0.00    +0.000 C 
ATOM     32  O   UNL     1      12.317  14.677  18.538  0.00  0.00    +0.000 OA
ENDBRANCH  21  24
ENDBRANCH   2  19
TORSDOF 5
ENDMDL
MODEL 4
REMARK VINA RESULT:      -8.8      1.153      1.176
REMARK  Name = 
REMARK  7 active torsions:
REMARK  status: ('A' for Active; 'I' for Inactive)
REMARK    1  A    between atoms: C_1  and  C_2
REMARK    2  A    between atoms: N_4  and  C_5
REMARK    3  A    between atoms: C_5  and  C_6
REMARK    4  A    between atoms: C_12  and  C_13
REMARK    5  A    between atoms: C_14  and  N_15
REMARK    6  A    between atoms: C_16  and  C_18
REMARK    7  A    between atoms: C_20  and  C_21
REMARK                            x       y       z     vdW  Elec       q    Type
REMARK                         _______ _______ _______ _____ _____    ______ ____
ROOT
ATOM      1  N   UNL     1      -0.018  10.460  18.677  0.00  0.00    +0.000 N 
ATOM      2  C   UNL     1       0.597   9.501  19.458  0.00  0.00    +0.000 C 
ATOM      3  O   UNL     1       0.278   9.163  20.594  0.00  0.00    +0.000 OA
ATOM      4  H   UNL     1       0.199  10.386  17.689  0.00  0.00    +0.000 HD
ENDROOT
BRANCH   1  11
ATOM      5  C   UNL     1      -2.983  10.126  17.386  0.00  0.00    +0.000 C 
ATOM      6  C   UNL     1      -2.481  11.032  18.449  0.00  0.00    +0.000 A 
ATOM      7  N   UNL     1      -3.327  11.852  19.085  0.00  0.00    +0.000 NA
ATOM      8  N   UNL     1      -2.574  12.438  20.044  0.00  0.00    +0.000 N 
ATOM      9  C   UNL     1      -1.278  11.983  20.064  0.00  0.00    +0.000 A 
ATOM     10  C   UNL     1      -0.214  12.484  20.976  0.00  0.00    +0.000 C 
ATOM     11  C   UNL     1      -1.186  11.104  19.010  0.00  0.00    +0.000 A 
BRANCH   8  12
ATOM     12  C   UNL     1      -3.137  13.564  20.791  0.00  0.00    +0.000 C 
BRANCH  12  13
ATOM     13  C   UNL     1      -3.943  13.158  22.002  0.00  0.00    +0.000 A 
ATOM     14  C   UNL     1      -3.295  12.728  23.173  0.00  0.00    +0.000 A 
ATOM     15  C   UNL     1      -4.023  12.475  24.335  0.00  0.00    +0.000 A 
ATOM     16  C   UNL     1      -5.406  12.650  24.347  0.00  0.00    +0.000 A 
ATOM     17  C   UNL     1      -6.065  13.054  23.187  0.00  0.00    +0.000 A 
ATOM     18  C   UNL     1      -5.339  13.305  22.021  0.00  0.00    +0.000 A 
ENDBRANCH  12  13
ENDBRANCH   8  12
ENDBRANCH   1  11
BRANCH   2  19
ATOM     19  C   UNL     1       1.639   8.817  18.695  0.00  0.00    +0.000 A 
ATOM     20  C   UNL     1       2.194   7.530  18.895  0.00  0.00    +0.000 A 
ATOM     21  C   UNL     1       3.070   7.367  17.848  0.00  0.00    +0.000 A 
ATOM     22  O   UNL     1       3.065   8.497  17.090  0.00  0.00    +0.000 OA
ATOM     23  N   UNL     1       2.163   9.397  17.600  0.00  0.00    +0.000 NA
BRANCH  21  24
ATOM     24  C   UNL     1       4.022   6.351  17.436  0.00  0.00    +0.000 A 
ATOM     25  C   UNL     1       3.893   5.012  17.891  0.00  0.00    +0.000 A 
ATOM     26  C   UNL     1       4.651   3.980  17.336  0.00  0.00    +0.000 A 
ATOM     27  C   UNL     1       5.496   4.315  16.307  0.00  0.00    +0.000 A 
ATOM     28  C   UNL     1       5.681   5.623  15.912  0.00  0.00    +0.000 A 
ATOM     29  C   UNL     1       4.996   6.668  16.483  0.00  0.00    +0.000 A 
ATOM     30  O   UNL     1       6.493   5.717  14.821  0.00  0.00    +0.000 OA
ATOM     31  C   UNL     1       6.452   4.342  14.397  0.00  0.00    +0.000 C 
ATOM     32  O   UNL     1       6.151   3.445  15.488  0.00  0.00    +0.000 OA
ENDBRANCH  21  24
ENDBRANCH   2  19
TORSDOF 5
ENDMDL
MODEL 5
REMARK VINA RESULT:      -8.7      1.414      2.301
REMARK  Name = 
REMARK  7 active torsions:
REMARK  status: ('A' for Active; 'I' for Inactive)
REMARK    1  A    between atoms: C_1  and  C_2
REMARK    2  A    between atoms: N_4  and  C_5
REMARK    3  A    between atoms: C_5  and  C_6
REMARK    4  A    between atoms: C_12  and  C_13
REMARK    5  A    between atoms: C_14  and  N_15
REMARK    6  A    between atoms: C_16  and  C_18
REMARK    7  A    between atoms: C_20  and  C_21
REMARK                            x       y       z     vdW  Elec       q    Type
REMARK                         _______ _______ _______ _____ _____    ______ ____
ROOT
ATOM      1  N   UNL     1      -0.590  10.096  19.212  0.00  0.00    +0.000 N 
ATOM      2  C   UNL     1       0.699  10.369  18.796  0.00  0.00    +0.000 C 
ATOM      3  O   UNL     1       1.183  11.477  18.586  0.00  0.00    +0.000 OA
ATOM      4  H   UNL     1      -0.706   9.169  19.606  0.00  0.00    +0.000 HD
ENDROOT
BRANCH   1  11
ATOM      5  C   UNL     1      -0.606  11.999  21.848  0.00  0.00    +0.000 C 
ATOM      6  C   UNL     1      -1.585  11.862  20.740  0.00  0.00    +0.000 A 
ATOM      7  N   UNL     1      -2.666  12.651  20.700  0.00  0.00    +0.000 NA
ATOM      8  N   UNL     1      -3.267  12.342  19.528  0.00  0.00    +0.000 N 
ATOM      9  C   UNL     1      -2.576  11.406  18.799  0.00  0.00    +0.000 A 
ATOM     10  C   UNL     1      -3.025  10.840  17.498  0.00  0.00    +0.000 C 
ATOM     11  C   UNL     1      -1.506  11.049  19.587  0.00  0.00    +0.000 A 
BRANCH   8  12
ATOM     12  C   UNL     1      -4.607  12.869  19.265  0.00  0.00    +0.000 C 
BRANCH  12  13
ATOM     13  C   UNL     1      -5.704  12.178  20.040  0.00  0.00    +0.000 A 
ATOM     14  C   UNL     1      -6.175  12.728  21.244  0.00  0.00    +0.000 A 
ATOM     15  C   UNL     1      -7.273  12.168  21.898  0.00  0.00    +0.000 A 
ATOM     16  C   UNL     1      -7.915  11.055  21.360  0.00  0.00    +0.000 A 
ATOM     17  C   UNL     1      -7.445  10.484  20.179  0.00  0.00    +0.000 A 
ATOM     18  C   UNL     1      -6.344  11.041  19.523  0.00  0.00    +0.000 A 
ENDBRANCH  12  13
ENDBRANCH   8  12
ENDBRANCH   1  11
BRANCH   2  19
ATOM     19  C   UNL     1       1.491   9.141  18.755  0.00  0.00    +0.000 A 
ATOM     20  C   UNL     1       2.274   8.619  17.699  0.00  0.00    +0.000 A 
ATOM     21  C   UNL     1       2.858   7.493  18.229  0.00  0.00    +0.000 A 
ATOM     22  O   UNL     1       2.423   7.332  19.508  0.00  0.00    +0.000 OA
ATOM     23  N   UNL     1       1.586   8.365  19.850  0.00  0.00    +0.000 NA
BRANCH  21  24
ATOM     24  C   UNL     1       3.718   6.434  17.731  0.00  0.00    +0.000 A 
ATOM     25  C   UNL     1       3.283   5.082  17.745  0.00  0.00    +0.000 A 
ATOM     26  C   UNL     1       3.989   4.084  17.071  0.00  0.00    +0.000 A 
ATOM     27  C   UNL     1       5.099   4.480  16.364  0.00  0.00    +0.000 A 
ATOM     28  C   UNL     1       5.568   5.775  16.408  0.00  0.00    +0.000 A 
ATOM     29  C   UNL     1       4.929   6.766  17.114  0.00  0.00    +0.000 A 
ATOM     30  O   UNL     1       6.624   5.964  15.567  0.00  0.00    +0.000 OA
ATOM     31  C   UNL     1       6.481   4.779  14.763  0.00  0.00    +0.000 C 
ATOM     32  O   UNL     1       5.794   3.723  15.469  0.00  0.00    +0.000 OA
ENDBRANCH  21  24
ENDBRANCH   2  19
TORSDOF 5
ENDMDL
MODEL 6
REMARK VINA RESULT:      -8.7      1.446      2.440
REMARK  Name = 
REMARK  7 active torsions:
REMARK  status: ('A' for Active; 'I' for Inactive)
REMARK    1  A    between atoms: C_1  and  C_2
REMARK    2  A    between atoms: N_4  and  C_5
REMARK    3  A    between atoms: C_5  and  C_6
REMARK    4  A    between atoms: C_12  and  C_13
REMARK    5  A    between atoms: C_14  and  N_15
REMARK    6  A    between atoms: C_16  and  C_18
REMARK    7  A    between atoms: C_20  and  C_21
REMARK                            x       y       z     vdW  Elec       q    Type
REMARK                         _______ _______ _______ _____ _____    ______ ____
ROOT
ATOM      1  N   UNL     1      -0.253   9.897  19.559  0.00  0.00    +0.000 N 
ATOM      2  C   UNL     1       1.016  10.147  19.072  0.00  0.00    +0.000 C 
ATOM      3  O   UNL     1       1.523  11.247  18.878  0.00  0.00    +0.000 OA
ATOM      4  H   UNL     1      -0.376   8.957  19.920  0.00  0.00    +0.000 HD
ENDROOT
BRANCH   1  11
ATOM      5  C   UNL     1      -0.570  11.052  22.581  0.00  0.00    +0.000 C 
ATOM      6  C   UNL     1      -1.321  11.360  21.338  0.00  0.00    +0.000 A 
ATOM      7  N   UNL     1      -2.276  12.299  21.346  0.00  0.00    +0.000 NA
ATOM      8  N   UNL     1      -2.665  12.397  20.054  0.00  0.00    +0.000 N 
ATOM      9  C   UNL     1      -1.956  11.574  19.214  0.00  0.00    +0.000 A 
ATOM     10  C   UNL     1      -2.200  11.434  17.753  0.00  0.00    +0.000 C 
ATOM     11  C   UNL     1      -1.110  10.861  20.032  0.00  0.00    +0.000 A 
BRANCH   8  12
ATOM     12  C   UNL     1      -3.857  13.184  19.737  0.00  0.00    +0.000 C 
BRANCH  12  13
ATOM     13  C   UNL     1      -5.155  12.426  19.891  0.00  0.00    +0.000 A 
ATOM     14  C   UNL     1      -5.582  11.542  18.885  0.00  0.00    +0.000 A 
ATOM     15  C   UNL     1      -6.710  10.744  19.076  0.00  0.00    +0.000 A 
ATOM     16  C   UNL     1      -7.425  10.814  20.270  0.00  0.00    +0.000 A 
ATOM     17  C   UNL     1      -7.026  11.703  21.267  0.00  0.00    +0.000 A 
ATOM     18  C   UNL     1      -5.899  12.506  21.078  0.00  0.00    +0.000 A 
ENDBRANCH  12  13
ENDBRANCH   8  12
ENDBRANCH   1  11
BRANCH   2  19
ATOM     19  C   UNL     1       1.760   8.897  18.929  0.00  0.00    +0.000 A 
ATOM     20  C   UNL     1       2.555   8.451  17.846  0.00  0.00    +0.000 A 
ATOM     21  C   UNL     1       3.077   7.254  18.275  0.00  0.00    +0.000 A 
ATOM     22  O   UNL     1       2.598   6.985  19.519  0.00  0.00    +0.000 OA
ATOM     23  N   UNL     1       1.791   8.013  19.941  0.00  0.00    +0.000 NA
BRANCH  21  24
ATOM     24  C   UNL     1       3.911   6.215  17.696  0.00  0.00    +0.000 A 
ATOM     25  C   UNL     1       3.455   4.872  17.636  0.00  0.00    +0.000 A 
ATOM     26  C   UNL     1       4.131   3.907  16.888  0.00  0.00    +0.000 A 
ATOM     27  C   UNL     1       5.233   4.328  16.184  0.00  0.00    +0.000 A 
ATOM     28  C   UNL     1       5.724   5.612  16.297  0.00  0.00    +0.000 A 
ATOM     29  C   UNL     1       5.115   6.566  17.076  0.00  0.00    +0.000 A 
ATOM     30  O   UNL     1       6.766   5.837  15.448  0.00  0.00    +0.000 OA
ATOM     31  C   UNL     1       6.588   4.705  14.576  0.00  0.00    +0.000 C 
ATOM     32  O   UNL     1       5.898   3.618  15.230  0.00  0.00    +0.000 OA
ENDBRANCH  21  24
ENDBRANCH   2  19
TORSDOF 5
ENDMDL
MODEL 7
REMARK VINA RESULT:      -8.6      7.244     10.146
REMARK  Name = 
REMARK  7 active torsions:
REMARK  status: ('A' for Active; 'I' for Inactive)
REMARK    1  A    between atoms: C_1  and  C_2
REMARK    2  A    between atoms: N_4  and  C_5
REMARK    3  A    between atoms: C_5  and  C_6
REMARK    4  A    between atoms: C_12  and  C_13
REMARK    5  A    between atoms: C_14  and  N_15
REMARK    6  A    between atoms: C_16  and  C_18
REMARK    7  A    between atoms: C_20  and  C_21
REMARK                            x       y       z     vdW  Elec       q    Type
REMARK                         _______ _______ _______ _____ _____    ______ ____
ROOT
ATOM      1  N   UNL     1       6.191   6.977  17.508  0.00  0.00    +0.000 N 
ATOM      2  C   UNL     1       7.385   7.026  18.202  0.00  0.00    +0.000 C 
ATOM      3  O   UNL     1       7.979   6.080  18.708  0.00  0.00    +0.000 OA
ATOM      4  H   UNL     1       6.019   7.792  16.929  0.00  0.00    +0.000 HD
ENDROOT
BRANCH   1  11
ATOM      5  C   UNL     1       7.044   4.725  15.325  0.00  0.00    +0.000 C 
ATOM      6  C   UNL     1       5.841   4.838  16.187  0.00  0.00    +0.000 A 
ATOM      7  N   UNL     1       4.915   3.870  16.177  0.00  0.00    +0.000 NA
ATOM      8  N   UNL     1       4.035   4.233  17.139  0.00  0.00    +0.000 N 
ATOM      9  C   UNL     1       4.396   5.386  17.791  0.00  0.00    +0.000 A 
ATOM     10  C   UNL     1       3.595   6.048  18.856  0.00  0.00    +0.000 C 
ATOM     11  C   UNL     1       5.539   5.818  17.160  0.00  0.00    +0.000 A 
BRANCH   8  12
ATOM     12  C   UNL     1       2.771   3.503  17.247  0.00  0.00    +0.000 C 
BRANCH  12  13
ATOM     13  C   UNL     1       2.385   3.147  18.662  0.00  0.00    +0.000 A 
ATOM     14  C   UNL     1       3.328   2.572  19.531  0.00  0.00    +0.000 A 
ATOM     15  C   UNL     1       3.018   2.359  20.874  0.00  0.00    +0.000 A 
ATOM     16  C   UNL     1       1.766   2.717  21.369  0.00  0.00    +0.000 A 
ATOM     17  C   UNL     1       0.812   3.267  20.515  0.00  0.00    +0.000 A 
ATOM     18  C   UNL     1       1.119   3.479  19.169  0.00  0.00    +0.000 A 
ENDBRANCH  12  13
ENDBRANCH   8  12
ENDBRANCH   1  11
BRANCH   2  19
ATOM     19  C   UNL     1       7.945   8.375  18.153  0.00  0.00    +0.000 A 
ATOM     20  C   UNL     1       9.016   8.925  18.898  0.00  0.00    +0.000 A 
ATOM     21  C   UNL     1       9.167  10.196  18.396  0.00  0.00    +0.000 A 
ATOM     22  O   UNL     1       8.225  10.405  17.436  0.00  0.00    +0.000 OA
ATOM     23  N   UNL     1       7.472   9.269  17.266  0.00  0.00    +0.000 NA
BRANCH  21  24
ATOM     24  C   UNL     1      10.001  11.344  18.703  0.00  0.00    +0.000 A 
ATOM     25  C   UNL     1      10.725  12.007  17.677  0.00  0.00    +0.000 A 
ATOM     26  C   UNL     1      11.346  13.237  17.903  0.00  0.00    +0.000 A 
ATOM     27  C   UNL     1      11.190  13.789  19.152  0.00  0.00    +0.000 A 
ATOM     28  C   UNL     1      10.553  13.116  20.173  0.00  0.00    +0.000 A 
ATOM     29  C   UNL     1       9.987  11.877  19.997  0.00  0.00    +0.000 A 
ATOM     30  O   UNL     1      10.437  13.882  21.294  0.00  0.00    +0.000 OA
ATOM     31  C   UNL     1      10.718  15.169  20.712  0.00  0.00    +0.000 C 
ATOM     32  O   UNL     1      11.517  15.061  19.514  0.00  0.00    +0.000 OA
ENDBRANCH  21  24
ENDBRANCH   2  19
TORSDOF 5
ENDMDL
MODEL 8
REMARK VINA RESULT:      -8.6      1.457      1.673
REMARK  Name = 
REMARK  7 active torsions:
REMARK  status: ('A' for Active; 'I' for Inactive)
REMARK    1  A    between atoms: C_1  and  C_2
REMARK    2  A    between atoms: N_4  and  C_5
REMARK    3  A    between atoms: C_5  and  C_6
REMARK    4  A    between atoms: C_12  and  C_13
REMARK    5  A    between atoms: C_14  and  N_15
REMARK    6  A    between atoms: C_16  and  C_18
REMARK    7  A    between atoms: C_20  and  C_21
REMARK                            x       y       z     vdW  Elec       q    Type
REMARK                         _______ _______ _______ _____ _____    ______ ____
ROOT
ATOM      1  N   UNL     1      -0.062  10.618  18.823  0.00  0.00    +0.000 N 
ATOM      2  C   UNL     1       0.483   9.553  19.514  0.00  0.00    +0.000 C 
ATOM      3  O   UNL     1       0.086   9.089  20.578  0.00  0.00    +0.000 OA
ATOM      4  H   UNL     1       0.215  10.660  17.848  0.00  0.00    +0.000 HD
ENDROOT
BRANCH   1  11
ATOM      5  C   UNL     1      -3.007  10.336  17.477  0.00  0.00    +0.000 C 
ATOM      6  C   UNL     1      -2.520  11.201  18.581  0.00  0.00    +0.000 A 
ATOM      7  N   UNL     1      -3.375  11.997  19.235  0.00  0.00    +0.000 NA
ATOM      8  N   UNL     1      -2.636  12.546  20.227  0.00  0.00    +0.000 N 
ATOM      9  C   UNL     1      -1.341  12.089  20.248  0.00  0.00    +0.000 A 
ATOM     10  C   UNL     1      -0.290  12.554  21.193  0.00  0.00    +0.000 C 
ATOM     11  C   UNL     1      -1.233  11.250  19.163  0.00  0.00    +0.000 A 
BRANCH   8  12
ATOM     12  C   UNL     1      -3.210  13.643  21.007  0.00  0.00    +0.000 C 
BRANCH  12  13
ATOM     13  C   UNL     1      -4.045  13.192  22.182  0.00  0.00    +0.000 A 
ATOM     14  C   UNL     1      -3.427  12.790  23.378  0.00  0.00    +0.000 A 
ATOM     15  C   UNL     1      -4.191  12.496  24.507  0.00  0.00    +0.000 A 
ATOM     16  C   UNL     1      -5.579  12.601  24.460  0.00  0.00    +0.000 A 
ATOM     17  C   UNL     1      -6.208  12.977  23.275  0.00  0.00    +0.000 A 
ATOM     18  C   UNL     1      -5.446  13.269  22.141  0.00  0.00    +0.000 A 
ENDBRANCH  12  13
ENDBRANCH   8  12
ENDBRANCH   1  11
BRANCH   2  19
ATOM     19  C   UNL     1       1.556   8.938  18.736  0.00  0.00    +0.000 A 
ATOM     20  C   UNL     1       2.260   7.735  18.980  0.00  0.00    +0.000 A 
ATOM     21  C   UNL     1       3.096   7.599  17.897  0.00  0.00    +0.000 A 
ATOM     22  O   UNL     1       2.928   8.670  17.075  0.00  0.00    +0.000 OA
ATOM     23  N   UNL     1       1.957   9.499  17.581  0.00  0.00    +0.000 NA
BRANCH  21  24
ATOM     24  C   UNL     1       4.134   6.668  17.494  0.00  0.00    +0.000 A 
ATOM     25  C   UNL     1       4.641   6.680  16.167  0.00  0.00    +0.000 A 
ATOM     26  C   UNL     1       5.784   5.959  15.820  0.00  0.00    +0.000 A 
ATOM     27  C   UNL     1       6.414   5.271  16.828  0.00  0.00    +0.000 A 
ATOM     28  C   UNL     1       5.886   5.195  18.099  0.00  0.00    +0.000 A 
ATOM     29  C   UNL     1       4.728   5.842  18.455  0.00  0.00    +0.000 A 
ATOM     30  O   UNL     1       6.716   4.538  18.958  0.00  0.00    +0.000 OA
ATOM     31  C   UNL     1       7.921   4.577  18.173  0.00  0.00    +0.000 C 
ATOM     32  O   UNL     1       7.646   4.694  16.760  0.00  0.00    +0.000 OA
ENDBRANCH  21  24
ENDBRANCH   2  19
TORSDOF 5
ENDMDL
MODEL 9
REMARK VINA RESULT:      -8.6      2.955     11.444
REMARK  Name = 
REMARK  7 active torsions:
REMARK  status: ('A' for Active; 'I' for Inactive)
REMARK    1  A    between atoms: C_1  and  C_2
REMARK    2  A    between atoms: N_4  and  C_5
REMARK    3  A    between atoms: C_5  and  C_6
REMARK    4  A    between atoms: C_12  and  C_13
REMARK    5  A    between atoms: C_14  and  N_15
REMARK    6  A    between atoms: C_16  and  C_18
REMARK    7  A    between atoms: C_20  and  C_21
REMARK                            x       y       z     vdW  Elec       q    Type
REMARK                         _______ _______ _______ _____ _____    ______ ____
ROOT
ATOM      1  N   UNL     1       3.190   6.651  18.659  0.00  0.00    +0.000 N 
ATOM      2  C   UNL     1       2.627   7.818  18.178  0.00  0.00    +0.000 C 
ATOM      3  O   UNL     1       2.688   8.243  17.029  0.00  0.00    +0.000 OA
ATOM      4  H   UNL     1       2.790   6.333  19.535  0.00  0.00    +0.000 HD
ENDROOT
BRANCH   1  11
ATOM      5  C   UNL     1       2.050   3.786  17.630  0.00  0.00    +0.000 C 
ATOM      6  C   UNL     1       3.376   4.428  17.447  0.00  0.00    +0.000 A 
ATOM      7  N   UNL     1       4.313   3.830  16.701  0.00  0.00    +0.000 NA
ATOM      8  N   UNL     1       5.330   4.721  16.657  0.00  0.00    +0.000 N 
ATOM      9  C   UNL     1       5.051   5.891  17.321  0.00  0.00    +0.000 A 
ATOM     10  C   UNL     1       5.999   7.027  17.480  0.00  0.00    +0.000 C 
ATOM     11  C   UNL     1       3.807   5.704  17.877  0.00  0.00    +0.000 A 
BRANCH   8  12
ATOM     12  C   UNL     1       6.614   4.296  16.099  0.00  0.00    +0.000 C 
BRANCH  12  13
ATOM     13  C   UNL     1       6.687   4.372  14.592  0.00  0.00    +0.000 A 
ATOM     14  C   UNL     1       7.594   5.246  13.970  0.00  0.00    +0.000 A 
ATOM     15  C   UNL     1       7.759   5.230  12.585  0.00  0.00    +0.000 A 
ATOM     16  C   UNL     1       7.023   4.341  11.803  0.00  0.00    +0.000 A 
ATOM     17  C   UNL     1       6.103   3.484  12.404  0.00  0.00    +0.000 A 
ATOM     18  C   UNL     1       5.934   3.501  13.790  0.00  0.00    +0.000 A 
ENDBRANCH  12  13
ENDBRANCH   8  12
ENDBRANCH   1  11
BRANCH   2  19
ATOM     19  C   UNL     1       1.810   8.451  19.212  0.00  0.00    +0.000 A 
ATOM     20  C   UNL     1       0.969   9.585  19.115  0.00  0.00    +0.000 A 
ATOM     21  C   UNL     1       0.388   9.688  20.357  0.00  0.00    +0.000 A 
ATOM     22  O   UNL     1       0.875   8.700  21.155  0.00  0.00    +0.000 OA
ATOM     23  N   UNL     1       1.748   7.914  20.443  0.00  0.00    +0.000 NA
BRANCH  21  24
ATOM     24  C   UNL     1      -0.515  10.620  21.009  0.00  0.00    +0.000 A 
ATOM     25  C   UNL     1      -0.700  10.583  22.416  0.00  0.00    +0.000 A 
ATOM     26  C   UNL     1      -1.378  11.602  23.088  0.00  0.00    +0.000 A 
ATOM     27  C   UNL     1      -1.821  12.657  22.328  0.00  0.00    +0.000 A 
ATOM     28  C   UNL     1      -1.711  12.663  20.953  0.00  0.00    +0.000 A 
ATOM     29  C   UNL     1      -1.105  11.644  20.259  0.00  0.00    +0.000 A 
ATOM     30  O   UNL     1      -2.134  13.841  20.413  0.00  0.00    +0.000 OA
ATOM     31  C   UNL     1      -2.140  14.642  21.608  0.00  0.00    +0.000 C 
ATOM     32  O   UNL     1      -2.300  13.842  22.799  0.00  0.00    +0.000 OA
ENDBRANCH  21  24
ENDBRANCH   2  19
TORSDOF 5
ENDMDL
