MODEL 1
REMARK VINA RESULT:      -8.9      0.000      0.000
REMARK  Name = 
REMARK  4 active torsions:
REMARK  status: ('A' for Active; 'I' for Inactive)
REMARK    1  A    between atoms: C_7  and  C_8
REMARK    2  A    between atoms: N_9  and  N_10
REMARK    3  A    between atoms: C_13  and  C_14
REMARK    4  A    between atoms: C_16  and  C_17
REMARK                            x       y       z     vdW  Elec       q    Type
REMARK                         _______ _______ _______ _____ _____    ______ ____
ROOT
ATOM      1  N   UNL     1       1.969   5.878  21.131  0.00  0.00    +0.000 N 
ATOM      2  C   UNL     1       2.749   4.971  20.478  0.00  0.00    +0.000 A 
ATOM      3  N   UNL     1       3.676   5.275  19.595  0.00  0.00    +0.000 NA
ATOM      4  C   UNL     1       4.181   4.135  19.011  0.00  0.00    +0.000 A 
ATOM      5  C   UNL     1       3.659   2.949  19.479  0.00  0.00    +0.000 A 
ATOM      6  S   UNL     1       2.526   3.277  20.726  0.00  0.00    +0.000 S 
ATOM      7  H   UNL     1       1.249   5.484  21.731  0.00  0.00    +0.000 HD
ENDROOT
BRANCH   4   8
ATOM      8  C   UNL     1       5.213   4.219  17.949  0.00  0.00    +0.000 A 
ATOM      9  C   UNL     1       4.978   4.129  16.599  0.00  0.00    +0.000 A 
ATOM     10  C   UNL     1       6.244   4.301  15.982  0.00  0.00    +0.000 A 
ATOM     11  N   UNL     1       7.192   4.448  16.926  0.00  0.00    +0.000 NA
ATOM     12  O   UNL     1       6.546   4.408  18.144  0.00  0.00    +0.000 OA
BRANCH  10  13
ATOM     13  C   UNL     1       6.564   4.344  14.551  0.00  0.00    +0.000 A 
ATOM     14  C   UNL     1       7.538   5.227  14.054  0.00  0.00    +0.000 A 
ATOM     15  C   UNL     1       7.853   5.248  12.692  0.00  0.00    +0.000 A 
ATOM     16  C   UNL     1       7.204   4.390  11.810  0.00  0.00    +0.000 A 
ATOM     17  C   UNL     1       6.234   3.509  12.286  0.00  0.00    +0.000 A 
ATOM     18  C   UNL     1       5.918   3.487  13.647  0.00  0.00    +0.000 A 
ENDBRANCH  10  13
ENDBRANCH   4   8
BRANCH   1  20
ATOM     19  C   UNL     1       1.163   7.996  21.256  0.00  0.00    +0.000 C 
ATOM     20  N   UNL     1       1.712   7.074  20.532  0.00  0.00    +0.000 NA
BRANCH  19  27
ATOM     21 CL   UNL     1      -0.448  10.078  22.959  0.00  0.00    +0.000 Cl
ATOM     22  C   UNL     1       0.036  10.253  21.310  0.00  0.00    +0.000 A 
ATOM     23  C   UNL     1      -0.340  11.429  20.646  0.00  0.00    +0.000 A 
ATOM     24  C   UNL     1       0.012  11.635  19.312  0.00  0.00    +0.000 A 
ATOM     25  C   UNL     1       0.749  10.670  18.631  0.00  0.00    +0.000 A 
ATOM     26  C   UNL     1       1.128   9.499  19.286  0.00  0.00    +0.000 A 
ATOM     27  C   UNL     1       0.773   9.280  20.628  0.00  0.00    +0.000 A 
ENDBRANCH  19  27
ENDBRANCH   1  20
TORSDOF 4
ENDMDL
MODEL 2
REMARK VINA RESULT:      -8.8      1.292      1.856
REMARK  Name = 
REMARK  4 active torsions:
REMARK  status: ('A' for Active; 'I' for Inactive)
REMARK    1  A    between atoms: C_7  and  C_8
REMARK    2  A    between atoms: N_9  and  N_10
REMARK    3  A    between atoms: C_13  and  C_14
REMARK    4  A    between atoms: C_16  and  C_17
REMARK                            x       y       z     vdW  Elec       q    Type
REMARK                         _______ _______ _______ _____ _____    ______ ____
ROOT
ATOM      1  N   UNL     1       1.992   5.299  21.102  0.00  0.00    +0.000 N 
ATOM      2  C   UNL     1       2.934   4.522  20.498  0.00  0.00    +0.000 A 
ATOM      3  N   UNL     1       3.772   4.939  19.574  0.00  0.00    +0.000 NA
ATOM      4  C   UNL     1       4.494   3.885  19.062  0.00  0.00    +0.000 A 
ATOM      5  C   UNL     1       4.228   2.657  19.625  0.00  0.00    +0.000 A 
ATOM      6  S   UNL     1       3.062   2.841  20.871  0.00  0.00    +0.000 S 
ATOM      7  H   UNL     1       1.372   4.813  21.746  0.00  0.00    +0.000 HD
ENDROOT
BRANCH   4   8
ATOM      8  C   UNL     1       5.478   4.096  17.973  0.00  0.00    +0.000 A 
ATOM      9  C   UNL     1       5.226   3.955  16.630  0.00  0.00    +0.000 A 
ATOM     10  C   UNL     1       6.440   4.291  15.979  0.00  0.00    +0.000 A 
ATOM     11  N   UNL     1       7.382   4.581  16.896  0.00  0.00    +0.000 NA
ATOM     12  O   UNL     1       6.776   4.469  18.131  0.00  0.00    +0.000 OA
BRANCH  10  13
ATOM     13  C   UNL     1       6.717   4.358  14.540  0.00  0.00    +0.000 A 
ATOM     14  C   UNL     1       6.036   3.529  13.632  0.00  0.00    +0.000 A 
ATOM     15  C   UNL     1       6.289   3.614  12.260  0.00  0.00    +0.000 A 
ATOM     16  C   UNL     1       7.221   4.526  11.775  0.00  0.00    +0.000 A 
ATOM     17  C   UNL     1       7.907   5.355  12.661  0.00  0.00    +0.000 A 
ATOM     18  C   UNL     1       7.655   5.271  14.034  0.00  0.00    +0.000 A 
ENDBRANCH  10  13
ENDBRANCH   4   8
BRANCH   1  20
ATOM     19  C   UNL     1       1.740   7.546  20.906  0.00  0.00    +0.000 C 
ATOM     20  N   UNL     1       1.492   6.370  20.425  0.00  0.00    +0.000 NA
BRANCH  19  27
ATOM     21 CL   UNL     1       2.655   8.325  18.009  0.00  0.00    +0.000 Cl
ATOM     22  C   UNL     1       1.505   9.166  18.985  0.00  0.00    +0.000 A 
ATOM     23  C   UNL     1       0.931  10.328  18.451  0.00  0.00    +0.000 A 
ATOM     24  C   UNL     1      -0.002  11.061  19.186  0.00  0.00    +0.000 A 
ATOM     25  C   UNL     1      -0.373  10.636  20.459  0.00  0.00    +0.000 A 
ATOM     26  C   UNL     1       0.194   9.480  20.995  0.00  0.00    +0.000 A 
ATOM     27  C   UNL     1       1.138   8.738  20.264  0.00  0.00    +0.000 A 
ENDBRANCH  19  27
ENDBRANCH   1  20
TORSDOF 4
ENDMDL
MODEL 3
REMARK VINA RESULT:      -8.4      0.764      1.212
REMARK  Name = 
REMARK  4 active torsions:
REMARK  status: ('A' for Active; 'I' for Inactive)
REMARK    1  A    between atoms: C_7  and  C_8
REMARK    2  A    between atoms: N_9  and  N_10
REMARK    3  A    between atoms: C_13  and  C_14
REMARK    4  A    between atoms: C_16  and  C_17
REMARK                            x       y       z     vdW  Elec       q    Type
REMARK                         _______ _______ _______ _____ _____    ______ ____
ROOT
ATOM      1  N   UNL     1       1.738   5.947  21.178  0.00  0.00    +0.000 N 
ATOM      2  C   UNL     1       2.602   5.226  20.412  0.00  0.00    +0.000 A 
ATOM      3  N   UNL     1       3.333   5.720  19.435  0.00  0.00    +0.000 NA
ATOM      4  C   UNL     1       3.988   4.713  18.763  0.00  0.00    +0.000 A 
ATOM      5  C   UNL     1       3.783   3.442  19.253  0.00  0.00    +0.000 A 
ATOM      6  S   UNL     1       2.766   3.521  20.634  0.00  0.00    +0.000 S 
ATOM      7  H   UNL     1       1.193   5.409  21.848  0.00  0.00    +0.000 HD
ENDROOT
BRANCH   4   8
ATOM      8  C   UNL     1       4.843   5.015  17.589  0.00  0.00    +0.000 A 
ATOM      9  C   UNL     1       4.954   4.239  16.461  0.00  0.00    +0.000 A 
ATOM     10  C   UNL     1       5.846   4.937  15.608  0.00  0.00    +0.000 A 
ATOM     11  N   UNL     1       6.275   6.057  16.218  0.00  0.00    +0.000 NA
ATOM     12  O   UNL     1       5.641   6.106  17.443  0.00  0.00    +0.000 OA
BRANCH  10  13
ATOM     13  C   UNL     1       6.278   4.583  14.251  0.00  0.00    +0.000 A 
ATOM     14  C   UNL     1       5.576   3.628  13.494  0.00  0.00    +0.000 A 
ATOM     15  C   UNL     1       5.981   3.311  12.194  0.00  0.00    +0.000 A 
ATOM     16  C   UNL     1       7.086   3.941  11.632  0.00  0.00    +0.000 A 
ATOM     17  C   UNL     1       7.794   4.890  12.368  0.00  0.00    +0.000 A 
ATOM     18  C   UNL     1       7.391   5.207  13.669  0.00  0.00    +0.000 A 
ENDBRANCH  10  13
ENDBRANCH   4   8
BRANCH   1  20
ATOM     19  C   UNL     1       1.295   8.169  21.314  0.00  0.00    +0.000 C 
ATOM     20  N   UNL     1       1.169   7.066  20.650  0.00  0.00    +0.000 NA
BRANCH  19  27
ATOM     21 CL   UNL     1      -0.427   9.831  23.341  0.00  0.00    +0.000 Cl
ATOM     22  C   UNL     1      -0.191  10.179  21.666  0.00  0.00    +0.000 A 
ATOM     23  C   UNL     1      -0.846  11.301  21.140  0.00  0.00    +0.000 A 
ATOM     24  C   UNL     1      -0.704  11.638  19.793  0.00  0.00    +0.000 A 
ATOM     25  C   UNL     1       0.098  10.861  18.963  0.00  0.00    +0.000 A 
ATOM     26  C   UNL     1       0.753   9.744  19.480  0.00  0.00    +0.000 A 
ATOM     27  C   UNL     1       0.612   9.393  20.834  0.00  0.00    +0.000 A 
ENDBRANCH  19  27
ENDBRANCH   1  20
TORSDOF 4
ENDMDL
MODEL 4
REMARK VINA RESULT:      -8.3      0.789      1.280
REMARK  Name = 
REMARK  4 active torsions:
REMARK  status: ('A' for Active; 'I' for Inactive)
REMARK    1  A    between atoms: C_7  and  C_8
REMARK    2  A    between atoms: N_9  and  N_10
REMARK    3  A    between atoms: C_13  and  C_14
REMARK    4  A    between atoms: C_16  and  C_17
REMARK                            x       y       z     vdW  Elec       q    Type
REMARK                         _______ _______ _______ _____ _____    ______ ____
ROOT
ATOM      1  N   UNL     1       2.055   5.055  21.178  0.00  0.00    +0.000 N 
ATOM      2  C   UNL     1       3.026   4.349  20.534  0.00  0.00    +0.000 A 
ATOM      3  N   UNL     1       3.815   4.836  19.601  0.00  0.00    +0.000 NA
ATOM      4  C   UNL     1       4.586   3.838  19.049  0.00  0.00    +0.000 A 
ATOM      5  C   UNL     1       4.407   2.584  19.590  0.00  0.00    +0.000 A 
ATOM      6  S   UNL     1       3.263   2.671  20.867  0.00  0.00    +0.000 S 
ATOM      7  H   UNL     1       1.480   4.519  21.825  0.00  0.00    +0.000 HD
ENDROOT
BRANCH   4   8
ATOM      8  C   UNL     1       5.529   4.130  17.942  0.00  0.00    +0.000 A 
ATOM      9  C   UNL     1       5.280   3.928  16.607  0.00  0.00    +0.000 A 
ATOM     10  C   UNL     1       6.442   4.382  15.932  0.00  0.00    +0.000 A 
ATOM     11  N   UNL     1       7.354   4.800  16.830  0.00  0.00    +0.000 NA
ATOM     12  O   UNL     1       6.778   4.652  18.075  0.00  0.00    +0.000 OA
BRANCH  10  13
ATOM     13  C   UNL     1       6.695   4.444  14.489  0.00  0.00    +0.000 A 
ATOM     14  C   UNL     1       5.976   3.634  13.592  0.00  0.00    +0.000 A 
ATOM     15  C   UNL     1       6.208   3.713  12.216  0.00  0.00    +0.000 A 
ATOM     16  C   UNL     1       7.154   4.601  11.716  0.00  0.00    +0.000 A 
ATOM     17  C   UNL     1       7.877   5.411  12.590  0.00  0.00    +0.000 A 
ATOM     18  C   UNL     1       7.647   5.332  13.966  0.00  0.00    +0.000 A 
ENDBRANCH  10  13
ENDBRANCH   4   8
BRANCH   1  20
ATOM     19  C   UNL     1       2.140   7.218  20.497  0.00  0.00    +0.000 C 
ATOM     20  N   UNL     1       1.476   6.108  20.537  0.00  0.00    +0.000 NA
BRANCH  19  27
ATOM     21 CL   UNL     1       0.270   8.992  22.283  0.00  0.00    +0.000 Cl
ATOM     22  C   UNL     1       0.652   9.254  20.619  0.00  0.00    +0.000 A 
ATOM     23  C   UNL     1       0.058  10.352  19.983  0.00  0.00    +0.000 A 
ATOM     24  C   UNL     1       0.318  10.621  18.638  0.00  0.00    +0.000 A 
ATOM     25  C   UNL     1       1.179   9.797  17.919  0.00  0.00    +0.000 A 
ATOM     26  C   UNL     1       1.775   8.703  18.546  0.00  0.00    +0.000 A 
ATOM     27  C   UNL     1       1.515   8.421  19.899  0.00  0.00    +0.000 A 
ENDBRANCH  19  27
ENDBRANCH   1  20
TORSDOF 4
ENDMDL
MODEL 5
REMARK VINA RESULT:      -8.3      1.389      1.692
REMARK  Name = 
REMARK  4 active torsions:
REMARK  status: ('A' for Active; 'I' for Inactive)
REMARK    1  A    between atoms: C_7  and  C_8
REMARK    2  A    between atoms: N_9  and  N_10
REMARK    3  A    between atoms: C_13  and  C_14
REMARK    4  A    between atoms: C_16  and  C_17
REMARK                            x       y       z     vdW  Elec       q    Type
REMARK                         _______ _______ _______ _____ _____    ______ ____
ROOT
ATOM      1  N   UNL     1       1.595   6.638  20.988  0.00  0.00    +0.000 N 
ATOM      2  C   UNL     1       2.157   5.641  20.249  0.00  0.00    +0.000 A 
ATOM      3  N   UNL     1       3.230   5.775  19.500  0.00  0.00    +0.000 NA
ATOM      4  C   UNL     1       3.457   4.630  18.770  0.00  0.00    +0.000 A 
ATOM      5  C   UNL     1       2.569   3.601  18.992  0.00  0.00    +0.000 A 
ATOM      6  S   UNL     1       1.435   4.074  20.192  0.00  0.00    +0.000 S 
ATOM      7  H   UNL     1       0.727   6.397  21.461  0.00  0.00    +0.000 HD
ENDROOT
BRANCH   4   8
ATOM      8  C   UNL     1       4.588   4.550  17.814  0.00  0.00    +0.000 A 
ATOM      9  C   UNL     1       4.474   4.442  16.450  0.00  0.00    +0.000 A 
ATOM     10  C   UNL     1       5.804   4.436  15.958  0.00  0.00    +0.000 A 
ATOM     11  N   UNL     1       6.669   4.499  16.987  0.00  0.00    +0.000 NA
ATOM     12  O   UNL     1       5.909   4.581  18.136  0.00  0.00    +0.000 OA
BRANCH  10  13
ATOM     13  C   UNL     1       6.263   4.390  14.565  0.00  0.00    +0.000 A 
ATOM     14  C   UNL     1       7.363   5.155  14.139  0.00  0.00    +0.000 A 
ATOM     15  C   UNL     1       7.807   5.090  12.815  0.00  0.00    +0.000 A 
ATOM     16  C   UNL     1       7.165   4.261  11.901  0.00  0.00    +0.000 A 
ATOM     17  C   UNL     1       6.072   3.496  12.306  0.00  0.00    +0.000 A 
ATOM     18  C   UNL     1       5.626   3.561  13.629  0.00  0.00    +0.000 A 
ENDBRANCH  10  13
ENDBRANCH   4   8
BRANCH   1  20
ATOM     19  C   UNL     1       0.782   8.748  20.793  0.00  0.00    +0.000 C 
ATOM     20  N   UNL     1       1.761   7.928  20.583  0.00  0.00    +0.000 NA
BRANCH  19  27
ATOM     21 CL   UNL     1       1.530   9.207  17.783  0.00  0.00    +0.000 Cl
ATOM     22  C   UNL     1       1.219  10.429  18.962  0.00  0.00    +0.000 A 
ATOM     23  C   UNL     1       1.329  11.766  18.554  0.00  0.00    +0.000 A 
ATOM     24  C   UNL     1       1.096  12.805  19.455  0.00  0.00    +0.000 A 
ATOM     25  C   UNL     1       0.746  12.518  20.772  0.00  0.00    +0.000 A 
ATOM     26  C   UNL     1       0.633  11.191  21.184  0.00  0.00    +0.000 A 
ATOM     27  C   UNL     1       0.871  10.137  20.284  0.00  0.00    +0.000 A 
ENDBRANCH  19  27
ENDBRANCH   1  20
TORSDOF 4
ENDMDL
MODEL 6
REMARK VINA RESULT:      -8.2      1.301      1.381
REMARK  Name = 
REMARK  4 active torsions:
REMARK  status: ('A' for Active; 'I' for Inactive)
REMARK    1  A    between atoms: C_7  and  C_8
REMARK    2  A    between atoms: N_9  and  N_10
REMARK    3  A    between atoms: C_13  and  C_14
REMARK    4  A    between atoms: C_16  and  C_17
REMARK                            x       y       z     vdW  Elec       q    Type
REMARK                         _______ _______ _______ _____ _____    ______ ____
ROOT
ATOM      1  N   UNL     1       1.663   6.841  21.098  0.00  0.00    +0.000 N 
ATOM      2  C   UNL     1       2.384   6.031  20.274  0.00  0.00    +0.000 A 
ATOM      3  N   UNL     1       3.071   6.441  19.230  0.00  0.00    +0.000 NA
ATOM      4  C   UNL     1       3.565   5.368  18.523  0.00  0.00    +0.000 A 
ATOM      5  C   UNL     1       3.281   4.128  19.053  0.00  0.00    +0.000 A 
ATOM      6  S   UNL     1       2.400   4.321  20.513  0.00  0.00    +0.000 S 
ATOM      7  H   UNL     1       1.128   6.366  21.821  0.00  0.00    +0.000 HD
ENDROOT
BRANCH   4   8
ATOM      8  C   UNL     1       4.340   5.572  17.275  0.00  0.00    +0.000 A 
ATOM      9  C   UNL     1       4.694   4.588  16.385  0.00  0.00    +0.000 A 
ATOM     10  C   UNL     1       5.387   5.253  15.341  0.00  0.00    +0.000 A 
ATOM     11  N   UNL     1       5.473   6.567  15.619  0.00  0.00    +0.000 NA
ATOM     12  O   UNL     1       4.812   6.761  16.815  0.00  0.00    +0.000 OA
BRANCH  10  13
ATOM     13  C   UNL     1       5.941   4.687  14.106  0.00  0.00    +0.000 A 
ATOM     14  C   UNL     1       7.229   5.033  13.665  0.00  0.00    +0.000 A 
ATOM     15  C   UNL     1       7.759   4.473  12.498  0.00  0.00    +0.000 A 
ATOM     16  C   UNL     1       7.013   3.560  11.760  0.00  0.00    +0.000 A 
ATOM     17  C   UNL     1       5.733   3.205  12.182  0.00  0.00    +0.000 A 
ATOM     18  C   UNL     1       5.203   3.766  13.348  0.00  0.00    +0.000 A 
ENDBRANCH  10  13
ENDBRANCH   4   8
BRANCH   1  20
ATOM     19  C   UNL     1       1.073   9.011  21.408  0.00  0.00    +0.000 C 
ATOM     20  N   UNL     1       1.161   8.005  20.599  0.00  0.00    +0.000 NA
BRANCH  19  27
ATOM     21 CL   UNL     1      -1.027  10.422  23.261  0.00  0.00    +0.000 Cl
ATOM     22  C   UNL     1      -0.517  10.950  21.698  0.00  0.00    +0.000 A 
ATOM     23  C   UNL     1      -1.107  12.112  21.182  0.00  0.00    +0.000 A 
ATOM     24  C   UNL     1      -0.747  12.593  19.923  0.00  0.00    +0.000 A 
ATOM     25  C   UNL     1       0.212  11.920  19.171  0.00  0.00    +0.000 A 
ATOM     26  C   UNL     1       0.805  10.764  19.678  0.00  0.00    +0.000 A 
ATOM     27  C   UNL     1       0.443  10.269  20.943  0.00  0.00    +0.000 A 
ENDBRANCH  19  27
ENDBRANCH   1  20
TORSDOF 4
ENDMDL
MODEL 7
REMARK VINA RESULT:      -8.2      1.379      1.663
REMARK  Name = 
REMARK  4 active torsions:
REMARK  status: ('A' for Active; 'I' for Inactive)
REMARK    1  A    between atoms: C_7  and  C_8
REMARK    2  A    between atoms: N_9  and  N_10
REMARK    3  A    between atoms: C_13  and  C_14
REMARK    4  A    between atoms: C_16  and  C_17
REMARK                            x       y       z     vdW  Elec       q    Type
REMARK                         _______ _______ _______ _____ _____    ______ ____
ROOT
ATOM      1  N   UNL     1       1.807   5.697  21.165  0.00  0.00    +0.000 N 
ATOM      2  C   UNL     1       2.677   5.024  20.362  0.00  0.00    +0.000 A 
ATOM      3  N   UNL     1       3.325   5.552  19.347  0.00  0.00    +0.000 NA
ATOM      4  C   UNL     1       4.011   4.582  18.651  0.00  0.00    +0.000 A 
ATOM      5  C   UNL     1       3.912   3.306  19.162  0.00  0.00    +0.000 A 
ATOM      6  S   UNL     1       2.961   3.336  20.590  0.00  0.00    +0.000 S 
ATOM      7  H   UNL     1       1.331   5.133  21.865  0.00  0.00    +0.000 HD
ENDROOT
BRANCH   4   8
ATOM      8  C   UNL     1       4.786   4.924  17.434  0.00  0.00    +0.000 A 
ATOM      9  C   UNL     1       4.963   4.108  16.344  0.00  0.00    +0.000 A 
ATOM     10  C   UNL     1       5.733   4.865  15.425  0.00  0.00    +0.000 A 
ATOM     11  N   UNL     1       6.032   6.063  15.962  0.00  0.00    +0.000 NA
ATOM     12  O   UNL     1       5.432   6.099  17.204  0.00  0.00    +0.000 OA
BRANCH  10  13
ATOM     13  C   UNL     1       6.168   4.494  14.074  0.00  0.00    +0.000 A 
ATOM     14  C   UNL     1       7.330   5.048  13.509  0.00  0.00    +0.000 A 
ATOM     15  C   UNL     1       7.749   4.673  12.229  0.00  0.00    +0.000 A 
ATOM     16  C   UNL     1       7.019   3.742  11.498  0.00  0.00    +0.000 A 
ATOM     17  C   UNL     1       5.864   3.183  12.042  0.00  0.00    +0.000 A 
ATOM     18  C   UNL     1       5.443   3.557  13.321  0.00  0.00    +0.000 A 
ENDBRANCH  10  13
ENDBRANCH   4   8
BRANCH   1  20
ATOM     19  C   UNL     1       1.583   7.947  20.969  0.00  0.00    +0.000 C 
ATOM     20  N   UNL     1       1.142   6.771  20.657  0.00  0.00    +0.000 NA
BRANCH  19  27
ATOM     21 CL   UNL     1       1.922   8.920  18.007  0.00  0.00    +0.000 Cl
ATOM     22  C   UNL     1       0.949   9.660  19.227  0.00  0.00    +0.000 A 
ATOM     23  C   UNL     1       0.253  10.826  18.880  0.00  0.00    +0.000 A 
ATOM     24  C   UNL     1      -0.548  11.480  19.818  0.00  0.00    +0.000 A 
ATOM     25  C   UNL     1      -0.665  10.971  21.108  0.00  0.00    +0.000 A 
ATOM     26  C   UNL     1       0.024   9.811  21.459  0.00  0.00    +0.000 A 
ATOM     27  C   UNL     1       0.838   9.148  20.523  0.00  0.00    +0.000 A 
ENDBRANCH  19  27
ENDBRANCH   1  20
TORSDOF 4
ENDMDL
MODEL 8
REMARK VINA RESULT:      -8.0      1.308      1.748
REMARK  Name = 
REMARK  4 active torsions:
REMARK  status: ('A' for Active; 'I' for Inactive)
REMARK    1  A    between atoms: C_7  and  C_8
REMARK    2  A    between atoms: N_9  and  N_10
REMARK    3  A    between atoms: C_13  and  C_14
REMARK    4  A    between atoms: C_16  and  C_17
REMARK                            x       y       z     vdW  Elec       q    Type
REMARK                         _______ _______ _______ _____ _____    ______ ____
ROOT
ATOM      1  N   UNL     1       1.534   7.340  20.991  0.00  0.00    +0.000 N 
ATOM      2  C   UNL     1       2.277   6.446  20.281  0.00  0.00    +0.000 A 
ATOM      3  N   UNL     1       3.121   6.763  19.323  0.00  0.00    +0.000 NA
ATOM      4  C   UNL     1       3.602   5.631  18.706  0.00  0.00    +0.000 A 
ATOM      5  C   UNL     1       3.148   4.437  19.221  0.00  0.00    +0.000 A 
ATOM      6  S   UNL     1       2.113   4.749  20.556  0.00  0.00    +0.000 S 
ATOM      7  H   UNL     1       0.875   6.934  21.651  0.00  0.00    +0.000 HD
ENDROOT
BRANCH   4   8
ATOM      8  C   UNL     1       4.541   5.730  17.562  0.00  0.00    +0.000 A 
ATOM      9  C   UNL     1       4.645   4.825  16.534  0.00  0.00    +0.000 A 
ATOM     10  C   UNL     1       5.636   5.350  15.666  0.00  0.00    +0.000 A 
ATOM     11  N   UNL     1       6.125   6.496  16.176  0.00  0.00    +0.000 NA
ATOM     12  O   UNL     1       5.434   6.733  17.347  0.00  0.00    +0.000 OA
BRANCH  10  13
ATOM     13  C   UNL     1       6.108   4.811  14.386  0.00  0.00    +0.000 A 
ATOM     14  C   UNL     1       5.358   3.851  13.684  0.00  0.00    +0.000 A 
ATOM     15  C   UNL     1       5.804   3.358  12.454  0.00  0.00    +0.000 A 
ATOM     16  C   UNL     1       6.997   3.816  11.907  0.00  0.00    +0.000 A 
ATOM     17  C   UNL     1       7.753   4.768  12.589  0.00  0.00    +0.000 A 
ATOM     18  C   UNL     1       7.310   5.261  13.819  0.00  0.00    +0.000 A 
ENDBRANCH  10  13
ENDBRANCH   4   8
BRANCH   1  20
ATOM     19  C   UNL     1       0.927   9.517  21.194  0.00  0.00    +0.000 C 
ATOM     20  N   UNL     1       1.201   8.525  20.410  0.00  0.00    +0.000 NA
BRANCH  19  27
ATOM     21 CL   UNL     1      -1.250  11.170  22.733  0.00  0.00    +0.000 Cl
ATOM     22  C   UNL     1      -0.517  11.587  21.225  0.00  0.00    +0.000 A 
ATOM     23  C   UNL     1      -0.944  12.769  20.604  0.00  0.00    +0.000 A 
ATOM     24  C   UNL     1      -0.399  13.165  19.381  0.00  0.00    +0.000 A 
ATOM     25  C   UNL     1       0.581  12.386  18.773  0.00  0.00    +0.000 A 
ATOM     26  C   UNL     1       1.011  11.210  19.386  0.00  0.00    +0.000 A 
ATOM     27  C   UNL     1       0.464  10.800  20.615  0.00  0.00    +0.000 A 
ENDBRANCH  19  27
ENDBRANCH   1  20
TORSDOF 4
ENDMDL
MODEL 9
REMARK VINA RESULT:      -7.7      3.321      9.426
REMARK  Name = 
REMARK  4 active torsions:
REMARK  status: ('A' for Active; 'I' for Inactive)
REMARK    1  A    between atoms: C_7  and  C_8
REMARK    2  A    between atoms: N_9  and  N_10
REMARK    3  A    between atoms: C_13  and  C_14
REMARK    4  A    between atoms: C_16  and  C_17
REMARK                            x       y       z     vdW  Elec       q    Type
REMARK                         _______ _______ _______ _____ _____    ______ ____
ROOT
ATOM      1  N   UNL     1       4.837   2.995  17.187  0.00  0.00    +0.000 N 
ATOM      2  C   UNL     1       4.119   3.634  18.153  0.00  0.00    +0.000 A 
ATOM      3  N   UNL     1       3.607   4.840  18.034  0.00  0.00    +0.000 NA
ATOM      4  C   UNL     1       3.068   5.258  19.230  0.00  0.00    +0.000 A 
ATOM      5  C   UNL     1       3.139   4.347  20.261  0.00  0.00    +0.000 A 
ATOM      6  S   UNL     1       3.869   2.900  19.696  0.00  0.00    +0.000 S 
ATOM      7  H   UNL     1       5.226   2.095  17.455  0.00  0.00    +0.000 HD
ENDROOT
BRANCH   4   8
ATOM      8  C   UNL     1       2.466   6.607  19.362  0.00  0.00    +0.000 A 
ATOM      9  C   UNL     1       1.749   7.059  20.443  0.00  0.00    +0.000 A 
ATOM     10  C   UNL     1       1.411   8.402  20.138  0.00  0.00    +0.000 A 
ATOM     11  N   UNL     1       1.875   8.720  18.915  0.00  0.00    +0.000 NA
ATOM     12  O   UNL     1       2.539   7.607  18.443  0.00  0.00    +0.000 OA
BRANCH  10  13
ATOM     13  C   UNL     1       0.690   9.374  20.968  0.00  0.00    +0.000 A 
ATOM     14  C   UNL     1       0.323  10.631  20.457  0.00  0.00    +0.000 A 
ATOM     15  C   UNL     1      -0.382  11.543  21.248  0.00  0.00    +0.000 A 
ATOM     16  C   UNL     1      -0.733  11.214  22.553  0.00  0.00    +0.000 A 
ATOM     17  C   UNL     1      -0.376   9.973  23.076  0.00  0.00    +0.000 A 
ATOM     18  C   UNL     1       0.330   9.060  22.287  0.00  0.00    +0.000 A 
ENDBRANCH  10  13
ENDBRANCH   4   8
BRANCH   1  20
ATOM     19  C   UNL     1       5.524   3.341  15.052  0.00  0.00    +0.000 C 
ATOM     20  N   UNL     1       5.529   3.742  16.282  0.00  0.00    +0.000 NA
BRANCH  19  27
ATOM     21 CL   UNL     1       5.250   2.539  12.033  0.00  0.00    +0.000 Cl
ATOM     22  C   UNL     1       6.294   3.751  12.684  0.00  0.00    +0.000 A 
ATOM     23  C   UNL     1       7.125   4.438  11.788  0.00  0.00    +0.000 A 
ATOM     24  C   UNL     1       7.998   5.426  12.245  0.00  0.00    +0.000 A 
ATOM     25  C   UNL     1       8.044   5.740  13.600  0.00  0.00    +0.000 A 
ATOM     26  C   UNL     1       7.219   5.061  14.497  0.00  0.00    +0.000 A 
ATOM     27  C   UNL     1       6.341   4.060  14.046  0.00  0.00    +0.000 A 
ENDBRANCH  19  27
ENDBRANCH   1  20
TORSDOF 4
ENDMDL
