MODEL 1
REMARK VINA RESULT:      -7.7      0.000      0.000
REMARK  Name = 
REMARK  15 active torsions:
REMARK  status: ('A' for Active; 'I' for Inactive)
REMARK    1  A    between atoms: C_1  and  O_2
REMARK    2  A    between atoms: O_2  and  C_3
REMARK    3  A    between atoms: C_5  and  C_6
REMARK    4  A    between atoms: C_6  and  C_8
REMARK    5  A    between atoms: C_15  and  C_16
REMARK    6  A    between atoms: C_16  and  O_18
REMARK    7  A    between atoms: O_18  and  C_19
REMARK    8  A    between atoms: C_19  and  C_20
REMARK    9  A    between atoms: C_20  and  C_21
REMARK   10  A    between atoms: C_21  and  C_22
REMARK   11  A    between atoms: C_22  and  C_23
REMARK   12  A    between atoms: C_30  and  O_31
REMARK   13  A    between atoms: O_31  and  C_32
REMARK   14  A    between atoms: C_33  and  O_34
REMARK   15  A    between atoms: O_34  and  C_35
REMARK                            x       y       z     vdW  Elec       q    Type
REMARK                         _______ _______ _______ _____ _____    ______ ____
ROOT
ATOM      1  C   UNL     1       4.007   3.098  18.463  0.00  0.00    +0.000 C 
ATOM      2  O   UNL     1       4.982   2.363  18.577  0.00  0.00    +0.000 OA
ATOM      3  N   UNL     1       3.170   3.461  19.519  0.00  0.00    +0.000 N 
ATOM      4  C   UNL     1       3.501   3.003  20.866  0.00  0.00    +0.000 C 
ATOM      5  C   UNL     1       2.310   2.305  21.509  0.00  0.00    +0.000 C 
ATOM      6  C   UNL     1       1.051   3.172  21.465  0.00  0.00    +0.000 C 
ATOM      7  C   UNL     1       0.771   3.670  20.049  0.00  0.00    +0.000 C 
ATOM      8  C   UNL     1       1.993   4.350  19.424  0.00  0.00    +0.000 C 
ENDROOT
BRANCH   1   9
ATOM      9  C   UNL     1       3.715   3.646  17.073  0.00  0.00    +0.000 C 
ATOM     10  O   UNL     1       2.561   3.655  16.664  0.00  0.00    +0.000 OA
BRANCH   9  13
ATOM     11  C   UNL     1       6.806   5.619  16.146  0.00  0.00    +0.000 A 
ATOM     12  C   UNL     1       5.633   5.197  16.795  0.00  0.00    +0.000 A 
ATOM     13  C   UNL     1       4.829   4.196  16.250  0.00  0.00    +0.000 A 
ATOM     14  C   UNL     1       5.145   3.695  14.990  0.00  0.00    +0.000 A 
ATOM     15  C   UNL     1       6.273   4.154  14.289  0.00  0.00    +0.000 A 
ATOM     16  C   UNL     1       7.125   5.124  14.861  0.00  0.00    +0.000 A 
BRANCH  11  18
ATOM     17  C   UNL     1       6.994   7.655  17.358  0.00  0.00    +0.000 C 
ATOM     18  O   UNL     1       7.636   6.535  16.744  0.00  0.00    +0.000 OA
ENDBRANCH  11  18
BRANCH  15  19
ATOM     19  O   UNL     1       6.390   3.510  13.081  0.00  0.00    +0.000 OA
ATOM     20  C   UNL     1       5.245   3.323  12.263  0.00  0.00    +0.000 C 
ENDBRANCH  15  19
BRANCH  16  21
ATOM     21  O   UNL     1       8.190   5.511  14.093  0.00  0.00    +0.000 OA
ATOM     22  C   UNL     1       8.063   5.686  12.692  0.00  0.00    +0.000 C 
ENDBRANCH  16  21
ENDBRANCH   9  13
ENDBRANCH   1   9
BRANCH   8  23
ATOM     23  C   UNL     1       2.223   5.765  19.995  0.00  0.00    +0.000 C 
ATOM     24  O   UNL     1       1.579   6.255  20.916  0.00  0.00    +0.000 OA
BRANCH  23  25
ATOM     25  O   UNL     1       3.059   6.480  19.185  0.00  0.00    +0.000 OA
BRANCH  25  26
ATOM     26  C   UNL     1       2.423   6.952  17.999  0.00  0.00    +0.000 C 
BRANCH  26  27
ATOM     27  C   UNL     1       2.729   8.412  17.690  0.00  0.00    +0.000 C 
BRANCH  27  28
ATOM     28  C   UNL     1       1.447   9.211  17.934  0.00  0.00    +0.000 C 
BRANCH  28  29
ATOM     29  C   UNL     1       1.265   9.685  19.372  0.00  0.00    +0.000 C 
BRANCH  29  30
ATOM     30  C   UNL     1      -0.229   9.884  19.732  0.00  0.00    +0.000 C 
ATOM     31  C   UNL     1      -0.475  10.572  21.089  0.00  0.00    +0.000 C 
ATOM     32  C   UNL     1      -0.140  12.063  21.086  0.00  0.00    +0.000 C 
ATOM     33  C   UNL     1      -0.828  12.804  19.943  0.00  0.00    +0.000 C 
ATOM     34  C   UNL     1      -0.589  12.136  18.594  0.00  0.00    +0.000 C 
ATOM     35  C   UNL     1      -0.964  10.657  18.626  0.00  0.00    +0.000 C 
ENDBRANCH  29  30
ENDBRANCH  28  29
ENDBRANCH  27  28
ENDBRANCH  26  27
ENDBRANCH  25  26
ENDBRANCH  23  25
ENDBRANCH   8  23
TORSDOF 12
ENDMDL
MODEL 2
REMARK VINA RESULT:      -7.6      0.972      1.571
REMARK  Name = 
REMARK  15 active torsions:
REMARK  status: ('A' for Active; 'I' for Inactive)
REMARK    1  A    between atoms: C_1  and  O_2
REMARK    2  A    between atoms: O_2  and  C_3
REMARK    3  A    between atoms: C_5  and  C_6
REMARK    4  A    between atoms: C_6  and  C_8
REMARK    5  A    between atoms: C_15  and  C_16
REMARK    6  A    between atoms: C_16  and  O_18
REMARK    7  A    between atoms: O_18  and  C_19
REMARK    8  A    between atoms: C_19  and  C_20
REMARK    9  A    between atoms: C_20  and  C_21
REMARK   10  A    between atoms: C_21  and  C_22
REMARK   11  A    between atoms: C_22  and  C_23
REMARK   12  A    between atoms: C_30  and  O_31
REMARK   13  A    between atoms: O_31  and  C_32
REMARK   14  A    between atoms: C_33  and  O_34
REMARK   15  A    between atoms: O_34  and  C_35
REMARK                            x       y       z     vdW  Elec       q    Type
REMARK                         _______ _______ _______ _____ _____    ______ ____
ROOT
ATOM      1  C   UNL     1       4.241   3.412  18.541  0.00  0.00    +0.000 C 
ATOM      2  O   UNL     1       5.343   2.932  18.782  0.00  0.00    +0.000 OA
ATOM      3  N   UNL     1       3.282   3.705  19.513  0.00  0.00    +0.000 N 
ATOM      4  C   UNL     1       3.623   3.499  20.918  0.00  0.00    +0.000 C 
ATOM      5  C   UNL     1       2.574   2.637  21.609  0.00  0.00    +0.000 C 
ATOM      6  C   UNL     1       1.162   3.191  21.410  0.00  0.00    +0.000 C 
ATOM      7  C   UNL     1       0.867   3.438  19.932  0.00  0.00    +0.000 C 
ATOM      8  C   UNL     1       1.949   4.292  19.264  0.00  0.00    +0.000 C 
ENDROOT
BRANCH   1   9
ATOM      9  C   UNL     1       3.921   3.709  17.083  0.00  0.00    +0.000 C 
ATOM     10  O   UNL     1       2.778   3.547  16.675  0.00  0.00    +0.000 OA
BRANCH   9  13
ATOM     11  C   UNL     1       6.919   5.695  15.910  0.00  0.00    +0.000 A 
ATOM     12  C   UNL     1       5.780   5.290  16.626  0.00  0.00    +0.000 A 
ATOM     13  C   UNL     1       4.993   4.225  16.185  0.00  0.00    +0.000 A 
ATOM     14  C   UNL     1       5.289   3.638  14.959  0.00  0.00    +0.000 A 
ATOM     15  C   UNL     1       6.381   4.074  14.189  0.00  0.00    +0.000 A 
ATOM     16  C   UNL     1       7.218   5.111  14.659  0.00  0.00    +0.000 A 
BRANCH  11  18
ATOM     17  C   UNL     1       7.282   7.323  17.604  0.00  0.00    +0.000 C 
ATOM     18  O   UNL     1       7.736   6.679  16.411  0.00  0.00    +0.000 OA
ENDBRANCH  11  18
BRANCH  15  19
ATOM     19  O   UNL     1       6.484   3.342  13.032  0.00  0.00    +0.000 OA
ATOM     20  C   UNL     1       5.380   3.259  12.144  0.00  0.00    +0.000 C 
ENDBRANCH  15  19
BRANCH  16  21
ATOM     21  O   UNL     1       8.247   5.469  13.830  0.00  0.00    +0.000 OA
ATOM     22  C   UNL     1       8.014   5.831  12.480  0.00  0.00    +0.000 C 
ENDBRANCH  16  21
ENDBRANCH   9  13
ENDBRANCH   1   9
BRANCH   8  23
ATOM     23  C   UNL     1       1.832   5.782  19.650  0.00  0.00    +0.000 C 
ATOM     24  O   UNL     1       1.500   6.187  20.759  0.00  0.00    +0.000 OA
BRANCH  23  25
ATOM     25  O   UNL     1       1.903   6.573  18.540  0.00  0.00    +0.000 OA
BRANCH  25  26
ATOM     26  C   UNL     1       2.455   7.862  18.803  0.00  0.00    +0.000 C 
BRANCH  26  27
ATOM     27  C   UNL     1       1.571   9.006  18.323  0.00  0.00    +0.000 C 
BRANCH  27  28
ATOM     28  C   UNL     1       0.872   9.591  19.552  0.00  0.00    +0.000 C 
BRANCH  28  29
ATOM     29  C   UNL     1      -0.624   9.832  19.371  0.00  0.00    +0.000 C 
BRANCH  29  30
ATOM     30  C   UNL     1      -0.927  10.653  18.092  0.00  0.00    +0.000 C 
ATOM     31  C   UNL     1      -1.892   9.968  17.104  0.00  0.00    +0.000 C 
ATOM     32  C   UNL     1      -3.340   9.939  17.590  0.00  0.00    +0.000 C 
ATOM     33  C   UNL     1      -3.838  11.323  17.999  0.00  0.00    +0.000 C 
ATOM     34  C   UNL     1      -2.895  12.010  18.979  0.00  0.00    +0.000 C 
ATOM     35  C   UNL     1      -1.464  12.049  18.448  0.00  0.00    +0.000 C 
ENDBRANCH  29  30
ENDBRANCH  28  29
ENDBRANCH  27  28
ENDBRANCH  26  27
ENDBRANCH  25  26
ENDBRANCH  23  25
ENDBRANCH   8  23
TORSDOF 12
ENDMDL
MODEL 3
REMARK VINA RESULT:      -7.2      3.363      8.351
REMARK  Name = 
REMARK  15 active torsions:
REMARK  status: ('A' for Active; 'I' for Inactive)
REMARK    1  A    between atoms: C_1  and  O_2
REMARK    2  A    between atoms: O_2  and  C_3
REMARK    3  A    between atoms: C_5  and  C_6
REMARK    4  A    between atoms: C_6  and  C_8
REMARK    5  A    between atoms: C_15  and  C_16
REMARK    6  A    between atoms: C_16  and  O_18
REMARK    7  A    between atoms: O_18  and  C_19
REMARK    8  A    between atoms: C_19  and  C_20
REMARK    9  A    between atoms: C_20  and  C_21
REMARK   10  A    between atoms: C_21  and  C_22
REMARK   11  A    between atoms: C_22  and  C_23
REMARK   12  A    between atoms: C_30  and  O_31
REMARK   13  A    between atoms: O_31  and  C_32
REMARK   14  A    between atoms: C_33  and  O_34
REMARK   15  A    between atoms: O_34  and  C_35
REMARK                            x       y       z     vdW  Elec       q    Type
REMARK                         _______ _______ _______ _____ _____    ______ ____
ROOT
ATOM      1  C   UNL     1       2.344   6.444  17.958  0.00  0.00    +0.000 C 
ATOM      2  O   UNL     1       1.190   6.052  17.822  0.00  0.00    +0.000 OA
ATOM      3  N   UNL     1       3.460   5.606  17.982  0.00  0.00    +0.000 N 
ATOM      4  C   UNL     1       3.267   4.175  17.763  0.00  0.00    +0.000 C 
ATOM      5  C   UNL     1       3.910   3.364  18.881  0.00  0.00    +0.000 C 
ATOM      6  C   UNL     1       5.376   3.745  19.089  0.00  0.00    +0.000 C 
ATOM      7  C   UNL     1       5.537   5.254  19.263  0.00  0.00    +0.000 C 
ATOM      8  C   UNL     1       4.864   6.040  18.134  0.00  0.00    +0.000 C 
ENDROOT
BRANCH   1   9
ATOM      9  C   UNL     1       2.551   7.946  18.098  0.00  0.00    +0.000 C 
ATOM     10  O   UNL     1       3.559   8.457  17.629  0.00  0.00    +0.000 OA
BRANCH   9  13
ATOM     11  C   UNL     1       0.748   9.867  20.813  0.00  0.00    +0.000 A 
ATOM     12  C   UNL     1       1.586   8.951  20.153  0.00  0.00    +0.000 A 
ATOM     13  C   UNL     1       1.509   8.772  18.771  0.00  0.00    +0.000 A 
ATOM     14  C   UNL     1       0.508   9.433  18.065  0.00  0.00    +0.000 A 
ATOM     15  C   UNL     1      -0.389  10.298  18.715  0.00  0.00    +0.000 A 
ATOM     16  C   UNL     1      -0.278  10.531  20.104  0.00  0.00    +0.000 A 
BRANCH  11  18
ATOM     17  C   UNL     1       0.013   9.396  23.024  0.00  0.00    +0.000 C 
ATOM     18  O   UNL     1       0.904  10.102  22.157  0.00  0.00    +0.000 OA
ENDBRANCH  11  18
BRANCH  15  19
ATOM     19  O   UNL     1      -1.275  10.844  17.818  0.00  0.00    +0.000 OA
ATOM     20  C   UNL     1      -2.258  10.024  17.205  0.00  0.00    +0.000 C 
ENDBRANCH  15  19
BRANCH  16  21
ATOM     21  O   UNL     1      -1.206  11.382  20.642  0.00  0.00    +0.000 OA
ATOM     22  C   UNL     1      -0.937  12.765  20.793  0.00  0.00    +0.000 C 
ENDBRANCH  16  21
ENDBRANCH   9  13
ENDBRANCH   1   9
BRANCH   8  23
ATOM     23  C   UNL     1       5.685   5.992  16.827  0.00  0.00    +0.000 C 
ATOM     24  O   UNL     1       5.220   5.725  15.725  0.00  0.00    +0.000 OA
BRANCH  23  25
ATOM     25  O   UNL     1       7.022   6.041  17.099  0.00  0.00    +0.000 OA
BRANCH  25  26
ATOM     26  C   UNL     1       7.557   7.363  17.048  0.00  0.00    +0.000 C 
BRANCH  26  27
ATOM     27  C   UNL     1       8.125   7.836  18.381  0.00  0.00    +0.000 C 
BRANCH  27  28
ATOM     28  C   UNL     1       8.410   9.334  18.251  0.00  0.00    +0.000 C 
BRANCH  28  29
ATOM     29  C   UNL     1       9.452   9.863  19.232  0.00  0.00    +0.000 C 
BRANCH  29  30
ATOM     30  C   UNL     1       9.388  11.405  19.370  0.00  0.00    +0.000 C 
ATOM     31  C   UNL     1      10.376  11.998  20.394  0.00  0.00    +0.000 C 
ATOM     32  C   UNL     1      11.829  11.969  19.925  0.00  0.00    +0.000 C 
ATOM     33  C   UNL     1      12.001  12.595  18.544  0.00  0.00    +0.000 C 
ATOM     34  C   UNL     1      11.032  12.014  17.520  0.00  0.00    +0.000 C 
ATOM     35  C   UNL     1       9.588  12.089  18.009  0.00  0.00    +0.000 C 
ENDBRANCH  29  30
ENDBRANCH  28  29
ENDBRANCH  27  28
ENDBRANCH  26  27
ENDBRANCH  25  26
ENDBRANCH  23  25
ENDBRANCH   8  23
TORSDOF 12
ENDMDL
MODEL 4
REMARK VINA RESULT:      -7.2      0.806      1.292
REMARK  Name = 
REMARK  15 active torsions:
REMARK  status: ('A' for Active; 'I' for Inactive)
REMARK    1  A    between atoms: C_1  and  O_2
REMARK    2  A    between atoms: O_2  and  C_3
REMARK    3  A    between atoms: C_5  and  C_6
REMARK    4  A    between atoms: C_6  and  C_8
REMARK    5  A    between atoms: C_15  and  C_16
REMARK    6  A    between atoms: C_16  and  O_18
REMARK    7  A    between atoms: O_18  and  C_19
REMARK    8  A    between atoms: C_19  and  C_20
REMARK    9  A    between atoms: C_20  and  C_21
REMARK   10  A    between atoms: C_21  and  C_22
REMARK   11  A    between atoms: C_22  and  C_23
REMARK   12  A    between atoms: C_30  and  O_31
REMARK   13  A    between atoms: O_31  and  C_32
REMARK   14  A    between atoms: C_33  and  O_34
REMARK   15  A    between atoms: O_34  and  C_35
REMARK                            x       y       z     vdW  Elec       q    Type
REMARK                         _______ _______ _______ _____ _____    ______ ____
ROOT
ATOM      1  C   UNL     1       3.854   2.742  18.161  0.00  0.00    +0.000 C 
ATOM      2  O   UNL     1       4.633   1.798  18.220  0.00  0.00    +0.000 OA
ATOM      3  N   UNL     1       3.201   3.291  19.266  0.00  0.00    +0.000 N 
ATOM      4  C   UNL     1       3.506   2.766  20.593  0.00  0.00    +0.000 C 
ATOM      5  C   UNL     1       2.230   2.369  21.326  0.00  0.00    +0.000 C 
ATOM      6  C   UNL     1       1.212   3.509  21.354  0.00  0.00    +0.000 C 
ATOM      7  C   UNL     1       0.961   4.061  19.952  0.00  0.00    +0.000 C 
ATOM      8  C   UNL     1       2.263   4.433  19.237  0.00  0.00    +0.000 C 
ENDROOT
BRANCH   1   9
ATOM      9  C   UNL     1       3.604   3.346  16.786  0.00  0.00    +0.000 C 
ATOM     10  O   UNL     1       2.467   3.353  16.333  0.00  0.00    +0.000 OA
BRANCH   9  13
ATOM     11  C   UNL     1       6.690   5.413  16.068  0.00  0.00    +0.000 A 
ATOM     12  C   UNL     1       5.501   4.941  16.651  0.00  0.00    +0.000 A 
ATOM     13  C   UNL     1       4.738   3.952  16.032  0.00  0.00    +0.000 A 
ATOM     14  C   UNL     1       5.111   3.513  14.765  0.00  0.00    +0.000 A 
ATOM     15  C   UNL     1       6.256   4.023  14.128  0.00  0.00    +0.000 A 
ATOM     16  C   UNL     1       7.067   4.981  14.776  0.00  0.00    +0.000 A 
BRANCH  11  18
ATOM     17  C   UNL     1       7.228   6.446  18.140  0.00  0.00    +0.000 C 
ATOM     18  O   UNL     1       7.478   6.316  16.738  0.00  0.00    +0.000 OA
ENDBRANCH  11  18
BRANCH  15  19
ATOM     19  O   UNL     1       6.432   3.437  12.899  0.00  0.00    +0.000 OA
ATOM     20  C   UNL     1       5.309   3.175  12.071  0.00  0.00    +0.000 C 
ENDBRANCH  15  19
BRANCH  16  21
ATOM     21  O   UNL     1       8.153   5.421  14.068  0.00  0.00    +0.000 OA
ATOM     22  C   UNL     1       8.060   5.716  12.684  0.00  0.00    +0.000 C 
ENDBRANCH  16  21
ENDBRANCH   9  13
ENDBRANCH   1   9
BRANCH   8  23
ATOM     23  C   UNL     1       2.859   5.754  19.770  0.00  0.00    +0.000 C 
ATOM     24  O   UNL     1       4.049   5.933  20.004  0.00  0.00    +0.000 OA
BRANCH  23  25
ATOM     25  O   UNL     1       1.867   6.599  20.176  0.00  0.00    +0.000 OA
BRANCH  25  26
ATOM     26  C   UNL     1       2.062   7.944  19.740  0.00  0.00    +0.000 C 
BRANCH  26  27
ATOM     27  C   UNL     1       2.001   8.103  18.226  0.00  0.00    +0.000 C 
BRANCH  27  28
ATOM     28  C   UNL     1       1.784   9.588  17.931  0.00  0.00    +0.000 C 
BRANCH  28  29
ATOM     29  C   UNL     1       0.414  10.118  18.342  0.00  0.00    +0.000 C 
BRANCH  29  30
ATOM     30  C   UNL     1       0.488  11.579  18.855  0.00  0.00    +0.000 C 
ATOM     31  C   UNL     1      -0.859  12.329  18.850  0.00  0.00    +0.000 C 
ATOM     32  C   UNL     1      -1.823  11.856  19.937  0.00  0.00    +0.000 C 
ATOM     33  C   UNL     1      -1.178  11.861  21.320  0.00  0.00    +0.000 C 
ATOM     34  C   UNL     1       0.153  11.118  21.340  0.00  0.00    +0.000 C 
ATOM     35  C   UNL     1       1.102  11.638  20.263  0.00  0.00    +0.000 C 
ENDBRANCH  29  30
ENDBRANCH  28  29
ENDBRANCH  27  28
ENDBRANCH  26  27
ENDBRANCH  25  26
ENDBRANCH  23  25
ENDBRANCH   8  23
TORSDOF 12
ENDMDL
MODEL 5
REMARK VINA RESULT:      -7.1      3.343      7.876
REMARK  Name = 
REMARK  15 active torsions:
REMARK  status: ('A' for Active; 'I' for Inactive)
REMARK    1  A    between atoms: C_1  and  O_2
REMARK    2  A    between atoms: O_2  and  C_3
REMARK    3  A    between atoms: C_5  and  C_6
REMARK    4  A    between atoms: C_6  and  C_8
REMARK    5  A    between atoms: C_15  and  C_16
REMARK    6  A    between atoms: C_16  and  O_18
REMARK    7  A    between atoms: O_18  and  C_19
REMARK    8  A    between atoms: C_19  and  C_20
REMARK    9  A    between atoms: C_20  and  C_21
REMARK   10  A    between atoms: C_21  and  C_22
REMARK   11  A    between atoms: C_22  and  C_23
REMARK   12  A    between atoms: C_30  and  O_31
REMARK   13  A    between atoms: O_31  and  C_32
REMARK   14  A    between atoms: C_33  and  O_34
REMARK   15  A    between atoms: O_34  and  C_35
REMARK                            x       y       z     vdW  Elec       q    Type
REMARK                         _______ _______ _______ _____ _____    ______ ____
ROOT
ATOM      1  C   UNL     1       3.464   4.971  17.828  0.00  0.00    +0.000 C 
ATOM      2  O   UNL     1       2.458   4.469  17.338  0.00  0.00    +0.000 OA
ATOM      3  N   UNL     1       4.698   5.048  17.180  0.00  0.00    +0.000 N 
ATOM      4  C   UNL     1       4.800   4.568  15.805  0.00  0.00    +0.000 C 
ATOM      5  C   UNL     1       5.941   3.569  15.662  0.00  0.00    +0.000 C 
ATOM      6  C   UNL     1       7.259   4.130  16.199  0.00  0.00    +0.000 C 
ATOM      7  C   UNL     1       7.094   4.666  17.620  0.00  0.00    +0.000 C 
ATOM      8  C   UNL     1       5.928   5.652  17.733  0.00  0.00    +0.000 C 
ENDROOT
BRANCH   1   9
ATOM      9  C   UNL     1       3.333   5.550  19.230  0.00  0.00    +0.000 C 
ATOM     10  O   UNL     1       3.840   4.956  20.172  0.00  0.00    +0.000 OA
BRANCH   9  13
ATOM     11  C   UNL     1       1.918   8.975  18.470  0.00  0.00    +0.000 A 
ATOM     12  C   UNL     1       2.712   7.816  18.429  0.00  0.00    +0.000 A 
ATOM     13  C   UNL     1       2.622   6.845  19.427  0.00  0.00    +0.000 A 
ATOM     14  C   UNL     1       1.812   7.093  20.531  0.00  0.00    +0.000 A 
ATOM     15  C   UNL     1       1.063   8.277  20.630  0.00  0.00    +0.000 A 
ATOM     16  C   UNL     1       1.102   9.237  19.594  0.00  0.00    +0.000 A 
BRANCH  11  18
ATOM     17  C   UNL     1       2.503  11.155  17.727  0.00  0.00    +0.000 C 
ATOM     18  O   UNL     1       1.948   9.871  17.431  0.00  0.00    +0.000 OA
ENDBRANCH  11  18
BRANCH  15  19
ATOM     19  O   UNL     1       0.332   8.296  21.793  0.00  0.00    +0.000 OA
ATOM     20  C   UNL     1       0.639   9.238  22.808  0.00  0.00    +0.000 C 
ENDBRANCH  15  19
BRANCH  16  21
ATOM     21  O   UNL     1       0.345  10.361  19.793  0.00  0.00    +0.000 OA
ATOM     22  C   UNL     1      -0.973  10.461  19.281  0.00  0.00    +0.000 C 
ENDBRANCH  16  21
ENDBRANCH   9  13
ENDBRANCH   1   9
BRANCH   8  23
ATOM     23  C   UNL     1       6.277   7.032  17.136  0.00  0.00    +0.000 C 
ATOM     24  O   UNL     1       5.475   7.766  16.567  0.00  0.00    +0.000 OA
BRANCH  23  25
ATOM     25  O   UNL     1       7.630   7.213  17.104  0.00  0.00    +0.000 OA
BRANCH  25  26
ATOM     26  C   UNL     1       8.119   7.980  18.203  0.00  0.00    +0.000 C 
BRANCH  26  27
ATOM     27  C   UNL     1       8.047   9.484  17.969  0.00  0.00    +0.000 C 
BRANCH  27  28
ATOM     28  C   UNL     1       9.227  10.120  18.708  0.00  0.00    +0.000 C 
BRANCH  28  29
ATOM     29  C   UNL     1       9.922  11.239  17.938  0.00  0.00    +0.000 C 
BRANCH  29  30
ATOM     30  C   UNL     1      10.673  12.211  18.882  0.00  0.00    +0.000 C 
ATOM     31  C   UNL     1      10.108  13.645  18.908  0.00  0.00    +0.000 C 
ATOM     32  C   UNL     1       8.771  13.759  19.639  0.00  0.00    +0.000 C 
ATOM     33  C   UNL     1       8.825  13.146  21.036  0.00  0.00    +0.000 C 
ATOM     34  C   UNL     1       9.379  11.726  21.024  0.00  0.00    +0.000 C 
ATOM     35  C   UNL     1      10.729  11.657  20.314  0.00  0.00    +0.000 C 
ENDBRANCH  29  30
ENDBRANCH  28  29
ENDBRANCH  27  28
ENDBRANCH  26  27
ENDBRANCH  25  26
ENDBRANCH  23  25
ENDBRANCH   8  23
TORSDOF 12
ENDMDL
MODEL 6
REMARK VINA RESULT:      -7.1      3.769      8.064
REMARK  Name = 
REMARK  15 active torsions:
REMARK  status: ('A' for Active; 'I' for Inactive)
REMARK    1  A    between atoms: C_1  and  O_2
REMARK    2  A    between atoms: O_2  and  C_3
REMARK    3  A    between atoms: C_5  and  C_6
REMARK    4  A    between atoms: C_6  and  C_8
REMARK    5  A    between atoms: C_15  and  C_16
REMARK    6  A    between atoms: C_16  and  O_18
REMARK    7  A    between atoms: O_18  and  C_19
REMARK    8  A    between atoms: C_19  and  C_20
REMARK    9  A    between atoms: C_20  and  C_21
REMARK   10  A    between atoms: C_21  and  C_22
REMARK   11  A    between atoms: C_22  and  C_23
REMARK   12  A    between atoms: C_30  and  O_31
REMARK   13  A    between atoms: O_31  and  C_32
REMARK   14  A    between atoms: C_33  and  O_34
REMARK   15  A    between atoms: O_34  and  C_35
REMARK                            x       y       z     vdW  Elec       q    Type
REMARK                         _______ _______ _______ _____ _____    ______ ____
ROOT
ATOM      1  C   UNL     1       3.377   5.184  17.837  0.00  0.00    +0.000 C 
ATOM      2  O   UNL     1       2.375   4.756  17.275  0.00  0.00    +0.000 OA
ATOM      3  N   UNL     1       4.648   5.214  17.261  0.00  0.00    +0.000 N 
ATOM      4  C   UNL     1       4.801   4.777  15.876  0.00  0.00    +0.000 C 
ATOM      5  C   UNL     1       5.894   3.721  15.759  0.00  0.00    +0.000 C 
ATOM      6  C   UNL     1       7.207   4.190  16.387  0.00  0.00    +0.000 C 
ATOM      7  C   UNL     1       6.992   4.685  17.815  0.00  0.00    +0.000 C 
ATOM      8  C   UNL     1       5.876   5.730  17.901  0.00  0.00    +0.000 C 
ENDROOT
BRANCH   1   9
ATOM      9  C   UNL     1       3.199   5.722  19.250  0.00  0.00    +0.000 C 
ATOM     10  O   UNL     1       3.675   5.101  20.191  0.00  0.00    +0.000 OA
BRANCH   9  13
ATOM     11  C   UNL     1       1.755   9.142  18.524  0.00  0.00    +0.000 A 
ATOM     12  C   UNL     1       2.556   7.989  18.468  0.00  0.00    +0.000 A 
ATOM     13  C   UNL     1       2.482   7.011  19.461  0.00  0.00    +0.000 A 
ATOM     14  C   UNL     1       1.679   7.247  20.573  0.00  0.00    +0.000 A 
ATOM     15  C   UNL     1       0.923   8.426  20.686  0.00  0.00    +0.000 A 
ATOM     16  C   UNL     1       0.948   9.392  19.656  0.00  0.00    +0.000 A 
BRANCH  11  18
ATOM     17  C   UNL     1       2.627  11.177  17.659  0.00  0.00    +0.000 C 
ATOM     18  O   UNL     1       1.770  10.045  17.490  0.00  0.00    +0.000 OA
ENDBRANCH  11  18
BRANCH  15  19
ATOM     19  O   UNL     1       0.202   8.432  21.856  0.00  0.00    +0.000 OA
ATOM     20  C   UNL     1       0.641   9.215  22.955  0.00  0.00    +0.000 C 
ENDBRANCH  15  19
BRANCH  16  21
ATOM     21  O   UNL     1       0.185  10.509  19.868  0.00  0.00    +0.000 OA
ATOM     22  C   UNL     1       0.730  11.670  20.472  0.00  0.00    +0.000 C 
ENDBRANCH  16  21
ENDBRANCH   9  13
ENDBRANCH   1   9
BRANCH   8  23
ATOM     23  C   UNL     1       6.332   7.108  17.375  0.00  0.00    +0.000 C 
ATOM     24  O   UNL     1       5.844   7.676  16.404  0.00  0.00    +0.000 OA
BRANCH  23  25
ATOM     25  O   UNL     1       7.498   7.489  17.974  0.00  0.00    +0.000 OA
BRANCH  25  26
ATOM     26  C   UNL     1       7.903   8.812  17.625  0.00  0.00    +0.000 C 
BRANCH  26  27
ATOM     27  C   UNL     1       8.767   9.479  18.689  0.00  0.00    +0.000 C 
BRANCH  27  28
ATOM     28  C   UNL     1       9.223  10.828  18.128  0.00  0.00    +0.000 C 
BRANCH  28  29
ATOM     29  C   UNL     1      10.288  11.529  18.965  0.00  0.00    +0.000 C 
BRANCH  29  30
ATOM     30  C   UNL     1       9.688  12.661  19.837  0.00  0.00    +0.000 C 
ATOM     31  C   UNL     1      10.731  13.514  20.585  0.00  0.00    +0.000 C 
ATOM     32  C   UNL     1      11.517  14.454  19.672  0.00  0.00    +0.000 C 
ATOM     33  C   UNL     1      10.601  15.312  18.804  0.00  0.00    +0.000 C 
ATOM     34  C   UNL     1       9.567  14.480  18.055  0.00  0.00    +0.000 C 
ATOM     35  C   UNL     1       8.780  13.577  19.002  0.00  0.00    +0.000 C 
ENDBRANCH  29  30
ENDBRANCH  28  29
ENDBRANCH  27  28
ENDBRANCH  26  27
ENDBRANCH  25  26
ENDBRANCH  23  25
ENDBRANCH   8  23
TORSDOF 12
ENDMDL
MODEL 7
REMARK VINA RESULT:      -7.0      4.752      9.876
REMARK  Name = 
REMARK  15 active torsions:
REMARK  status: ('A' for Active; 'I' for Inactive)
REMARK    1  A    between atoms: C_1  and  O_2
REMARK    2  A    between atoms: O_2  and  C_3
REMARK    3  A    between atoms: C_5  and  C_6
REMARK    4  A    between atoms: C_6  and  C_8
REMARK    5  A    between atoms: C_15  and  C_16
REMARK    6  A    between atoms: C_16  and  O_18
REMARK    7  A    between atoms: O_18  and  C_19
REMARK    8  A    between atoms: C_19  and  C_20
REMARK    9  A    between atoms: C_20  and  C_21
REMARK   10  A    between atoms: C_21  and  C_22
REMARK   11  A    between atoms: C_22  and  C_23
REMARK   12  A    between atoms: C_30  and  O_31
REMARK   13  A    between atoms: O_31  and  C_32
REMARK   14  A    between atoms: C_33  and  O_34
REMARK   15  A    between atoms: O_34  and  C_35
REMARK                            x       y       z     vdW  Elec       q    Type
REMARK                         _______ _______ _______ _____ _____    ______ ____
ROOT
ATOM      1  C   UNL     1       0.027  12.663  18.867  0.00  0.00    +0.000 C 
ATOM      2  O   UNL     1      -0.523  13.176  17.898  0.00  0.00    +0.000 OA
ATOM      3  N   UNL     1      -0.653  12.079  19.937  0.00  0.00    +0.000 N 
ATOM      4  C   UNL     1      -2.110  12.001  19.883  0.00  0.00    +0.000 C 
ATOM      5  C   UNL     1      -2.731  12.591  21.143  0.00  0.00    +0.000 C 
ATOM      6  C   UNL     1      -2.145  11.970  22.411  0.00  0.00    +0.000 C 
ATOM      7  C   UNL     1      -0.618  12.028  22.402  0.00  0.00    +0.000 C 
ATOM      8  C   UNL     1      -0.027  11.444  21.115  0.00  0.00    +0.000 C 
ENDROOT
BRANCH   1   9
ATOM      9  C   UNL     1       1.549  12.667  18.879  0.00  0.00    +0.000 C 
ATOM     10  O   UNL     1       2.154  11.737  18.363  0.00  0.00    +0.000 OA
BRANCH   9  13
ATOM     11  C   UNL     1       3.515  14.702  21.390  0.00  0.00    +0.000 A 
ATOM     12  C   UNL     1       2.668  13.735  20.820  0.00  0.00    +0.000 A 
ATOM     13  C   UNL     1       2.277  13.819  19.484  0.00  0.00    +0.000 A 
ATOM     14  C   UNL     1       2.647  14.940  18.746  0.00  0.00    +0.000 A 
ATOM     15  C   UNL     1       3.434  15.956  19.316  0.00  0.00    +0.000 A 
ATOM     16  C   UNL     1       3.884  15.848  20.650  0.00  0.00    +0.000 A 
BRANCH  11  18
ATOM     17  C   UNL     1       5.274  13.984  22.819  0.00  0.00    +0.000 C 
ATOM     18  O   UNL     1       3.969  14.550  22.677  0.00  0.00    +0.000 OA
ENDBRANCH  11  18
BRANCH  15  19
ATOM     19  O   UNL     1       3.683  16.949  18.401  0.00  0.00    +0.000 OA
ATOM     20  C   UNL     1       2.860  17.078  17.252  0.00  0.00    +0.000 C 
ENDBRANCH  15  19
BRANCH  16  21
ATOM     21  O   UNL     1       4.635  16.895  21.113  0.00  0.00    +0.000 OA
ATOM     22  C   UNL     1       4.036  17.993  21.780  0.00  0.00    +0.000 C 
ENDBRANCH  16  21
ENDBRANCH   9  13
ENDBRANCH   1   9
BRANCH   8  23
ATOM     23  C   UNL     1      -0.079   9.901  21.104  0.00  0.00    +0.000 C 
ATOM     24  O   UNL     1      -0.388   9.209  22.068  0.00  0.00    +0.000 OA
BRANCH  23  25
ATOM     25  O   UNL     1       0.498   9.410  19.968  0.00  0.00    +0.000 OA
BRANCH  25  26
ATOM     26  C   UNL     1       1.469   8.396  20.224  0.00  0.00    +0.000 C 
BRANCH  26  27
ATOM     27  C   UNL     1       2.051   7.783  18.956  0.00  0.00    +0.000 C 
BRANCH  27  28
ATOM     28  C   UNL     1       2.955   6.625  19.380  0.00  0.00    +0.000 C 
BRANCH  28  29
ATOM     29  C   UNL     1       2.230   5.493  20.102  0.00  0.00    +0.000 C 
BRANCH  29  30
ATOM     30  C   UNL     1       1.378   4.639  19.130  0.00  0.00    +0.000 C 
ATOM     31  C   UNL     1       2.077   4.288  17.802  0.00  0.00    +0.000 C 
ATOM     32  C   UNL     1       3.186   3.248  17.954  0.00  0.00    +0.000 C 
ATOM     33  C   UNL     1       2.706   1.999  18.687  0.00  0.00    +0.000 C 
ATOM     34  C   UNL     1       2.016   2.331  20.005  0.00  0.00    +0.000 C 
ATOM     35  C   UNL     1       0.894   3.348  19.810  0.00  0.00    +0.000 C 
ENDBRANCH  29  30
ENDBRANCH  28  29
ENDBRANCH  27  28
ENDBRANCH  26  27
ENDBRANCH  25  26
ENDBRANCH  23  25
ENDBRANCH   8  23
TORSDOF 12
ENDMDL
MODEL 8
REMARK VINA RESULT:      -7.0      3.505      7.038
REMARK  Name = 
REMARK  15 active torsions:
REMARK  status: ('A' for Active; 'I' for Inactive)
REMARK    1  A    between atoms: C_1  and  O_2
REMARK    2  A    between atoms: O_2  and  C_3
REMARK    3  A    between atoms: C_5  and  C_6
REMARK    4  A    between atoms: C_6  and  C_8
REMARK    5  A    between atoms: C_15  and  C_16
REMARK    6  A    between atoms: C_16  and  O_18
REMARK    7  A    between atoms: O_18  and  C_19
REMARK    8  A    between atoms: C_19  and  C_20
REMARK    9  A    between atoms: C_20  and  C_21
REMARK   10  A    between atoms: C_21  and  C_22
REMARK   11  A    between atoms: C_22  and  C_23
REMARK   12  A    between atoms: C_30  and  O_31
REMARK   13  A    between atoms: O_31  and  C_32
REMARK   14  A    between atoms: C_33  and  O_34
REMARK   15  A    between atoms: O_34  and  C_35
REMARK                            x       y       z     vdW  Elec       q    Type
REMARK                         _______ _______ _______ _____ _____    ______ ____
ROOT
ATOM      1  C   UNL     1       1.151   9.558  21.548  0.00  0.00    +0.000 C 
ATOM      2  O   UNL     1       2.113   9.701  22.294  0.00  0.00    +0.000 OA
ATOM      3  N   UNL     1       0.532  10.601  20.857  0.00  0.00    +0.000 N 
ATOM      4  C   UNL     1       1.095  11.944  20.963  0.00  0.00    +0.000 C 
ATOM      5  C   UNL     1       0.027  12.949  21.375  0.00  0.00    +0.000 C 
ATOM      6  C   UNL     1      -1.198  12.884  20.463  0.00  0.00    +0.000 C 
ATOM      7  C   UNL     1      -1.723  11.455  20.342  0.00  0.00    +0.000 C 
ATOM      8  C   UNL     1      -0.622  10.468  19.944  0.00  0.00    +0.000 C 
ENDROOT
BRANCH   1   9
ATOM      9  C   UNL     1       0.619   8.142  21.371  0.00  0.00    +0.000 C 
ATOM     10  O   UNL     1      -0.470   7.848  21.844  0.00  0.00    +0.000 OA
BRANCH   9  13
ATOM     11  C   UNL     1       1.937   4.806  20.169  0.00  0.00    +0.000 A 
ATOM     12  C   UNL     1       1.363   5.808  20.971  0.00  0.00    +0.000 A 
ATOM     13  C   UNL     1       1.415   7.150  20.594  0.00  0.00    +0.000 A 
ATOM     14  C   UNL     1       2.146   7.500  19.462  0.00  0.00    +0.000 A 
ATOM     15  C   UNL     1       2.790   6.523  18.684  0.00  0.00    +0.000 A 
ATOM     16  C   UNL     1       2.690   5.156  19.026  0.00  0.00    +0.000 A 
BRANCH  11  18
ATOM     17  C   UNL     1       2.194   3.125  21.830  0.00  0.00    +0.000 C 
ATOM     18  O   UNL     1       1.790   3.483  20.506  0.00  0.00    +0.000 OA
ENDBRANCH  11  18
BRANCH  15  19
ATOM     19  O   UNL     1       3.435   7.098  17.616  0.00  0.00    +0.000 OA
ATOM     20  C   UNL     1       4.845   6.997  17.501  0.00  0.00    +0.000 C 
ENDBRANCH  15  19
BRANCH  16  21
ATOM     21  O   UNL     1       3.363   4.286  18.211  0.00  0.00    +0.000 OA
ATOM     22  C   UNL     1       2.708   3.619  17.144  0.00  0.00    +0.000 C 
ENDBRANCH  16  21
ENDBRANCH   9  13
ENDBRANCH   1   9
BRANCH   8  23
ATOM     23  C   UNL     1      -0.259  10.579  18.447  0.00  0.00    +0.000 C 
ATOM     24  O   UNL     1       0.872  10.438  17.995  0.00  0.00    +0.000 OA
BRANCH  23  25
ATOM     25  O   UNL     1      -1.305  11.092  17.736  0.00  0.00    +0.000 OA
BRANCH  25  26
ATOM     26  C   UNL     1      -1.845  10.173  16.788  0.00  0.00    +0.000 C 
BRANCH  26  27
ATOM     27  C   UNL     1      -3.310   9.838  17.037  0.00  0.00    +0.000 C 
BRANCH  27  28
ATOM     28  C   UNL     1      -4.028  11.148  17.371  0.00  0.00    +0.000 C 
BRANCH  28  29
ATOM     29  C   UNL     1      -5.001  11.050  18.543  0.00  0.00    +0.000 C 
BRANCH  29  30
ATOM     30  C   UNL     1      -5.748  12.386  18.788  0.00  0.00    +0.000 C 
ATOM     31  C   UNL     1      -7.262  12.237  19.037  0.00  0.00    +0.000 C 
ATOM     32  C   UNL     1      -7.598  11.645  20.404  0.00  0.00    +0.000 C 
ATOM     33  C   UNL     1      -6.909  12.394  21.541  0.00  0.00    +0.000 C 
ATOM     34  C   UNL     1      -5.410  12.545  21.309  0.00  0.00    +0.000 C 
ATOM     35  C   UNL     1      -5.113  13.169  19.948  0.00  0.00    +0.000 C 
ENDBRANCH  29  30
ENDBRANCH  28  29
ENDBRANCH  27  28
ENDBRANCH  26  27
ENDBRANCH  25  26
ENDBRANCH  23  25
ENDBRANCH   8  23
TORSDOF 12
ENDMDL
MODEL 9
REMARK VINA RESULT:      -6.9      5.003     10.071
REMARK  Name = 
REMARK  15 active torsions:
REMARK  status: ('A' for Active; 'I' for Inactive)
REMARK    1  A    between atoms: C_1  and  O_2
REMARK    2  A    between atoms: O_2  and  C_3
REMARK    3  A    between atoms: C_5  and  C_6
REMARK    4  A    between atoms: C_6  and  C_8
REMARK    5  A    between atoms: C_15  and  C_16
REMARK    6  A    between atoms: C_16  and  O_18
REMARK    7  A    between atoms: O_18  and  C_19
REMARK    8  A    between atoms: C_19  and  C_20
REMARK    9  A    between atoms: C_20  and  C_21
REMARK   10  A    between atoms: C_21  and  C_22
REMARK   11  A    between atoms: C_22  and  C_23
REMARK   12  A    between atoms: C_30  and  O_31
REMARK   13  A    between atoms: O_31  and  C_32
REMARK   14  A    between atoms: C_33  and  O_34
REMARK   15  A    between atoms: O_34  and  C_35
REMARK                            x       y       z     vdW  Elec       q    Type
REMARK                         _______ _______ _______ _____ _____    ______ ____
ROOT
ATOM      1  C   UNL     1      -0.010  12.837  18.677  0.00  0.00    +0.000 C 
ATOM      2  O   UNL     1      -0.639  13.277  17.720  0.00  0.00    +0.000 OA
ATOM      3  N   UNL     1      -0.595  12.218  19.783  0.00  0.00    +0.000 N 
ATOM      4  C   UNL     1      -2.040  12.009  19.786  0.00  0.00    +0.000 C 
ATOM      5  C   UNL     1      -2.667  12.569  21.057  0.00  0.00    +0.000 C 
ATOM      6  C   UNL     1      -1.981  12.031  22.314  0.00  0.00    +0.000 C 
ATOM      7  C   UNL     1      -0.468  12.225  22.245  0.00  0.00    +0.000 C 
ATOM      8  C   UNL     1       0.127  11.668  20.949  0.00  0.00    +0.000 C 
ENDROOT
BRANCH   1   9
ATOM      9  C   UNL     1       1.505  12.978  18.631  0.00  0.00    +0.000 C 
ATOM     10  O   UNL     1       2.180  12.047  18.212  0.00  0.00    +0.000 OA
BRANCH   9  13
ATOM     11  C   UNL     1       4.006  15.809  18.839  0.00  0.00    +0.000 A 
ATOM     12  C   UNL     1       3.431  14.544  18.624  0.00  0.00    +0.000 A 
ATOM     13  C   UNL     1       2.138  14.257  19.062  0.00  0.00    +0.000 A 
ATOM     14  C   UNL     1       1.461  15.207  19.820  0.00  0.00    +0.000 A 
ATOM     15  C   UNL     1       2.044  16.453  20.111  0.00  0.00    +0.000 A 
ATOM     16  C   UNL     1       3.329  16.773  19.619  0.00  0.00    +0.000 A 
BRANCH  11  18
ATOM     17  C   UNL     1       6.365  15.590  19.032  0.00  0.00    +0.000 C 
ATOM     18  O   UNL     1       5.240  16.105  18.316  0.00  0.00    +0.000 OA
ENDBRANCH  11  18
BRANCH  15  19
ATOM     19  O   UNL     1       1.190  17.228  20.857  0.00  0.00    +0.000 OA
ATOM     20  C   UNL     1       1.103  17.038  22.260  0.00  0.00    +0.000 C 
ENDBRANCH  15  19
BRANCH  16  21
ATOM     21  O   UNL     1       3.811  18.006  19.967  0.00  0.00    +0.000 OA
ATOM     22  C   UNL     1       4.589  18.190  21.137  0.00  0.00    +0.000 C 
ENDBRANCH  16  21
ENDBRANCH   9  13
ENDBRANCH   1   9
BRANCH   8  23
ATOM     23  C   UNL     1       0.215  10.127  20.968  0.00  0.00    +0.000 C 
ATOM     24  O   UNL     1       0.364   9.453  21.982  0.00  0.00    +0.000 OA
BRANCH  23  25
ATOM     25  O   UNL     1       0.353   9.638  19.701  0.00  0.00    +0.000 OA
BRANCH  25  26
ATOM     26  C   UNL     1       1.506   8.813  19.540  0.00  0.00    +0.000 C 
BRANCH  26  27
ATOM     27  C   UNL     1       1.878   8.573  18.081  0.00  0.00    +0.000 C 
BRANCH  27  28
ATOM     28  C   UNL     1       2.864   7.405  18.047  0.00  0.00    +0.000 C 
BRANCH  28  29
ATOM     29  C   UNL     1       2.208   6.027  18.050  0.00  0.00    +0.000 C 
BRANCH  29  30
ATOM     30  C   UNL     1       2.921   5.048  19.015  0.00  0.00    +0.000 C 
ATOM     31  C   UNL     1       2.221   4.865  20.376  0.00  0.00    +0.000 C 
ATOM     32  C   UNL     1       0.931   4.051  20.292  0.00  0.00    +0.000 C 
ATOM     33  C   UNL     1       1.137   2.718  19.579  0.00  0.00    +0.000 C 
ATOM     34  C   UNL     1       1.826   2.885  18.229  0.00  0.00    +0.000 C 
ATOM     35  C   UNL     1       3.126   3.674  18.357  0.00  0.00    +0.000 C 
ENDBRANCH  29  30
ENDBRANCH  28  29
ENDBRANCH  27  28
ENDBRANCH  26  27
ENDBRANCH  25  26
ENDBRANCH  23  25
ENDBRANCH   8  23
TORSDOF 12
ENDMDL
