MODEL 1
REMARK VINA RESULT:      -8.4      0.000      0.000
REMARK  Name = 
REMARK  8 active torsions:
REMARK  status: ('A' for Active; 'I' for Inactive)
REMARK    1  A    between atoms: C_1  and  C_2
REMARK    2  A    between atoms: N_4  and  C_5
REMARK    3  A    between atoms: C_5  and  C_6
REMARK    4  A    between atoms: C_6  and  N_7
REMARK    5  A    between atoms: N_7  and  C_8
REMARK    6  A    between atoms: C_8  and  C_9
REMARK    7  A    between atoms: C_15  and  C_17
REMARK    8  A    between atoms: N_19  and  C_20
REMARK                            x       y       z     vdW  Elec       q    Type
REMARK                         _______ _______ _______ _____ _____    ______ ____
ROOT
ATOM      1  N   UNL     1       6.215   4.604  17.263  0.00  0.00    +0.000 N 
ATOM      2  C   UNL     1       4.825   4.453  17.166  0.00  0.00    +0.000 C 
ATOM      3  O   UNL     1       4.290   3.904  16.197  0.00  0.00    +0.000 OA
ENDROOT
BRANCH   2   4
ATOM      4  C   UNL     1       3.932   4.943  18.232  0.00  0.00    +0.000 A 
ATOM      5  N   UNL     1       3.616   4.268  19.356  0.00  0.00    +0.000 NA
ATOM      6  N   UNL     1       2.754   5.080  20.008  0.00  0.00    +0.000 N 
ATOM      7  C   UNL     1       2.066   4.553  21.156  0.00  0.00    +0.000 C 
ATOM      8  C   UNL     1       2.643   6.312  19.433  0.00  0.00    +0.000 A 
ATOM      9  C   UNL     1       3.362   6.236  18.267  0.00  0.00    +0.000 A 
ATOM     10  C   UNL     1       3.450   7.390  17.344  0.00  0.00    +0.000 C 
ATOM     11  O   UNL     1       2.339   8.319  17.474  0.00  0.00    +0.000 OA
ATOM     12  C   UNL     1       1.853   8.507  18.753  0.00  0.00    +0.000 A 
ATOM     13  C   UNL     1       1.224   9.728  18.985  0.00  0.00    +0.000 A 
ATOM     14  C   UNL     1       0.723  10.014  20.253  0.00  0.00    +0.000 A 
ATOM     15  C   UNL     1       0.831   9.067  21.271  0.00  0.00    +0.000 A 
ATOM     16 BR   UNL     1       0.172   9.472  22.997  0.00  0.00    +0.000 Br
ATOM     17  C   UNL     1       1.433   7.827  21.042  0.00  0.00    +0.000 A 
ATOM     18  C   UNL     1       1.944   7.535  19.780  0.00  0.00    +0.000 A 
ENDBRANCH   2   4
BRANCH   1  19
ATOM     19  C   UNL     1       7.120   4.177  16.174  0.00  0.00    +0.000 C 
BRANCH  19  20
ATOM     20  C   UNL     1       6.918   4.773  14.764  0.00  0.00    +0.000 C 
BRANCH  20  24
ATOM     21  C   UNL     1       5.583   2.757  11.865  0.00  0.00    +0.000 C 
ATOM     22  C   UNL     1       6.429   3.792  12.554  0.00  0.00    +0.000 C 
ATOM     23  O   UNL     1       7.336   4.381  11.984  0.00  0.00    +0.000 OA
ATOM     24  N   UNL     1       6.063   4.014  13.863  0.00  0.00    +0.000 N 
ATOM     25  H   UNL     1       5.514   3.285  14.299  0.00  0.00    +0.000 HD
ENDBRANCH  20  24
ENDBRANCH  19  20
ENDBRANCH   1  19
BRANCH   1  26
ATOM     26  C   UNL     1       6.873   5.285  18.392  0.00  0.00    +0.000 C 
BRANCH  26  27
ATOM     27  C   UNL     1       7.389   6.706  18.190  0.00  0.00    +0.000 A 
ATOM     28  C   UNL     1       8.406   7.160  19.037  0.00  0.00    +0.000 A 
ATOM     29  C   UNL     1       8.838   8.480  18.945  0.00  0.00    +0.000 A 
ATOM     30  C   UNL     1       8.260   9.315  18.001  0.00  0.00    +0.000 A 
ATOM     31  C   UNL     1       7.275   8.789  17.185  0.00  0.00    +0.000 A 
ATOM     32  N   UNL     1       6.818   7.516  17.263  0.00  0.00    +0.000 NA
ENDBRANCH  26  27
ENDBRANCH   1  26
TORSDOF 6
ENDMDL
MODEL 2
REMARK VINA RESULT:      -8.2      2.022      3.807
REMARK  Name = 
REMARK  8 active torsions:
REMARK  status: ('A' for Active; 'I' for Inactive)
REMARK    1  A    between atoms: C_1  and  C_2
REMARK    2  A    between atoms: N_4  and  C_5
REMARK    3  A    between atoms: C_5  and  C_6
REMARK    4  A    between atoms: C_6  and  N_7
REMARK    5  A    between atoms: N_7  and  C_8
REMARK    6  A    between atoms: C_8  and  C_9
REMARK    7  A    between atoms: C_15  and  C_17
REMARK    8  A    between atoms: N_19  and  C_20
REMARK                            x       y       z     vdW  Elec       q    Type
REMARK                         _______ _______ _______ _____ _____    ______ ____
ROOT
ATOM      1  N   UNL     1       5.131   4.232  16.514  0.00  0.00    +0.000 N 
ATOM      2  C   UNL     1       5.444   4.984  17.654  0.00  0.00    +0.000 C 
ATOM      3  O   UNL     1       6.602   5.316  17.926  0.00  0.00    +0.000 OA
ENDROOT
BRANCH   2   4
ATOM      4  C   UNL     1       4.389   5.423  18.586  0.00  0.00    +0.000 A 
ATOM      5  N   UNL     1       4.049   4.798  19.731  0.00  0.00    +0.000 NA
ATOM      6  N   UNL     1       3.025   5.528  20.226  0.00  0.00    +0.000 N 
ATOM      7  C   UNL     1       2.297   4.997  21.348  0.00  0.00    +0.000 C 
ATOM      8  C   UNL     1       2.814   6.686  19.537  0.00  0.00    +0.000 A 
ATOM      9  C   UNL     1       3.653   6.624  18.453  0.00  0.00    +0.000 A 
ATOM     10  C   UNL     1       3.683   7.705  17.443  0.00  0.00    +0.000 C 
ATOM     11  O   UNL     1       2.452   8.478  17.388  0.00  0.00    +0.000 OA
ATOM     12  C   UNL     1       1.816   8.691  18.596  0.00  0.00    +0.000 A 
ATOM     13  C   UNL     1       1.011   9.827  18.660  0.00  0.00    +0.000 A 
ATOM     14  C   UNL     1       0.348  10.135  19.845  0.00  0.00    +0.000 A 
ATOM     15  C   UNL     1       0.475   9.291  20.949  0.00  0.00    +0.000 A 
ATOM     16 BR   UNL     1      -0.407   9.729  22.564  0.00  0.00    +0.000 Br
ATOM     17  C   UNL     1       1.254   8.133  20.887  0.00  0.00    +0.000 A 
ATOM     18  C   UNL     1       1.927   7.821  19.708  0.00  0.00    +0.000 A 
ENDBRANCH   2   4
BRANCH   1  19
ATOM     19  C   UNL     1       6.184   3.729  15.604  0.00  0.00    +0.000 C 
BRANCH  19  20
ATOM     20  C   UNL     1       6.406   4.446  14.256  0.00  0.00    +0.000 C 
BRANCH  20  24
ATOM     21  C   UNL     1       4.391   3.028  11.395  0.00  0.00    +0.000 C 
ATOM     22  C   UNL     1       5.631   3.365  12.178  0.00  0.00    +0.000 C 
ATOM     23  O   UNL     1       6.734   2.930  11.879  0.00  0.00    +0.000 OA
ATOM     24  N   UNL     1       5.395   4.218  13.233  0.00  0.00    +0.000 N 
ATOM     25  H   UNL     1       4.436   4.274  13.552  0.00  0.00    +0.000 HD
ENDBRANCH  20  24
ENDBRANCH  19  20
ENDBRANCH   1  19
BRANCH   1  26
ATOM     26  C   UNL     1       3.762   3.797  16.188  0.00  0.00    +0.000 C 
BRANCH  26  27
ATOM     27  C   UNL     1       2.949   3.076  17.257  0.00  0.00    +0.000 A 
ATOM     28  C   UNL     1       1.681   3.581  17.568  0.00  0.00    +0.000 A 
ATOM     29  C   UNL     1       0.947   3.008  18.603  0.00  0.00    +0.000 A 
ATOM     30  C   UNL     1       1.485   1.933  19.295  0.00  0.00    +0.000 A 
ATOM     31  C   UNL     1       2.734   1.474  18.916  0.00  0.00    +0.000 A 
ATOM     32  N   UNL     1       3.481   2.024  17.928  0.00  0.00    +0.000 NA
ENDBRANCH  26  27
ENDBRANCH   1  26
TORSDOF 6
ENDMDL
MODEL 3
REMARK VINA RESULT:      -8.2      2.092      3.760
REMARK  Name = 
REMARK  8 active torsions:
REMARK  status: ('A' for Active; 'I' for Inactive)
REMARK    1  A    between atoms: C_1  and  C_2
REMARK    2  A    between atoms: N_4  and  C_5
REMARK    3  A    between atoms: C_5  and  C_6
REMARK    4  A    between atoms: C_6  and  N_7
REMARK    5  A    between atoms: N_7  and  C_8
REMARK    6  A    between atoms: C_8  and  C_9
REMARK    7  A    between atoms: C_15  and  C_17
REMARK    8  A    between atoms: N_19  and  C_20
REMARK                            x       y       z     vdW  Elec       q    Type
REMARK                         _______ _______ _______ _____ _____    ______ ____
ROOT
ATOM      1  N   UNL     1       5.083   4.473  16.387  0.00  0.00    +0.000 N 
ATOM      2  C   UNL     1       5.388   5.238  17.521  0.00  0.00    +0.000 C 
ATOM      3  O   UNL     1       6.534   5.634  17.759  0.00  0.00    +0.000 OA
ENDROOT
BRANCH   2   4
ATOM      4  C   UNL     1       4.340   5.612  18.489  0.00  0.00    +0.000 A 
ATOM      5  N   UNL     1       4.037   4.931  19.613  0.00  0.00    +0.000 NA
ATOM      6  N   UNL     1       3.004   5.615  20.155  0.00  0.00    +0.000 N 
ATOM      7  C   UNL     1       2.311   5.021  21.267  0.00  0.00    +0.000 C 
ATOM      8  C   UNL     1       2.752   6.794  19.518  0.00  0.00    +0.000 A 
ATOM      9  C   UNL     1       3.572   6.797  18.419  0.00  0.00    +0.000 A 
ATOM     10  C   UNL     1       3.557   7.920  17.454  0.00  0.00    +0.000 C 
ATOM     11  O   UNL     1       2.307   8.662  17.451  0.00  0.00    +0.000 OA
ATOM     12  C   UNL     1       1.688   8.810  18.677  0.00  0.00    +0.000 A 
ATOM     13  C   UNL     1       0.857   9.922  18.802  0.00  0.00    +0.000 A 
ATOM     14  C   UNL     1       0.209  10.164  20.010  0.00  0.00    +0.000 A 
ATOM     15  C   UNL     1       0.376   9.279  21.076  0.00  0.00    +0.000 A 
ATOM     16 BR   UNL     1      -0.486   9.629  22.724  0.00  0.00    +0.000 Br
ATOM     17  C   UNL     1       1.183   8.145  20.954  0.00  0.00    +0.000 A 
ATOM     18  C   UNL     1       1.841   7.899  19.751  0.00  0.00    +0.000 A 
ENDBRANCH   2   4
BRANCH   1  19
ATOM     19  C   UNL     1       6.133   4.035  15.442  0.00  0.00    +0.000 C 
BRANCH  19  20
ATOM     20  C   UNL     1       5.862   4.146  13.927  0.00  0.00    +0.000 C 
BRANCH  20  24
ATOM     21  C   UNL     1       6.424   1.723  11.086  0.00  0.00    +0.000 C 
ATOM     22  C   UNL     1       5.669   2.720  11.922  0.00  0.00    +0.000 C 
ATOM     23  O   UNL     1       4.598   3.193  11.570  0.00  0.00    +0.000 OA
ATOM     24  N   UNL     1       6.294   3.018  13.113  0.00  0.00    +0.000 N 
ATOM     25  H   UNL     1       7.281   2.803  13.161  0.00  0.00    +0.000 HD
ENDBRANCH  20  24
ENDBRANCH  19  20
ENDBRANCH   1  19
BRANCH   1  26
ATOM     26  C   UNL     1       3.732   3.961  16.102  0.00  0.00    +0.000 C 
BRANCH  26  27
ATOM     27  C   UNL     1       2.959   3.272  17.222  0.00  0.00    +0.000 A 
ATOM     28  C   UNL     1       3.569   2.193  17.871  0.00  0.00    +0.000 A 
ATOM     29  C   UNL     1       2.859   1.479  18.833  0.00  0.00    +0.000 A 
ATOM     30  C   UNL     1       1.563   1.866  19.140  0.00  0.00    +0.000 A 
ATOM     31  C   UNL     1       1.035   2.956  18.472  0.00  0.00    +0.000 A 
ATOM     32  N   UNL     1       1.692   3.657  17.516  0.00  0.00    +0.000 NA
ENDBRANCH  26  27
ENDBRANCH   1  26
TORSDOF 6
ENDMDL
MODEL 4
REMARK VINA RESULT:      -7.5      2.145      3.952
REMARK  Name = 
REMARK  8 active torsions:
REMARK  status: ('A' for Active; 'I' for Inactive)
REMARK    1  A    between atoms: C_1  and  C_2
REMARK    2  A    between atoms: N_4  and  C_5
REMARK    3  A    between atoms: C_5  and  C_6
REMARK    4  A    between atoms: C_6  and  N_7
REMARK    5  A    between atoms: N_7  and  C_8
REMARK    6  A    between atoms: C_8  and  C_9
REMARK    7  A    between atoms: C_15  and  C_17
REMARK    8  A    between atoms: N_19  and  C_20
REMARK                            x       y       z     vdW  Elec       q    Type
REMARK                         _______ _______ _______ _____ _____    ______ ____
ROOT
ATOM      1  N   UNL     1       4.924   4.293  16.600  0.00  0.00    +0.000 N 
ATOM      2  C   UNL     1       5.243   5.087  17.710  0.00  0.00    +0.000 C 
ATOM      3  O   UNL     1       6.401   5.439  17.956  0.00  0.00    +0.000 OA
ENDROOT
BRANCH   2   4
ATOM      4  C   UNL     1       4.195   5.549  18.638  0.00  0.00    +0.000 A 
ATOM      5  N   UNL     1       3.840   4.931  19.783  0.00  0.00    +0.000 NA
ATOM      6  N   UNL     1       2.830   5.683  20.275  0.00  0.00    +0.000 N 
ATOM      7  C   UNL     1       2.089   5.168  21.396  0.00  0.00    +0.000 C 
ATOM      8  C   UNL     1       2.644   6.844  19.584  0.00  0.00    +0.000 A 
ATOM      9  C   UNL     1       3.484   6.763  18.503  0.00  0.00    +0.000 A 
ATOM     10  C   UNL     1       3.538   7.843  17.492  0.00  0.00    +0.000 C 
ATOM     11  O   UNL     1       2.323   8.640  17.432  0.00  0.00    +0.000 OA
ATOM     12  C   UNL     1       1.689   8.868  18.638  0.00  0.00    +0.000 A 
ATOM     13  C   UNL     1       0.907  10.020  18.699  0.00  0.00    +0.000 A 
ATOM     14  C   UNL     1       0.248  10.342  19.883  0.00  0.00    +0.000 A 
ATOM     15  C   UNL     1       0.355   9.497  20.988  0.00  0.00    +0.000 A 
ATOM     16 BR   UNL     1      -0.522   9.955  22.601  0.00  0.00    +0.000 Br
ATOM     17  C   UNL     1       1.111   8.324  20.929  0.00  0.00    +0.000 A 
ATOM     18  C   UNL     1       1.780   7.997  19.752  0.00  0.00    +0.000 A 
ENDBRANCH   2   4
BRANCH   1  19
ATOM     19  C   UNL     1       5.971   3.768  15.696  0.00  0.00    +0.000 C 
BRANCH  19  20
ATOM     20  C   UNL     1       6.021   4.281  14.241  0.00  0.00    +0.000 C 
BRANCH  20  24
ATOM     21  C   UNL     1       8.684   6.166  12.341  0.00  0.00    +0.000 C 
ATOM     22  C   UNL     1       7.679   5.076  12.596  0.00  0.00    +0.000 C 
ATOM     23  O   UNL     1       7.360   4.266  11.737  0.00  0.00    +0.000 OA
ATOM     24  N   UNL     1       7.185   5.078  13.881  0.00  0.00    +0.000 N 
ATOM     25  H   UNL     1       7.293   5.943  14.396  0.00  0.00    +0.000 HD
ENDBRANCH  20  24
ENDBRANCH  19  20
ENDBRANCH   1  19
BRANCH   1  26
ATOM     26  C   UNL     1       3.556   3.833  16.306  0.00  0.00    +0.000 C 
BRANCH  26  27
ATOM     27  C   UNL     1       2.785   3.086  17.390  0.00  0.00    +0.000 A 
ATOM     28  C   UNL     1       1.500   3.537  17.709  0.00  0.00    +0.000 A 
ATOM     29  C   UNL     1       0.803   2.940  18.756  0.00  0.00    +0.000 A 
ATOM     30  C   UNL     1       1.394   1.896  19.451  0.00  0.00    +0.000 A 
ATOM     31  C   UNL     1       2.658   1.490  19.063  0.00  0.00    +0.000 A 
ATOM     32  N   UNL     1       3.371   2.064  18.063  0.00  0.00    +0.000 NA
ENDBRANCH  26  27
ENDBRANCH   1  26
TORSDOF 6
ENDMDL
MODEL 5
REMARK VINA RESULT:      -7.4      2.671      5.620
REMARK  Name = 
REMARK  8 active torsions:
REMARK  status: ('A' for Active; 'I' for Inactive)
REMARK    1  A    between atoms: C_1  and  C_2
REMARK    2  A    between atoms: N_4  and  C_5
REMARK    3  A    between atoms: C_5  and  C_6
REMARK    4  A    between atoms: C_6  and  N_7
REMARK    5  A    between atoms: N_7  and  C_8
REMARK    6  A    between atoms: C_8  and  C_9
REMARK    7  A    between atoms: C_15  and  C_17
REMARK    8  A    between atoms: N_19  and  C_20
REMARK                            x       y       z     vdW  Elec       q    Type
REMARK                         _______ _______ _______ _____ _____    ______ ____
ROOT
ATOM      1  N   UNL     1       3.012   6.786  18.414  0.00  0.00    +0.000 N 
ATOM      2  C   UNL     1       2.413   8.040  18.235  0.00  0.00    +0.000 C 
ATOM      3  O   UNL     1       2.496   8.663  17.172  0.00  0.00    +0.000 OA
ENDROOT
BRANCH   2   4
ATOM      4  C   UNL     1       1.642   8.674  19.320  0.00  0.00    +0.000 A 
ATOM      5  N   UNL     1       1.898   8.545  20.638  0.00  0.00    +0.000 NA
ATOM      6  N   UNL     1       0.925   9.261  21.244  0.00  0.00    +0.000 N 
ATOM      7  C   UNL     1       0.797   9.153  22.673  0.00  0.00    +0.000 C 
ATOM      8  C   UNL     1       0.166   9.980  20.368  0.00  0.00    +0.000 A 
ATOM      9  C   UNL     1       0.582   9.589  19.120  0.00  0.00    +0.000 A 
ATOM     10  C   UNL     1      -0.042  10.139  17.896  0.00  0.00    +0.000 C 
ATOM     11  O   UNL     1      -1.394  10.632  18.109  0.00  0.00    +0.000 OA
ATOM     12  C   UNL     1      -1.632  11.239  19.327  0.00  0.00    +0.000 A 
ATOM     13  C   UNL     1      -2.670  12.170  19.343  0.00  0.00    +0.000 A 
ATOM     14  C   UNL     1      -2.967  12.848  20.522  0.00  0.00    +0.000 A 
ATOM     15  C   UNL     1      -2.242  12.573  21.682  0.00  0.00    +0.000 A 
ATOM     16 BR   UNL     1      -2.633  13.518  23.273  0.00  0.00    +0.000 Br
ATOM     17  C   UNL     1      -1.219  11.621  21.685  0.00  0.00    +0.000 A 
ATOM     18  C   UNL     1      -0.910  10.943  20.509  0.00  0.00    +0.000 A 
ENDBRANCH   2   4
BRANCH   1  19
ATOM     19  C   UNL     1       3.843   6.166  17.359  0.00  0.00    +0.000 C 
BRANCH  19  20
ATOM     20  C   UNL     1       5.165   5.479  17.762  0.00  0.00    +0.000 C 
BRANCH  20  24
ATOM     21  C   UNL     1       8.045   7.916  17.903  0.00  0.00    +0.000 C 
ATOM     22  C   UNL     1       7.207   6.799  17.344  0.00  0.00    +0.000 C 
ATOM     23  O   UNL     1       7.400   6.329  16.232  0.00  0.00    +0.000 OA
ATOM     24  N   UNL     1       6.234   6.358  18.214  0.00  0.00    +0.000 N 
ATOM     25  H   UNL     1       5.985   6.996  18.959  0.00  0.00    +0.000 HD
ENDBRANCH  20  24
ENDBRANCH  19  20
ENDBRANCH   1  19
BRANCH   1  26
ATOM     26  C   UNL     1       2.955   6.041  19.683  0.00  0.00    +0.000 C 
BRANCH  26  27
ATOM     27  C   UNL     1       2.162   4.739  19.734  0.00  0.00    +0.000 A 
ATOM     28  C   UNL     1       1.987   4.127  20.980  0.00  0.00    +0.000 A 
ATOM     29  C   UNL     1       1.350   2.891  21.055  0.00  0.00    +0.000 A 
ATOM     30  C   UNL     1       0.888   2.299  19.889  0.00  0.00    +0.000 A 
ATOM     31  C   UNL     1       1.079   2.974  18.697  0.00  0.00    +0.000 A 
ATOM     32  N   UNL     1       1.713   4.167  18.589  0.00  0.00    +0.000 NA
ENDBRANCH  26  27
ENDBRANCH   1  26
TORSDOF 6
ENDMDL
MODEL 6
REMARK VINA RESULT:      -7.3      5.171      9.526
REMARK  Name = 
REMARK  8 active torsions:
REMARK  status: ('A' for Active; 'I' for Inactive)
REMARK    1  A    between atoms: C_1  and  C_2
REMARK    2  A    between atoms: N_4  and  C_5
REMARK    3  A    between atoms: C_5  and  C_6
REMARK    4  A    between atoms: C_6  and  N_7
REMARK    5  A    between atoms: N_7  and  C_8
REMARK    6  A    between atoms: C_8  and  C_9
REMARK    7  A    between atoms: C_15  and  C_17
REMARK    8  A    between atoms: N_19  and  C_20
REMARK                            x       y       z     vdW  Elec       q    Type
REMARK                         _______ _______ _______ _____ _____    ______ ____
ROOT
ATOM      1  N   UNL     1      -0.278  12.851  19.114  0.00  0.00    +0.000 N 
ATOM      2  C   UNL     1       0.998  12.304  19.303  0.00  0.00    +0.000 C 
ATOM      3  O   UNL     1       2.025  12.892  18.947  0.00  0.00    +0.000 OA
ENDROOT
BRANCH   2   4
ATOM      4  C   UNL     1       1.173  10.990  19.948  0.00  0.00    +0.000 A 
ATOM      5  N   UNL     1       0.901  10.712  21.239  0.00  0.00    +0.000 NA
ATOM      6  N   UNL     1       1.244   9.413  21.387  0.00  0.00    +0.000 N 
ATOM      7  C   UNL     1       1.266   8.867  22.718  0.00  0.00    +0.000 C 
ATOM      8  C   UNL     1       1.558   8.807  20.206  0.00  0.00    +0.000 A 
ATOM      9  C   UNL     1       1.557   9.810  19.270  0.00  0.00    +0.000 A 
ATOM     10  C   UNL     1       1.890   9.538  17.854  0.00  0.00    +0.000 C 
ATOM     11  O   UNL     1       2.708   8.350  17.671  0.00  0.00    +0.000 OA
ATOM     12  C   UNL     1       2.445   7.295  18.524  0.00  0.00    +0.000 A 
ATOM     13  C   UNL     1       2.781   6.032  18.041  0.00  0.00    +0.000 A 
ATOM     14  C   UNL     1       2.530   4.907  18.823  0.00  0.00    +0.000 A 
ATOM     15  C   UNL     1       1.968   5.056  20.091  0.00  0.00    +0.000 A 
ATOM     16 BR   UNL     1       1.605   3.522  21.137  0.00  0.00    +0.000 Br
ATOM     17  C   UNL     1       1.655   6.320  20.598  0.00  0.00    +0.000 A 
ATOM     18  C   UNL     1       1.895   7.450  19.820  0.00  0.00    +0.000 A 
ENDBRANCH   2   4
BRANCH   1  19
ATOM     19  C   UNL     1      -0.474  14.138  18.411  0.00  0.00    +0.000 C 
BRANCH  19  20
ATOM     20  C   UNL     1      -0.329  15.451  19.209  0.00  0.00    +0.000 C 
BRANCH  20  24
ATOM     21  C   UNL     1       0.655  18.375  17.033  0.00  0.00    +0.000 C 
ATOM     22  C   UNL     1       0.840  17.301  18.070  0.00  0.00    +0.000 C 
ATOM     23  O   UNL     1       1.933  17.034  18.548  0.00  0.00    +0.000 OA
ATOM     24  N   UNL     1      -0.335  16.680  18.429  0.00  0.00    +0.000 N 
ATOM     25  H   UNL     1      -1.103  16.775  17.777  0.00  0.00    +0.000 HD
ENDBRANCH  20  24
ENDBRANCH  19  20
ENDBRANCH   1  19
BRANCH   1  26
ATOM     26  C   UNL     1      -1.517  12.153  19.498  0.00  0.00    +0.000 C 
BRANCH  26  27
ATOM     27  C   UNL     1      -2.319  11.436  18.418  0.00  0.00    +0.000 A 
ATOM     28  C   UNL     1      -1.651  10.503  17.617  0.00  0.00    +0.000 A 
ATOM     29  C   UNL     1      -2.325   9.897  16.560  0.00  0.00    +0.000 A 
ATOM     30  C   UNL     1      -3.655  10.221  16.334  0.00  0.00    +0.000 A 
ATOM     31  C   UNL     1      -4.254  11.135  17.182  0.00  0.00    +0.000 A 
ATOM     32  N   UNL     1      -3.620  11.758  18.204  0.00  0.00    +0.000 NA
ENDBRANCH  26  27
ENDBRANCH   1  26
TORSDOF 6
ENDMDL
MODEL 7
REMARK VINA RESULT:      -7.2      2.762      5.529
REMARK  Name = 
REMARK  8 active torsions:
REMARK  status: ('A' for Active; 'I' for Inactive)
REMARK    1  A    between atoms: C_1  and  C_2
REMARK    2  A    between atoms: N_4  and  C_5
REMARK    3  A    between atoms: C_5  and  C_6
REMARK    4  A    between atoms: C_6  and  N_7
REMARK    5  A    between atoms: N_7  and  C_8
REMARK    6  A    between atoms: C_8  and  C_9
REMARK    7  A    between atoms: C_15  and  C_17
REMARK    8  A    between atoms: N_19  and  C_20
REMARK                            x       y       z     vdW  Elec       q    Type
REMARK                         _______ _______ _______ _____ _____    ______ ____
ROOT
ATOM      1  N   UNL     1       2.820   7.079  18.431  0.00  0.00    +0.000 N 
ATOM      2  C   UNL     1       2.215   8.337  18.309  0.00  0.00    +0.000 C 
ATOM      3  O   UNL     1       2.284   9.002  17.270  0.00  0.00    +0.000 OA
ENDROOT
BRANCH   2   4
ATOM      4  C   UNL     1       1.454   8.925  19.427  0.00  0.00    +0.000 A 
ATOM      5  N   UNL     1       1.731   8.753  20.735  0.00  0.00    +0.000 NA
ATOM      6  N   UNL     1       0.761   9.438  21.381  0.00  0.00    +0.000 N 
ATOM      7  C   UNL     1       0.656   9.278  22.807  0.00  0.00    +0.000 C 
ATOM      8  C   UNL     1      -0.018  10.179  20.541  0.00  0.00    +0.000 A 
ATOM      9  C   UNL     1       0.383   9.836  19.275  0.00  0.00    +0.000 A 
ATOM     10  C   UNL     1      -0.265  10.422  18.080  0.00  0.00    +0.000 C 
ATOM     11  O   UNL     1      -1.618  10.893  18.330  0.00  0.00    +0.000 OA
ATOM     12  C   UNL     1      -1.844  11.455  19.572  0.00  0.00    +0.000 A 
ATOM     13  C   UNL     1      -2.890  12.374  19.636  0.00  0.00    +0.000 A 
ATOM     14  C   UNL     1      -3.176  13.008  20.842  0.00  0.00    +0.000 A 
ATOM     15  C   UNL     1      -2.430  12.700  21.981  0.00  0.00    +0.000 A 
ATOM     16 BR   UNL     1      -2.807  13.585  23.610  0.00  0.00    +0.000 Br
ATOM     17  C   UNL     1      -1.399  11.759  21.936  0.00  0.00    +0.000 A 
ATOM     18  C   UNL     1      -1.101  11.125  20.732  0.00  0.00    +0.000 A 
ENDBRANCH   2   4
BRANCH   1  19
ATOM     19  C   UNL     1       3.641   6.505  17.343  0.00  0.00    +0.000 C 
BRANCH  19  20
ATOM     20  C   UNL     1       5.166   6.742  17.359  0.00  0.00    +0.000 C 
BRANCH  20  24
ATOM     21  C   UNL     1       7.028   4.822  14.694  0.00  0.00    +0.000 C 
ATOM     22  C   UNL     1       6.601   5.187  16.089  0.00  0.00    +0.000 C 
ATOM     23  O   UNL     1       6.887   4.504  17.062  0.00  0.00    +0.000 OA
ATOM     24  N   UNL     1       5.887   6.363  16.151  0.00  0.00    +0.000 N 
ATOM     25  H   UNL     1       5.471   6.675  15.283  0.00  0.00    +0.000 HD
ENDBRANCH  20  24
ENDBRANCH  19  20
ENDBRANCH   1  19
BRANCH   1  26
ATOM     26  C   UNL     1       2.780   6.285  19.671  0.00  0.00    +0.000 C 
BRANCH  26  27
ATOM     27  C   UNL     1       2.048   4.946  19.660  0.00  0.00    +0.000 A 
ATOM     28  C   UNL     1       1.835   4.307  20.887  0.00  0.00    +0.000 A 
ATOM     29  C   UNL     1       1.255   3.041  20.910  0.00  0.00    +0.000 A 
ATOM     30  C   UNL     1       0.885   2.447  19.712  0.00  0.00    +0.000 A 
ATOM     31  C   UNL     1       1.108   3.150  18.542  0.00  0.00    +0.000 A 
ATOM     32  N   UNL     1       1.689   4.373  18.484  0.00  0.00    +0.000 NA
ENDBRANCH  26  27
ENDBRANCH   1  26
TORSDOF 6
ENDMDL
MODEL 8
REMARK VINA RESULT:      -7.2      2.927      5.748
REMARK  Name = 
REMARK  8 active torsions:
REMARK  status: ('A' for Active; 'I' for Inactive)
REMARK    1  A    between atoms: C_1  and  C_2
REMARK    2  A    between atoms: N_4  and  C_5
REMARK    3  A    between atoms: C_5  and  C_6
REMARK    4  A    between atoms: C_6  and  N_7
REMARK    5  A    between atoms: N_7  and  C_8
REMARK    6  A    between atoms: C_8  and  C_9
REMARK    7  A    between atoms: C_15  and  C_17
REMARK    8  A    between atoms: N_19  and  C_20
REMARK                            x       y       z     vdW  Elec       q    Type
REMARK                         _______ _______ _______ _____ _____    ______ ____
ROOT
ATOM      1  N   UNL     1       2.557   7.125  18.440  0.00  0.00    +0.000 N 
ATOM      2  C   UNL     1       2.086   8.443  18.389  0.00  0.00    +0.000 C 
ATOM      3  O   UNL     1       2.274   9.171  17.408  0.00  0.00    +0.000 OA
ENDROOT
BRANCH   2   4
ATOM      4  C   UNL     1       1.330   9.024  19.514  0.00  0.00    +0.000 A 
ATOM      5  N   UNL     1       1.602   8.828  20.820  0.00  0.00    +0.000 NA
ATOM      6  N   UNL     1       0.638   9.515  21.474  0.00  0.00    +0.000 N 
ATOM      7  C   UNL     1       0.528   9.335  22.897  0.00  0.00    +0.000 C 
ATOM      8  C   UNL     1      -0.129  10.278  20.644  0.00  0.00    +0.000 A 
ATOM      9  C   UNL     1       0.271   9.950  19.373  0.00  0.00    +0.000 A 
ATOM     10  C   UNL     1      -0.367  10.562  18.186  0.00  0.00    +0.000 C 
ATOM     11  O   UNL     1      -1.715  11.047  18.441  0.00  0.00    +0.000 OA
ATOM     12  C   UNL     1      -1.936  11.593  19.691  0.00  0.00    +0.000 A 
ATOM     13  C   UNL     1      -2.971  12.523  19.767  0.00  0.00    +0.000 A 
ATOM     14  C   UNL     1      -3.251  13.142  20.982  0.00  0.00    +0.000 A 
ATOM     15  C   UNL     1      -2.513  12.807  22.117  0.00  0.00    +0.000 A 
ATOM     16 BR   UNL     1      -2.882  13.672  23.759  0.00  0.00    +0.000 Br
ATOM     17  C   UNL     1      -1.493  11.854  22.060  0.00  0.00    +0.000 A 
ATOM     18  C   UNL     1      -1.200  11.235  20.847  0.00  0.00    +0.000 A 
ENDBRANCH   2   4
BRANCH   1  19
ATOM     19  C   UNL     1       3.373   6.549  17.348  0.00  0.00    +0.000 C 
BRANCH  19  20
ATOM     20  C   UNL     1       4.872   6.908  17.272  0.00  0.00    +0.000 C 
BRANCH  20  24
ATOM     21  C   UNL     1       7.878   5.590  19.138  0.00  0.00    +0.000 C 
ATOM     22  C   UNL     1       7.086   6.051  17.945  0.00  0.00    +0.000 C 
ATOM     23  O   UNL     1       7.596   6.233  16.849  0.00  0.00    +0.000 OA
ATOM     24  N   UNL     1       5.745   6.220  18.213  0.00  0.00    +0.000 N 
ATOM     25  H   UNL     1       5.498   6.324  19.188  0.00  0.00    +0.000 HD
ENDBRANCH  20  24
ENDBRANCH  19  20
ENDBRANCH   1  19
BRANCH   1  26
ATOM     26  C   UNL     1       2.375   6.251  19.612  0.00  0.00    +0.000 C 
BRANCH  26  27
ATOM     27  C   UNL     1       2.499   4.742  19.428  0.00  0.00    +0.000 A 
ATOM     28  C   UNL     1       1.341   4.023  19.113  0.00  0.00    +0.000 A 
ATOM     29  C   UNL     1       1.396   2.634  19.029  0.00  0.00    +0.000 A 
ATOM     30  C   UNL     1       2.607   1.993  19.244  0.00  0.00    +0.000 A 
ATOM     31  C   UNL     1       3.713   2.773  19.529  0.00  0.00    +0.000 A 
ATOM     32  N   UNL     1       3.688   4.123  19.639  0.00  0.00    +0.000 NA
ENDBRANCH  26  27
ENDBRANCH   1  26
TORSDOF 6
ENDMDL
MODEL 9
REMARK VINA RESULT:      -7.1      3.432      6.102
REMARK  Name = 
REMARK  8 active torsions:
REMARK  status: ('A' for Active; 'I' for Inactive)
REMARK    1  A    between atoms: C_1  and  C_2
REMARK    2  A    between atoms: N_4  and  C_5
REMARK    3  A    between atoms: C_5  and  C_6
REMARK    4  A    between atoms: C_6  and  N_7
REMARK    5  A    between atoms: N_7  and  C_8
REMARK    6  A    between atoms: C_8  and  C_9
REMARK    7  A    between atoms: C_15  and  C_17
REMARK    8  A    between atoms: N_19  and  C_20
REMARK                            x       y       z     vdW  Elec       q    Type
REMARK                         _______ _______ _______ _____ _____    ______ ____
ROOT
ATOM      1  N   UNL     1       2.575   7.656  18.508  0.00  0.00    +0.000 N 
ATOM      2  C   UNL     1       1.918   8.893  18.462  0.00  0.00    +0.000 C 
ATOM      3  O   UNL     1       1.967   9.627  17.470  0.00  0.00    +0.000 OA
ENDROOT
BRANCH   2   4
ATOM      4  C   UNL     1       1.123   9.373  19.607  0.00  0.00    +0.000 A 
ATOM      5  N   UNL     1       1.364   9.082  20.902  0.00  0.00    +0.000 NA
ATOM      6  N   UNL     1       0.372   9.701  21.580  0.00  0.00    +0.000 N 
ATOM      7  C   UNL     1       0.229   9.410  22.982  0.00  0.00    +0.000 C 
ATOM      8  C   UNL     1      -0.386  10.514  20.791  0.00  0.00    +0.000 A 
ATOM      9  C   UNL     1       0.052  10.291  19.510  0.00  0.00    +0.000 A 
ATOM     10  C   UNL     1      -0.566  10.982  18.356  0.00  0.00    +0.000 C 
ATOM     11  O   UNL     1      -1.928  11.425  18.610  0.00  0.00    +0.000 OA
ATOM     12  C   UNL     1      -2.191  11.870  19.892  0.00  0.00    +0.000 A 
ATOM     13  C   UNL     1      -3.244  12.775  20.011  0.00  0.00    +0.000 A 
ATOM     14  C   UNL     1      -3.567  13.294  21.262  0.00  0.00    +0.000 A 
ATOM     15  C   UNL     1      -2.852  12.885  22.387  0.00  0.00    +0.000 A 
ATOM     16 BR   UNL     1      -3.278  13.614  24.080  0.00  0.00    +0.000 Br
ATOM     17  C   UNL     1      -1.814  11.955  22.285  0.00  0.00    +0.000 A 
ATOM     18  C   UNL     1      -1.479  11.436  21.037  0.00  0.00    +0.000 A 
ENDBRANCH   2   4
BRANCH   1  19
ATOM     19  C   UNL     1       3.429   7.190  17.394  0.00  0.00    +0.000 C 
BRANCH  19  20
ATOM     20  C   UNL     1       4.771   6.502  17.725  0.00  0.00    +0.000 C 
BRANCH  20  24
ATOM     21  C   UNL     1       4.906   3.035  19.214  0.00  0.00    +0.000 C 
ATOM     22  C   UNL     1       5.305   4.473  19.023  0.00  0.00    +0.000 C 
ATOM     23  O   UNL     1       6.088   5.040  19.772  0.00  0.00    +0.000 OA
ATOM     24  N   UNL     1       4.721   5.060  17.923  0.00  0.00    +0.000 N 
ATOM     25  H   UNL     1       3.893   4.602  17.564  0.00  0.00    +0.000 HD
ENDBRANCH  20  24
ENDBRANCH  19  20
ENDBRANCH   1  19
BRANCH   1  26
ATOM     26  C   UNL     1       2.558   6.780  19.693  0.00  0.00    +0.000 C 
BRANCH  26  27
ATOM     27  C   UNL     1       1.919   5.401  19.575  0.00  0.00    +0.000 A 
ATOM     28  C   UNL     1       1.621   4.714  20.757  0.00  0.00    +0.000 A 
ATOM     29  C   UNL     1       1.124   3.415  20.690  0.00  0.00    +0.000 A 
ATOM     30  C   UNL     1       0.919   2.835  19.448  0.00  0.00    +0.000 A 
ATOM     31  C   UNL     1       1.216   3.584  18.323  0.00  0.00    +0.000 A 
ATOM     32  N   UNL     1       1.721   4.841  18.355  0.00  0.00    +0.000 NA
ENDBRANCH  26  27
ENDBRANCH   1  26
TORSDOF 6
ENDMDL
