MODEL 1
REMARK VINA RESULT:      -9.4      0.000      0.000
REMARK  Name = 
REMARK  8 active torsions:
REMARK  status: ('A' for Active; 'I' for Inactive)
REMARK    1  A    between atoms: C_1  and  O_2
REMARK    2  A    between atoms: O_2  and  C_3
REMARK    3  A    between atoms: C_6  and  C_7
REMARK    4  A    between atoms: C_12  and  C_13
REMARK    5  A    between atoms: C_14  and  C_15
REMARK    6  A    between atoms: N_17  and  C_18
REMARK    7  A    between atoms: C_25  and  O_26
REMARK    8  A    between atoms: O_26  and  C_27
REMARK                            x       y       z     vdW  Elec       q    Type
REMARK                         _______ _______ _______ _____ _____    ______ ____
ROOT
ATOM      1  C   UNL     1       4.851   4.307  19.316  0.00  0.00    +0.000 C 
ATOM      2  N   UNL     1       5.323   2.987  19.694  0.00  0.00    +0.000 N 
ATOM      3  C   UNL     1       4.631   2.101  20.439  0.00  0.00    +0.000 C 
ATOM      4  O   UNL     1       5.141   1.067  20.856  0.00  0.00    +0.000 OA
ATOM      5  N   UNL     1       3.331   2.409  20.673  0.00  0.00    +0.000 N 
ATOM      6  C   UNL     1       2.666   3.516  20.193  0.00  0.00    +0.000 C 
ATOM      7  C   UNL     1       1.198   3.554  20.543  0.00  0.00    +0.000 C 
ATOM      8  C   UNL     1       3.359   4.461  19.508  0.00  0.00    +0.000 C 
ATOM      9  H   UNL     1       6.287   2.735  19.519  0.00  0.00    +0.000 HD
ATOM     10  H   UNL     1       2.829   1.707  21.204  0.00  0.00    +0.000 HD
ENDROOT
BRANCH   1  14
ATOM     11  C   UNL     1       6.387   5.123  15.337  0.00  0.00    +0.000 A 
ATOM     12  C   UNL     1       5.488   4.066  15.552  0.00  0.00    +0.000 A 
ATOM     13  C   UNL     1       4.966   3.807  16.821  0.00  0.00    +0.000 A 
ATOM     14  C   UNL     1       5.376   4.571  17.917  0.00  0.00    +0.000 A 
ATOM     15  C   UNL     1       6.349   5.560  17.714  0.00  0.00    +0.000 A 
ATOM     16  C   UNL     1       6.852   5.855  16.439  0.00  0.00    +0.000 A 
BRANCH  11  18
ATOM     17  C   UNL     1       6.849   4.360  13.144  0.00  0.00    +0.000 C 
ATOM     18  O   UNL     1       6.835   5.436  14.083  0.00  0.00    +0.000 OA
ENDBRANCH  11  18
BRANCH  16  19
ATOM     19  O   UNL     1       7.743   6.892  16.482  0.00  0.00    +0.000 OA
ATOM     20  C   UNL     1       7.693   7.802  17.568  0.00  0.00    +0.000 C 
ENDBRANCH  16  19
ENDBRANCH   1  14
BRANCH   8  21
ATOM     21  C   UNL     1       2.615   5.684  19.017  0.00  0.00    +0.000 C 
ATOM     22  O   UNL     1       2.024   5.635  17.941  0.00  0.00    +0.000 OA
ATOM     23  N   UNL     1       2.669   6.829  19.786  0.00  0.00    +0.000 N 
ATOM     24  H   UNL     1       3.355   6.905  20.519  0.00  0.00    +0.000 HD
BRANCH  23  25
ATOM     25  C   UNL     1       1.940   8.021  19.530  0.00  0.00    +0.000 A 
ATOM     26  C   UNL     1       1.964   8.685  18.299  0.00  0.00    +0.000 A 
ATOM     27  C   UNL     1       1.230   9.858  18.098  0.00  0.00    +0.000 A 
ATOM     28  C   UNL     1       0.459  10.382  19.132  0.00  0.00    +0.000 A 
ATOM     29  C   UNL     1       0.410   9.722  20.358  0.00  0.00    +0.000 A 
ATOM     30  C   UNL     1       1.135   8.540  20.552  0.00  0.00    +0.000 A 
ENDBRANCH  23  25
ENDBRANCH   8  21
TORSDOF 5
ENDMDL
MODEL 2
REMARK VINA RESULT:      -7.4      1.411      2.576
REMARK  Name = 
REMARK  8 active torsions:
REMARK  status: ('A' for Active; 'I' for Inactive)
REMARK    1  A    between atoms: C_1  and  O_2
REMARK    2  A    between atoms: O_2  and  C_3
REMARK    3  A    between atoms: C_6  and  C_7
REMARK    4  A    between atoms: C_12  and  C_13
REMARK    5  A    between atoms: C_14  and  C_15
REMARK    6  A    between atoms: N_17  and  C_18
REMARK    7  A    between atoms: C_25  and  O_26
REMARK    8  A    between atoms: O_26  and  C_27
REMARK                            x       y       z     vdW  Elec       q    Type
REMARK                         _______ _______ _______ _____ _____    ______ ____
ROOT
ATOM      1  C   UNL     1       4.376   3.696  19.477  0.00  0.00    +0.000 C 
ATOM      2  N   UNL     1       4.685   2.399  18.902  0.00  0.00    +0.000 N 
ATOM      3  C   UNL     1       3.781   1.431  18.646  0.00  0.00    +0.000 C 
ATOM      4  O   UNL     1       4.119   0.303  18.306  0.00  0.00    +0.000 OA
ATOM      5  N   UNL     1       2.477   1.791  18.758  0.00  0.00    +0.000 N 
ATOM      6  C   UNL     1       2.013   3.048  19.074  0.00  0.00    +0.000 C 
ATOM      7  C   UNL     1       0.509   3.177  19.041  0.00  0.00    +0.000 C 
ATOM      8  C   UNL     1       2.900   4.017  19.413  0.00  0.00    +0.000 C 
ATOM      9  H   UNL     1       5.650   2.117  18.801  0.00  0.00    +0.000 HD
ATOM     10  H   UNL     1       1.824   1.053  18.523  0.00  0.00    +0.000 HD
ENDROOT
BRANCH   1  14
ATOM     11  C   UNL     1       7.010   6.542  17.523  0.00  0.00    +0.000 A 
ATOM     12  C   UNL     1       7.184   6.224  18.879  0.00  0.00    +0.000 A 
ATOM     13  C   UNL     1       6.361   5.293  19.515  0.00  0.00    +0.000 A 
ATOM     14  C   UNL     1       5.308   4.696  18.817  0.00  0.00    +0.000 A 
ATOM     15  C   UNL     1       5.077   5.092  17.492  0.00  0.00    +0.000 A 
ATOM     16  C   UNL     1       5.919   5.997  16.831  0.00  0.00    +0.000 A 
BRANCH  11  18
ATOM     17  C   UNL     1       8.090   8.649  17.504  0.00  0.00    +0.000 C 
ATOM     18  O   UNL     1       7.866   7.389  16.872  0.00  0.00    +0.000 OA
ENDBRANCH  11  18
BRANCH  16  19
ATOM     19  O   UNL     1       5.530   6.184  15.533  0.00  0.00    +0.000 OA
ATOM     20  C   UNL     1       5.768   5.158  14.584  0.00  0.00    +0.000 C 
ENDBRANCH  16  19
ENDBRANCH   1  14
BRANCH   8  21
ATOM     21  C   UNL     1       2.366   5.383  19.787  0.00  0.00    +0.000 C 
ATOM     22  O   UNL     1       1.991   5.586  20.940  0.00  0.00    +0.000 OA
ATOM     23  N   UNL     1       2.280   6.340  18.797  0.00  0.00    +0.000 N 
ATOM     24  H   UNL     1       2.358   6.067  17.831  0.00  0.00    +0.000 HD
BRANCH  23  25
ATOM     25  C   UNL     1       1.911   7.698  19.001  0.00  0.00    +0.000 A 
ATOM     26  C   UNL     1       1.429   8.186  20.220  0.00  0.00    +0.000 A 
ATOM     27  C   UNL     1       1.077   9.531  20.368  0.00  0.00    +0.000 A 
ATOM     28  C   UNL     1       1.204  10.406  19.294  0.00  0.00    +0.000 A 
ATOM     29  C   UNL     1       1.699   9.939  18.079  0.00  0.00    +0.000 A 
ATOM     30  C   UNL     1       2.065   8.594  17.937  0.00  0.00    +0.000 A 
ENDBRANCH  23  25
ENDBRANCH   8  21
TORSDOF 5
ENDMDL
MODEL 3
REMARK VINA RESULT:      -7.0      1.258      2.340
REMARK  Name = 
REMARK  8 active torsions:
REMARK  status: ('A' for Active; 'I' for Inactive)
REMARK    1  A    between atoms: C_1  and  O_2
REMARK    2  A    between atoms: O_2  and  C_3
REMARK    3  A    between atoms: C_6  and  C_7
REMARK    4  A    between atoms: C_12  and  C_13
REMARK    5  A    between atoms: C_14  and  C_15
REMARK    6  A    between atoms: N_17  and  C_18
REMARK    7  A    between atoms: C_25  and  O_26
REMARK    8  A    between atoms: O_26  and  C_27
REMARK                            x       y       z     vdW  Elec       q    Type
REMARK                         _______ _______ _______ _____ _____    ______ ____
ROOT
ATOM      1  C   UNL     1       4.418   3.890  19.493  0.00  0.00    +0.000 C 
ATOM      2  N   UNL     1       4.953   2.552  19.308  0.00  0.00    +0.000 N 
ATOM      3  C   UNL     1       4.212   1.442  19.118  0.00  0.00    +0.000 C 
ATOM      4  O   UNL     1       4.710   0.322  19.123  0.00  0.00    +0.000 OA
ATOM      5  N   UNL     1       2.889   1.642  18.891  0.00  0.00    +0.000 N 
ATOM      6  C   UNL     1       2.261   2.865  18.809  0.00  0.00    +0.000 C 
ATOM      7  C   UNL     1       0.796   2.784  18.459  0.00  0.00    +0.000 C 
ATOM      8  C   UNL     1       2.969   3.993  19.074  0.00  0.00    +0.000 C 
ATOM      9  H   UNL     1       5.938   2.386  19.464  0.00  0.00    +0.000 HD
ATOM     10  H   UNL     1       2.367   0.791  18.715  0.00  0.00    +0.000 HD
ENDROOT
BRANCH   1  14
ATOM     11  C   UNL     1       7.142   6.598  17.469  0.00  0.00    +0.000 A 
ATOM     12  C   UNL     1       7.322   6.287  18.826  0.00  0.00    +0.000 A 
ATOM     13  C   UNL     1       6.469   5.400  19.484  0.00  0.00    +0.000 A 
ATOM     14  C   UNL     1       5.381   4.841  18.808  0.00  0.00    +0.000 A 
ATOM     15  C   UNL     1       5.148   5.232  17.482  0.00  0.00    +0.000 A 
ATOM     16  C   UNL     1       6.018   6.093  16.799  0.00  0.00    +0.000 A 
BRANCH  11  18
ATOM     17  C   UNL     1       8.273   8.676  17.384  0.00  0.00    +0.000 C 
ATOM     18  O   UNL     1       8.023   7.400  16.796  0.00  0.00    +0.000 OA
ENDBRANCH  11  18
BRANCH  16  19
ATOM     19  O   UNL     1       5.618   6.282  15.504  0.00  0.00    +0.000 OA
ATOM     20  C   UNL     1       5.713   5.207  14.586  0.00  0.00    +0.000 C 
ENDBRANCH  16  19
ENDBRANCH   1  14
BRANCH   8  21
ATOM     21  C   UNL     1       2.252   5.324  19.008  0.00  0.00    +0.000 C 
ATOM     22  O   UNL     1       1.555   5.583  18.030  0.00  0.00    +0.000 OA
ATOM     23  N   UNL     1       2.448   6.219  20.041  0.00  0.00    +0.000 N 
ATOM     24  H   UNL     1       3.207   6.076  20.687  0.00  0.00    +0.000 HD
BRANCH  23  25
ATOM     25  C   UNL     1       1.767   7.457  20.191  0.00  0.00    +0.000 A 
ATOM     26  C   UNL     1       1.816   8.479  19.237  0.00  0.00    +0.000 A 
ATOM     27  C   UNL     1       1.129   9.681  19.433  0.00  0.00    +0.000 A 
ATOM     28  C   UNL     1       0.383   9.874  20.592  0.00  0.00    +0.000 A 
ATOM     29  C   UNL     1       0.310   8.859  21.543  0.00  0.00    +0.000 A 
ATOM     30  C   UNL     1       0.987   7.650  21.337  0.00  0.00    +0.000 A 
ENDBRANCH  23  25
ENDBRANCH   8  21
TORSDOF 5
ENDMDL
MODEL 4
REMARK VINA RESULT:      -7.0      0.829      1.857
REMARK  Name = 
REMARK  8 active torsions:
REMARK  status: ('A' for Active; 'I' for Inactive)
REMARK    1  A    between atoms: C_1  and  O_2
REMARK    2  A    between atoms: O_2  and  C_3
REMARK    3  A    between atoms: C_6  and  C_7
REMARK    4  A    between atoms: C_12  and  C_13
REMARK    5  A    between atoms: C_14  and  C_15
REMARK    6  A    between atoms: N_17  and  C_18
REMARK    7  A    between atoms: C_25  and  O_26
REMARK    8  A    between atoms: O_26  and  C_27
REMARK                            x       y       z     vdW  Elec       q    Type
REMARK                         _______ _______ _______ _____ _____    ______ ____
ROOT
ATOM      1  C   UNL     1       4.818   4.465  19.225  0.00  0.00    +0.000 C 
ATOM      2  N   UNL     1       5.322   3.131  19.504  0.00  0.00    +0.000 N 
ATOM      3  C   UNL     1       4.649   2.174  20.176  0.00  0.00    +0.000 C 
ATOM      4  O   UNL     1       5.183   1.124  20.515  0.00  0.00    +0.000 OA
ATOM      5  N   UNL     1       3.340   2.432  20.424  0.00  0.00    +0.000 N 
ATOM      6  C   UNL     1       2.649   3.555  20.025  0.00  0.00    +0.000 C 
ATOM      7  C   UNL     1       1.180   3.529  20.367  0.00  0.00    +0.000 C 
ATOM      8  C   UNL     1       3.321   4.566  19.419  0.00  0.00    +0.000 C 
ATOM      9  H   UNL     1       6.292   2.918  19.317  0.00  0.00    +0.000 HD
ATOM     10  H   UNL     1       2.853   1.678  20.896  0.00  0.00    +0.000 HD
ENDROOT
BRANCH   1  14
ATOM     11  C   UNL     1       6.306   5.494  15.278  0.00  0.00    +0.000 A 
ATOM     12  C   UNL     1       6.377   6.419  16.331  0.00  0.00    +0.000 A 
ATOM     13  C   UNL     1       5.925   6.095  17.611  0.00  0.00    +0.000 A 
ATOM     14  C   UNL     1       5.342   4.848  17.854  0.00  0.00    +0.000 A 
ATOM     15  C   UNL     1       5.183   3.966  16.776  0.00  0.00    +0.000 A 
ATOM     16  C   UNL     1       5.666   4.265  15.495  0.00  0.00    +0.000 A 
BRANCH  11  18
ATOM     17  C   UNL     1       8.121   5.240  13.779  0.00  0.00    +0.000 C 
ATOM     18  O   UNL     1       6.824   5.775  14.043  0.00  0.00    +0.000 OA
ENDBRANCH  11  18
BRANCH  16  19
ATOM     19  O   UNL     1       5.447   3.231  14.625  0.00  0.00    +0.000 OA
ATOM     20  C   UNL     1       5.074   3.519  13.289  0.00  0.00    +0.000 C 
ENDBRANCH  16  19
ENDBRANCH   1  14
BRANCH   8  21
ATOM     21  C   UNL     1       2.549   5.804  19.018  0.00  0.00    +0.000 C 
ATOM     22  O   UNL     1       1.940   5.812  17.951  0.00  0.00    +0.000 OA
ATOM     23  N   UNL     1       2.599   6.900  19.855  0.00  0.00    +0.000 N 
ATOM     24  H   UNL     1       3.296   6.943  20.580  0.00  0.00    +0.000 HD
BRANCH  23  25
ATOM     25  C   UNL     1       1.846   8.094  19.686  0.00  0.00    +0.000 A 
ATOM     26  C   UNL     1       1.837   8.832  18.498  0.00  0.00    +0.000 A 
ATOM     27  C   UNL     1       1.080  10.003  18.384  0.00  0.00    +0.000 A 
ATOM     28  C   UNL     1       0.321  10.448  19.462  0.00  0.00    +0.000 A 
ATOM     29  C   UNL     1       0.305   9.714  20.645  0.00  0.00    +0.000 A 
ATOM     30  C   UNL     1       1.052   8.534  20.752  0.00  0.00    +0.000 A 
ENDBRANCH  23  25
ENDBRANCH   8  21
TORSDOF 5
ENDMDL
MODEL 5
REMARK VINA RESULT:      -6.9      2.134      6.383
REMARK  Name = 
REMARK  8 active torsions:
REMARK  status: ('A' for Active; 'I' for Inactive)
REMARK    1  A    between atoms: C_1  and  O_2
REMARK    2  A    between atoms: O_2  and  C_3
REMARK    3  A    between atoms: C_6  and  C_7
REMARK    4  A    between atoms: C_12  and  C_13
REMARK    5  A    between atoms: C_14  and  C_15
REMARK    6  A    between atoms: N_17  and  C_18
REMARK    7  A    between atoms: C_25  and  O_26
REMARK    8  A    between atoms: O_26  and  C_27
REMARK                            x       y       z     vdW  Elec       q    Type
REMARK                         _______ _______ _______ _____ _____    ______ ____
ROOT
ATOM      1  C   UNL     1       2.071   4.458  19.448  0.00  0.00    +0.000 C 
ATOM      2  N   UNL     1       1.315   4.009  20.604  0.00  0.00    +0.000 N 
ATOM      3  C   UNL     1       1.655   2.971  21.396  0.00  0.00    +0.000 C 
ATOM      4  O   UNL     1       0.900   2.542  22.261  0.00  0.00    +0.000 OA
ATOM      5  N   UNL     1       2.893   2.453  21.198  0.00  0.00    +0.000 N 
ATOM      6  C   UNL     1       3.824   2.913  20.292  0.00  0.00    +0.000 C 
ATOM      7  C   UNL     1       5.150   2.196  20.353  0.00  0.00    +0.000 C 
ATOM      8  C   UNL     1       3.478   3.903  19.431  0.00  0.00    +0.000 C 
ATOM      9  H   UNL     1       0.394   4.390  20.774  0.00  0.00    +0.000 HD
ATOM     10  H   UNL     1       3.132   1.700  21.832  0.00  0.00    +0.000 HD
ENDROOT
BRANCH   1  14
ATOM     11  C   UNL     1       1.691   8.783  19.409  0.00  0.00    +0.000 A 
ATOM     12  C   UNL     1       2.104   8.093  18.258  0.00  0.00    +0.000 A 
ATOM     13  C   UNL     1       2.207   6.701  18.248  0.00  0.00    +0.000 A 
ATOM     14  C   UNL     1       1.948   5.970  19.411  0.00  0.00    +0.000 A 
ATOM     15  C   UNL     1       1.634   6.672  20.584  0.00  0.00    +0.000 A 
ATOM     16  C   UNL     1       1.490   8.066  20.597  0.00  0.00    +0.000 A 
BRANCH  11  18
ATOM     17  C   UNL     1       0.323  10.599  18.746  0.00  0.00    +0.000 C 
ATOM     18  O   UNL     1       1.506  10.139  19.401  0.00  0.00    +0.000 OA
ENDBRANCH  11  18
BRANCH  16  19
ATOM     19  O   UNL     1       1.125   8.518  21.836  0.00  0.00    +0.000 OA
ATOM     20  C   UNL     1      -0.232   8.851  22.078  0.00  0.00    +0.000 C 
ENDBRANCH  16  19
ENDBRANCH   1  14
BRANCH   8  21
ATOM     21  C   UNL     1       4.506   4.372  18.424  0.00  0.00    +0.000 C 
ATOM     22  O   UNL     1       5.379   5.160  18.779  0.00  0.00    +0.000 OA
ATOM     23  N   UNL     1       4.391   3.925  17.123  0.00  0.00    +0.000 N 
ATOM     24  H   UNL     1       3.535   3.490  16.818  0.00  0.00    +0.000 HD
BRANCH  23  25
ATOM     25  C   UNL     1       5.330   4.175  16.086  0.00  0.00    +0.000 A 
ATOM     26  C   UNL     1       6.602   4.711  16.317  0.00  0.00    +0.000 A 
ATOM     27  C   UNL     1       7.489   4.941  15.260  0.00  0.00    +0.000 A 
ATOM     28  C   UNL     1       7.111   4.637  13.956  0.00  0.00    +0.000 A 
ATOM     29  C   UNL     1       5.855   4.087  13.712  0.00  0.00    +0.000 A 
ATOM     30  C   UNL     1       4.973   3.843  14.773  0.00  0.00    +0.000 A 
ENDBRANCH  23  25
ENDBRANCH   8  21
TORSDOF 5
ENDMDL
MODEL 6
REMARK VINA RESULT:      -6.7      0.938      1.411
REMARK  Name = 
REMARK  8 active torsions:
REMARK  status: ('A' for Active; 'I' for Inactive)
REMARK    1  A    between atoms: C_1  and  O_2
REMARK    2  A    between atoms: O_2  and  C_3
REMARK    3  A    between atoms: C_6  and  C_7
REMARK    4  A    between atoms: C_12  and  C_13
REMARK    5  A    between atoms: C_14  and  C_15
REMARK    6  A    between atoms: N_17  and  C_18
REMARK    7  A    between atoms: C_25  and  O_26
REMARK    8  A    between atoms: O_26  and  C_27
REMARK                            x       y       z     vdW  Elec       q    Type
REMARK                         _______ _______ _______ _____ _____    ______ ____
ROOT
ATOM      1  C   UNL     1       4.804   4.098  19.073  0.00  0.00    +0.000 C 
ATOM      2  N   UNL     1       5.320   2.808  19.497  0.00  0.00    +0.000 N 
ATOM      3  C   UNL     1       4.778   2.038  20.464  0.00  0.00    +0.000 C 
ATOM      4  O   UNL     1       5.343   1.035  20.885  0.00  0.00    +0.000 OA
ATOM      5  N   UNL     1       3.559   2.424  20.917  0.00  0.00    +0.000 N 
ATOM      6  C   UNL     1       2.830   3.498  20.456  0.00  0.00    +0.000 C 
ATOM      7  C   UNL     1       1.466   3.634  21.086  0.00  0.00    +0.000 C 
ATOM      8  C   UNL     1       3.386   4.333  19.542  0.00  0.00    +0.000 C 
ATOM      9  H   UNL     1       6.222   2.499  19.163  0.00  0.00    +0.000 HD
ATOM     10  H   UNL     1       3.163   1.804  21.614  0.00  0.00    +0.000 HD
ENDROOT
BRANCH   1  14
ATOM     11  C   UNL     1       5.524   4.400  14.801  0.00  0.00    +0.000 A 
ATOM     12  C   UNL     1       4.465   3.620  15.293  0.00  0.00    +0.000 A 
ATOM     13  C   UNL     1       4.206   3.533  16.662  0.00  0.00    +0.000 A 
ATOM     14  C   UNL     1       5.038   4.186  17.576  0.00  0.00    +0.000 A 
ATOM     15  C   UNL     1       6.152   4.881  17.085  0.00  0.00    +0.000 A 
ATOM     16  C   UNL     1       6.401   5.007  15.711  0.00  0.00    +0.000 A 
BRANCH  11  18
ATOM     17  C   UNL     1       5.819   3.353  12.698  0.00  0.00    +0.000 C 
ATOM     18  O   UNL     1       5.731   4.558  13.458  0.00  0.00    +0.000 OA
ENDBRANCH  11  18
BRANCH  16  19
ATOM     19  O   UNL     1       7.507   5.776  15.474  0.00  0.00    +0.000 OA
ATOM     20  C   UNL     1       8.226   5.600  14.264  0.00  0.00    +0.000 C 
ENDBRANCH  16  19
ENDBRANCH   1  14
BRANCH   8  21
ATOM     21  C   UNL     1       2.581   5.525  19.072  0.00  0.00    +0.000 C 
ATOM     22  O   UNL     1       1.806   5.392  18.127  0.00  0.00    +0.000 OA
ATOM     23  N   UNL     1       2.784   6.736  19.703  0.00  0.00    +0.000 N 
ATOM     24  H   UNL     1       3.591   6.861  20.293  0.00  0.00    +0.000 HD
BRANCH  23  25
ATOM     25  C   UNL     1       2.034   7.919  19.465  0.00  0.00    +0.000 A 
ATOM     26  C   UNL     1       1.215   8.514  20.430  0.00  0.00    +0.000 A 
ATOM     27  C   UNL     1       0.494   9.678  20.144  0.00  0.00    +0.000 A 
ATOM     28  C   UNL     1       0.586  10.261  18.884  0.00  0.00    +0.000 A 
ATOM     29  C   UNL     1       1.412   9.691  17.919  0.00  0.00    +0.000 A 
ATOM     30  C   UNL     1       2.144   8.533  18.211  0.00  0.00    +0.000 A 
ENDBRANCH  23  25
ENDBRANCH   8  21
TORSDOF 5
ENDMDL
MODEL 7
REMARK VINA RESULT:      -6.7      2.053      4.987
REMARK  Name = 
REMARK  8 active torsions:
REMARK  status: ('A' for Active; 'I' for Inactive)
REMARK    1  A    between atoms: C_1  and  O_2
REMARK    2  A    between atoms: O_2  and  C_3
REMARK    3  A    between atoms: C_6  and  C_7
REMARK    4  A    between atoms: C_12  and  C_13
REMARK    5  A    between atoms: C_14  and  C_15
REMARK    6  A    between atoms: N_17  and  C_18
REMARK    7  A    between atoms: C_25  and  O_26
REMARK    8  A    between atoms: O_26  and  C_27
REMARK                            x       y       z     vdW  Elec       q    Type
REMARK                         _______ _______ _______ _____ _____    ______ ____
ROOT
ATOM      1  C   UNL     1       4.869   4.888  17.039  0.00  0.00    +0.000 C 
ATOM      2  N   UNL     1       6.104   4.130  17.134  0.00  0.00    +0.000 N 
ATOM      3  C   UNL     1       7.343   4.662  17.094  0.00  0.00    +0.000 C 
ATOM      4  O   UNL     1       8.347   3.961  17.023  0.00  0.00    +0.000 OA
ATOM      5  N   UNL     1       7.412   6.015  17.168  0.00  0.00    +0.000 N 
ATOM      6  C   UNL     1       6.341   6.870  17.310  0.00  0.00    +0.000 C 
ATOM      7  C   UNL     1       6.726   8.322  17.453  0.00  0.00    +0.000 C 
ATOM      8  C   UNL     1       5.081   6.367  17.274  0.00  0.00    +0.000 C 
ATOM      9  H   UNL     1       6.072   3.121  17.090  0.00  0.00    +0.000 HD
ATOM     10  H   UNL     1       8.357   6.381  17.173  0.00  0.00    +0.000 HD
ENDROOT
BRANCH   1  14
ATOM     11  C   UNL     1       2.062   2.899  19.688  0.00  0.00    +0.000 A 
ATOM     12  C   UNL     1       1.606   3.595  18.558  0.00  0.00    +0.000 A 
ATOM     13  C   UNL     1       2.497   4.218  17.683  0.00  0.00    +0.000 A 
ATOM     14  C   UNL     1       3.869   4.203  17.951  0.00  0.00    +0.000 A 
ATOM     15  C   UNL     1       4.310   3.592  19.134  0.00  0.00    +0.000 A 
ATOM     16  C   UNL     1       3.429   2.930  20.000  0.00  0.00    +0.000 A 
BRANCH  11  18
ATOM     17  C   UNL     1       1.174   2.630  21.866  0.00  0.00    +0.000 C 
ATOM     18  O   UNL     1       1.201   2.213  20.501  0.00  0.00    +0.000 OA
ENDBRANCH  11  18
BRANCH  16  19
ATOM     19  O   UNL     1       4.095   2.364  21.052  0.00  0.00    +0.000 OA
ATOM     20  C   UNL     1       5.101   1.398  20.795  0.00  0.00    +0.000 C 
ENDBRANCH  16  19
ENDBRANCH   1  14
BRANCH   8  21
ATOM     21  C   UNL     1       3.919   7.327  17.401  0.00  0.00    +0.000 C 
ATOM     22  O   UNL     1       3.536   7.941  16.408  0.00  0.00    +0.000 OA
ATOM     23  N   UNL     1       3.360   7.509  18.650  0.00  0.00    +0.000 N 
ATOM     24  H   UNL     1       3.851   7.186  19.468  0.00  0.00    +0.000 HD
BRANCH  23  25
ATOM     25  C   UNL     1       2.199   8.281  18.922  0.00  0.00    +0.000 A 
ATOM     26  C   UNL     1       1.551   9.058  17.955  0.00  0.00    +0.000 A 
ATOM     27  C   UNL     1       0.412   9.803  18.275  0.00  0.00    +0.000 A 
ATOM     28  C   UNL     1      -0.094   9.779  19.571  0.00  0.00    +0.000 A 
ATOM     29  C   UNL     1       0.529   8.997  20.540  0.00  0.00    +0.000 A 
ATOM     30  C   UNL     1       1.662   8.240  20.214  0.00  0.00    +0.000 A 
ENDBRANCH  23  25
ENDBRANCH   8  21
TORSDOF 5
ENDMDL
MODEL 8
REMARK VINA RESULT:      -6.7      8.532     10.535
REMARK  Name = 
REMARK  8 active torsions:
REMARK  status: ('A' for Active; 'I' for Inactive)
REMARK    1  A    between atoms: C_1  and  O_2
REMARK    2  A    between atoms: O_2  and  C_3
REMARK    3  A    between atoms: C_6  and  C_7
REMARK    4  A    between atoms: C_12  and  C_13
REMARK    5  A    between atoms: C_14  and  C_15
REMARK    6  A    between atoms: N_17  and  C_18
REMARK    7  A    between atoms: C_25  and  O_26
REMARK    8  A    between atoms: O_26  and  C_27
REMARK                            x       y       z     vdW  Elec       q    Type
REMARK                         _______ _______ _______ _____ _____    ______ ____
ROOT
ATOM      1  C   UNL     1      -2.599  10.970  18.306  0.00  0.00    +0.000 C 
ATOM      2  N   UNL     1      -2.140  10.702  16.955  0.00  0.00    +0.000 N 
ATOM      3  C   UNL     1      -2.900  10.808  15.845  0.00  0.00    +0.000 C 
ATOM      4  O   UNL     1      -2.505  10.420  14.751  0.00  0.00    +0.000 OA
ATOM      5  N   UNL     1      -4.111  11.397  16.008  0.00  0.00    +0.000 N 
ATOM      6  C   UNL     1      -4.604  11.913  17.186  0.00  0.00    +0.000 C 
ATOM      7  C   UNL     1      -5.947  12.588  17.048  0.00  0.00    +0.000 C 
ATOM      8  C   UNL     1      -3.895  11.749  18.331  0.00  0.00    +0.000 C 
ATOM      9  H   UNL     1      -1.236  10.272  16.813  0.00  0.00    +0.000 HD
ATOM     10  H   UNL     1      -4.641  11.495  15.150  0.00  0.00    +0.000 HD
ENDROOT
BRANCH   1  14
ATOM     11  C   UNL     1       0.733  12.718  20.475  0.00  0.00    +0.000 A 
ATOM     12  C   UNL     1       0.374  13.202  19.207  0.00  0.00    +0.000 A 
ATOM     13  C   UNL     1      -0.709  12.667  18.508  0.00  0.00    +0.000 A 
ATOM     14  C   UNL     1      -1.429  11.596  19.044  0.00  0.00    +0.000 A 
ATOM     15  C   UNL     1      -1.004  11.051  20.264  0.00  0.00    +0.000 A 
ATOM     16  C   UNL     1       0.058  11.603  20.993  0.00  0.00    +0.000 A 
BRANCH  11  18
ATOM     17  C   UNL     1       2.852  13.774  20.447  0.00  0.00    +0.000 C 
ATOM     18  O   UNL     1       1.739  13.294  21.201  0.00  0.00    +0.000 OA
ENDBRANCH  11  18
BRANCH  16  19
ATOM     19  O   UNL     1       0.249  10.942  22.175  0.00  0.00    +0.000 OA
ATOM     20  C   UNL     1      -0.866  10.675  23.008  0.00  0.00    +0.000 C 
ENDBRANCH  16  19
ENDBRANCH   1  14
BRANCH   8  21
ATOM     21  C   UNL     1      -4.470  12.297  19.619  0.00  0.00    +0.000 C 
ATOM     22  O   UNL     1      -5.384  11.692  20.173  0.00  0.00    +0.000 OA
ATOM     23  N   UNL     1      -3.968  13.490  20.098  0.00  0.00    +0.000 N 
ATOM     24  H   UNL     1      -3.407  14.072  19.498  0.00  0.00    +0.000 HD
BRANCH  23  25
ATOM     25  C   UNL     1      -4.314  14.082  21.343  0.00  0.00    +0.000 A 
ATOM     26  C   UNL     1      -5.356  15.003  21.490  0.00  0.00    +0.000 A 
ATOM     27  C   UNL     1      -5.654  15.559  22.739  0.00  0.00    +0.000 A 
ATOM     28  C   UNL     1      -4.909  15.198  23.857  0.00  0.00    +0.000 A 
ATOM     29  C   UNL     1      -3.880  14.268  23.729  0.00  0.00    +0.000 A 
ATOM     30  C   UNL     1      -3.592  13.702  22.481  0.00  0.00    +0.000 A 
ENDBRANCH  23  25
ENDBRANCH   8  21
TORSDOF 5
ENDMDL
MODEL 9
REMARK VINA RESULT:      -6.5      1.817      2.484
REMARK  Name = 
REMARK  8 active torsions:
REMARK  status: ('A' for Active; 'I' for Inactive)
REMARK    1  A    between atoms: C_1  and  O_2
REMARK    2  A    between atoms: O_2  and  C_3
REMARK    3  A    between atoms: C_6  and  C_7
REMARK    4  A    between atoms: C_12  and  C_13
REMARK    5  A    between atoms: C_14  and  C_15
REMARK    6  A    between atoms: N_17  and  C_18
REMARK    7  A    between atoms: C_25  and  O_26
REMARK    8  A    between atoms: O_26  and  C_27
REMARK                            x       y       z     vdW  Elec       q    Type
REMARK                         _______ _______ _______ _____ _____    ______ ____
ROOT
ATOM      1  C   UNL     1       4.274   3.825  19.317  0.00  0.00    +0.000 C 
ATOM      2  N   UNL     1       4.569   2.536  18.715  0.00  0.00    +0.000 N 
ATOM      3  C   UNL     1       3.662   1.564  18.484  0.00  0.00    +0.000 C 
ATOM      4  O   UNL     1       3.994   0.443  18.118  0.00  0.00    +0.000 OA
ATOM      5  N   UNL     1       2.361   1.914  18.652  0.00  0.00    +0.000 N 
ATOM      6  C   UNL     1       1.901   3.164  19.002  0.00  0.00    +0.000 C 
ATOM      7  C   UNL     1       0.397   3.282  19.029  0.00  0.00    +0.000 C 
ATOM      8  C   UNL     1       2.795   4.136  19.316  0.00  0.00    +0.000 C 
ATOM      9  H   UNL     1       5.532   2.262  18.573  0.00  0.00    +0.000 HD
ATOM     10  H   UNL     1       1.704   1.174  18.435  0.00  0.00    +0.000 HD
ENDROOT
BRANCH   1  14
ATOM     11  C   UNL     1       6.886   6.725  17.414  0.00  0.00    +0.000 A 
ATOM     12  C   UNL     1       5.687   6.333  16.799  0.00  0.00    +0.000 A 
ATOM     13  C   UNL     1       4.825   5.420  17.409  0.00  0.00    +0.000 A 
ATOM     14  C   UNL     1       5.172   4.838  18.632  0.00  0.00    +0.000 A 
ATOM     15  C   UNL     1       6.416   5.158  19.193  0.00  0.00    +0.000 A 
ATOM     16  C   UNL     1       7.273   6.101  18.609  0.00  0.00    +0.000 A 
BRANCH  11  18
ATOM     17  C   UNL     1       7.854   8.875  17.629  0.00  0.00    +0.000 C 
ATOM     18  O   UNL     1       7.693   7.683  16.862  0.00  0.00    +0.000 OA
ENDBRANCH  11  18
BRANCH  16  19
ATOM     19  O   UNL     1       8.397   6.289  19.365  0.00  0.00    +0.000 OA
ATOM     20  C   UNL     1       8.659   5.412  20.447  0.00  0.00    +0.000 C 
ENDBRANCH  16  19
ENDBRANCH   1  14
BRANCH   8  21
ATOM     21  C   UNL     1       2.267   5.493  19.727  0.00  0.00    +0.000 C 
ATOM     22  O   UNL     1       1.890   5.666  20.884  0.00  0.00    +0.000 OA
ATOM     23  N   UNL     1       2.188   6.478  18.763  0.00  0.00    +0.000 N 
ATOM     24  H   UNL     1       2.268   6.232  17.790  0.00  0.00    +0.000 HD
BRANCH  23  25
ATOM     25  C   UNL     1       1.826   7.831  19.004  0.00  0.00    +0.000 A 
ATOM     26  C   UNL     1       1.366   8.293  20.243  0.00  0.00    +0.000 A 
ATOM     27  C   UNL     1       1.020   9.635  20.427  0.00  0.00    +0.000 A 
ATOM     28  C   UNL     1       1.130  10.534  19.371  0.00  0.00    +0.000 A 
ATOM     29  C   UNL     1       1.603  10.093  18.137  0.00  0.00    +0.000 A 
ATOM     30  C   UNL     1       1.963   8.752  17.958  0.00  0.00    +0.000 A 
ENDBRANCH  23  25
ENDBRANCH   8  21
TORSDOF 5
ENDMDL
