MODEL 1
REMARK VINA RESULT:      -7.3      0.000      0.000
REMARK  Name = 
REMARK  6 active torsions:
REMARK  status: ('A' for Active; 'I' for Inactive)
REMARK    1  A    between atoms: C_1  and  C_2
REMARK    2  A    between atoms: C_2  and  C_3
REMARK    3  A    between atoms: C_2  and  N_4
REMARK    4  A    between atoms: C_8  and  C_9
REMARK    5  A    between atoms: C_9  and  N_10
REMARK    6  A    between atoms: C_11  and  C_13
REMARK                            x       y       z     vdW  Elec       q    Type
REMARK                         _______ _______ _______ _____ _____    ______ ____
ROOT
ATOM      1  N   UNL     1       3.568   5.592  17.944  0.00  0.00    +0.000 N 
ATOM      2  C   UNL     1       3.032   6.040  19.129  0.00  0.00    +0.000 C 
ATOM      3  O   UNL     1       3.134   5.415  20.180  0.00  0.00    +0.000 OA
ATOM      4  H   UNL     1       3.694   6.224  17.159  0.00  0.00    +0.000 HD
ENDROOT
BRANCH   2   5
ATOM      5  C   UNL     1       2.328   7.356  19.111  0.00  0.00    +0.000 A 
ATOM      6  C   UNL     1       2.361   8.120  17.933  0.00  0.00    +0.000 A 
ATOM      7  C   UNL     1       1.758   9.380  17.885  0.00  0.00    +0.000 A 
ATOM      8  C   UNL     1       1.138   9.895  19.022  0.00  0.00    +0.000 A 
ATOM      9  C   UNL     1       1.086   9.133  20.194  0.00  0.00    +0.000 A 
ATOM     10  C   UNL     1       1.689   7.871  20.247  0.00  0.00    +0.000 A 
ATOM     11  O   UNL     1       0.479   9.574  21.344  0.00  0.00    +0.000 OA
ATOM     12  C   UNL     1      -0.349  10.720  21.103  0.00  0.00    +0.000 C 
ATOM     13  C   UNL     1       0.361  11.721  20.208  0.00  0.00    +0.000 C 
ATOM     14  O   UNL     1       0.607  11.155  18.917  0.00  0.00    +0.000 OA
ENDBRANCH   2   5
BRANCH   1  15
ATOM     15  C   UNL     1       4.365   4.379  17.898  0.00  0.00    +0.000 C 
BRANCH  15  20
ATOM     16  N   UNL     1       6.535   5.368  16.937  0.00  0.00    +0.000 N 
ATOM     17  C   UNL     1       7.247   5.217  15.770  0.00  0.00    +0.000 A 
ATOM     18  C   UNL     1       6.539   4.317  15.019  0.00  0.00    +0.000 A 
ATOM     19  N   UNL     1       5.433   3.887  15.698  0.00  0.00    +0.000 NA
ATOM     20  C   UNL     1       5.435   4.528  16.858  0.00  0.00    +0.000 A 
BRANCH  16  22
ATOM     21  C   UNL     1       7.758   5.612  19.104  0.00  0.00    +0.000 C 
ATOM     22  C   UNL     1       6.943   6.284  18.000  0.00  0.00    +0.000 C 
ATOM     23  C   UNL     1       7.578   7.564  17.454  0.00  0.00    +0.000 C 
ENDBRANCH  16  22
ENDBRANCH  15  20
ENDBRANCH   1  15
TORSDOF 4
ENDMDL
MODEL 2
REMARK VINA RESULT:      -7.2      2.578      4.211
REMARK  Name = 
REMARK  6 active torsions:
REMARK  status: ('A' for Active; 'I' for Inactive)
REMARK    1  A    between atoms: C_1  and  C_2
REMARK    2  A    between atoms: C_2  and  C_3
REMARK    3  A    between atoms: C_2  and  N_4
REMARK    4  A    between atoms: C_8  and  C_9
REMARK    5  A    between atoms: C_9  and  N_10
REMARK    6  A    between atoms: C_11  and  C_13
REMARK                            x       y       z     vdW  Elec       q    Type
REMARK                         _______ _______ _______ _____ _____    ______ ____
ROOT
ATOM      1  N   UNL     1       2.392   7.399  19.064  0.00  0.00    +0.000 N 
ATOM      2  C   UNL     1       1.737   8.591  18.856  0.00  0.00    +0.000 C 
ATOM      3  O   UNL     1       1.657   9.119  17.750  0.00  0.00    +0.000 OA
ATOM      4  H   UNL     1       2.235   6.862  19.910  0.00  0.00    +0.000 HD
ENDROOT
BRANCH   2   5
ATOM      5  C   UNL     1       1.083   9.231  20.034  0.00  0.00    +0.000 A 
ATOM      6  C   UNL     1       1.197   8.606  21.287  0.00  0.00    +0.000 A 
ATOM      7  C   UNL     1       0.559   9.142  22.410  0.00  0.00    +0.000 A 
ATOM      8  C   UNL     1      -0.214  10.295  22.283  0.00  0.00    +0.000 A 
ATOM      9  C   UNL     1      -0.318  10.933  21.043  0.00  0.00    +0.000 A 
ATOM     10  C   UNL     1       0.318  10.399  19.916  0.00  0.00    +0.000 A 
ATOM     11  O   UNL     1      -1.050  12.078  20.852  0.00  0.00    +0.000 OA
ATOM     12  C   UNL     1      -1.405  12.696  22.097  0.00  0.00    +0.000 C 
ATOM     13  C   UNL     1      -1.894  11.661  23.095  0.00  0.00    +0.000 C 
ATOM     14  O   UNL     1      -0.847  10.739  23.416  0.00  0.00    +0.000 OA
ENDBRANCH   2   5
BRANCH   1  15
ATOM     15  C   UNL     1       2.957   6.656  17.951  0.00  0.00    +0.000 C 
BRANCH  15  20
ATOM     16  N   UNL     1       3.040   4.292  18.959  0.00  0.00    +0.000 N 
ATOM     17  C   UNL     1       4.037   3.432  19.357  0.00  0.00    +0.000 A 
ATOM     18  C   UNL     1       5.213   4.097  19.127  0.00  0.00    +0.000 A 
ATOM     19  N   UNL     1       4.971   5.322  18.572  0.00  0.00    +0.000 NA
ATOM     20  C   UNL     1       3.655   5.436  18.475  0.00  0.00    +0.000 A 
BRANCH  16  22
ATOM     21  C   UNL     1       1.269   2.572  18.568  0.00  0.00    +0.000 C 
ATOM     22  C   UNL     1       1.620   3.968  19.080  0.00  0.00    +0.000 C 
ATOM     23  C   UNL     1       1.070   4.271  20.475  0.00  0.00    +0.000 C 
ENDBRANCH  16  22
ENDBRANCH  15  20
ENDBRANCH   1  15
TORSDOF 4
ENDMDL
MODEL 3
REMARK VINA RESULT:      -7.2      1.217      2.222
REMARK  Name = 
REMARK  6 active torsions:
REMARK  status: ('A' for Active; 'I' for Inactive)
REMARK    1  A    between atoms: C_1  and  C_2
REMARK    2  A    between atoms: C_2  and  C_3
REMARK    3  A    between atoms: C_2  and  N_4
REMARK    4  A    between atoms: C_8  and  C_9
REMARK    5  A    between atoms: C_9  and  N_10
REMARK    6  A    between atoms: C_11  and  C_13
REMARK                            x       y       z     vdW  Elec       q    Type
REMARK                         _______ _______ _______ _____ _____    ______ ____
ROOT
ATOM      1  N   UNL     1       3.509   6.239  19.075  0.00  0.00    +0.000 N 
ATOM      2  C   UNL     1       2.412   6.581  19.831  0.00  0.00    +0.000 C 
ATOM      3  O   UNL     1       1.935   5.836  20.681  0.00  0.00    +0.000 OA
ATOM      4  H   UNL     1       4.033   6.946  18.570  0.00  0.00    +0.000 HD
ENDROOT
BRANCH   2   5
ATOM      5  C   UNL     1       1.817   7.931  19.606  0.00  0.00    +0.000 A 
ATOM      6  C   UNL     1       1.981   8.537  18.349  0.00  0.00    +0.000 A 
ATOM      7  C   UNL     1       1.484   9.821  18.108  0.00  0.00    +0.000 A 
ATOM      8  C   UNL     1       0.839  10.517  19.129  0.00  0.00    +0.000 A 
ATOM      9  C   UNL     1       0.656   9.914  20.378  0.00  0.00    +0.000 A 
ATOM     10  C   UNL     1       1.153   8.629  20.624  0.00  0.00    +0.000 A 
ATOM     11  O   UNL     1       0.017  10.537  21.421  0.00  0.00    +0.000 OA
ATOM     12  C   UNL     1      -0.702  11.700  20.986  0.00  0.00    +0.000 C 
ATOM     13  C   UNL     1       0.138  12.528  20.029  0.00  0.00    +0.000 C 
ATOM     14  O   UNL     1       0.417  11.789  18.836  0.00  0.00    +0.000 OA
ENDBRANCH   2   5
BRANCH   1  15
ATOM     15  C   UNL     1       4.216   4.991  19.310  0.00  0.00    +0.000 C 
BRANCH  15  20
ATOM     16  N   UNL     1       6.145   5.116  17.615  0.00  0.00    +0.000 N 
ATOM     17  C   UNL     1       7.508   5.283  17.694  0.00  0.00    +0.000 A 
ATOM     18  C   UNL     1       7.792   5.386  19.031  0.00  0.00    +0.000 A 
ATOM     19  N   UNL     1       6.645   5.319  19.772  0.00  0.00    +0.000 NA
ATOM     20  C   UNL     1       5.652   5.154  18.910  0.00  0.00    +0.000 A 
BRANCH  16  22
ATOM     21  C   UNL     1       5.168   6.233  15.604  0.00  0.00    +0.000 C 
ATOM     22  C   UNL     1       5.443   4.927  16.348  0.00  0.00    +0.000 C 
ATOM     23  C   UNL     1       6.088   3.845  15.479  0.00  0.00    +0.000 C 
ENDBRANCH  16  22
ENDBRANCH  15  20
ENDBRANCH   1  15
TORSDOF 4
ENDMDL
MODEL 4
REMARK VINA RESULT:      -7.2      2.396      3.682
REMARK  Name = 
REMARK  6 active torsions:
REMARK  status: ('A' for Active; 'I' for Inactive)
REMARK    1  A    between atoms: C_1  and  C_2
REMARK    2  A    between atoms: C_2  and  C_3
REMARK    3  A    between atoms: C_2  and  N_4
REMARK    4  A    between atoms: C_8  and  C_9
REMARK    5  A    between atoms: C_9  and  N_10
REMARK    6  A    between atoms: C_11  and  C_13
REMARK                            x       y       z     vdW  Elec       q    Type
REMARK                         _______ _______ _______ _____ _____    ______ ____
ROOT
ATOM      1  N   UNL     1       3.778   5.906  19.504  0.00  0.00    +0.000 N 
ATOM      2  C   UNL     1       3.362   6.732  18.485  0.00  0.00    +0.000 C 
ATOM      3  O   UNL     1       3.766   6.617  17.332  0.00  0.00    +0.000 OA
ATOM      4  H   UNL     1       3.258   5.850  20.373  0.00  0.00    +0.000 HD
ENDROOT
BRANCH   2   5
ATOM      5  C   UNL     1       2.357   7.782  18.820  0.00  0.00    +0.000 A 
ATOM      6  C   UNL     1       1.887   8.615  17.791  0.00  0.00    +0.000 A 
ATOM      7  C   UNL     1       0.983   9.645  18.066  0.00  0.00    +0.000 A 
ATOM      8  C   UNL     1       0.559   9.864  19.375  0.00  0.00    +0.000 A 
ATOM      9  C   UNL     1       1.008   9.028  20.403  0.00  0.00    +0.000 A 
ATOM     10  C   UNL     1       1.914   7.996  20.133  0.00  0.00    +0.000 A 
ATOM     11  O   UNL     1       0.619   9.179  21.711  0.00  0.00    +0.000 OA
ATOM     12  C   UNL     1      -0.514  10.050  21.832  0.00  0.00    +0.000 C 
ATOM     13  C   UNL     1      -0.343  11.283  20.962  0.00  0.00    +0.000 C 
ATOM     14  O   UNL     1      -0.293  10.919  19.578  0.00  0.00    +0.000 OA
ENDBRANCH   2   5
BRANCH   1  15
ATOM     15  C   UNL     1       4.668   4.788  19.239  0.00  0.00    +0.000 C 
BRANCH  15  20
ATOM     16  N   UNL     1       2.749   3.104  19.539  0.00  0.00    +0.000 N 
ATOM     17  C   UNL     1       2.316   1.982  18.869  0.00  0.00    +0.000 A 
ATOM     18  C   UNL     1       3.190   1.814  17.827  0.00  0.00    +0.000 A 
ATOM     19  N   UNL     1       4.124   2.812  17.817  0.00  0.00    +0.000 NA
ATOM     20  C   UNL     1       3.853   3.588  18.857  0.00  0.00    +0.000 A 
BRANCH  16  22
ATOM     21  C   UNL     1       0.826   4.401  20.471  0.00  0.00    +0.000 C 
ATOM     22  C   UNL     1       2.099   3.602  20.749  0.00  0.00    +0.000 C 
ATOM     23  C   UNL     1       1.926   2.512  21.809  0.00  0.00    +0.000 C 
ENDBRANCH  16  22
ENDBRANCH  15  20
ENDBRANCH   1  15
TORSDOF 4
ENDMDL
MODEL 5
REMARK VINA RESULT:      -7.1      0.840      1.124
REMARK  Name = 
REMARK  6 active torsions:
REMARK  status: ('A' for Active; 'I' for Inactive)
REMARK    1  A    between atoms: C_1  and  C_2
REMARK    2  A    between atoms: C_2  and  C_3
REMARK    3  A    between atoms: C_2  and  N_4
REMARK    4  A    between atoms: C_8  and  C_9
REMARK    5  A    between atoms: C_9  and  N_10
REMARK    6  A    between atoms: C_11  and  C_13
REMARK                            x       y       z     vdW  Elec       q    Type
REMARK                         _______ _______ _______ _____ _____    ______ ____
ROOT
ATOM      1  N   UNL     1       3.782   5.155  17.511  0.00  0.00    +0.000 N 
ATOM      2  C   UNL     1       3.690   5.779  18.734  0.00  0.00    +0.000 C 
ATOM      3  O   UNL     1       4.293   5.383  19.727  0.00  0.00    +0.000 OA
ATOM      4  H   UNL     1       3.489   5.629  16.663  0.00  0.00    +0.000 HD
ENDROOT
BRANCH   2   5
ATOM      5  C   UNL     1       2.837   7.000  18.820  0.00  0.00    +0.000 A 
ATOM      6  C   UNL     1       2.789   7.866  17.714  0.00  0.00    +0.000 A 
ATOM      7  C   UNL     1       2.044   9.047  17.767  0.00  0.00    +0.000 A 
ATOM      8  C   UNL     1       1.358   9.382  18.933  0.00  0.00    +0.000 A 
ATOM      9  C   UNL     1       1.386   8.517  20.032  0.00  0.00    +0.000 A 
ATOM     10  C   UNL     1       2.132   7.333  19.984  0.00  0.00    +0.000 A 
ATOM     11  O   UNL     1       0.721   8.779  21.205  0.00  0.00    +0.000 OA
ATOM     12  C   UNL     1      -0.233   9.838  21.050  0.00  0.00    +0.000 C 
ATOM     13  C   UNL     1       0.362  10.992  20.261  0.00  0.00    +0.000 C 
ATOM     14  O   UNL     1       0.684  10.577  18.930  0.00  0.00    +0.000 OA
ENDBRANCH   2   5
BRANCH   1  15
ATOM     15  C   UNL     1       4.679   4.029  17.316  0.00  0.00    +0.000 C 
BRANCH  15  20
ATOM     16  N   UNL     1       6.639   5.067  16.016  0.00  0.00    +0.000 N 
ATOM     17  C   UNL     1       7.081   5.026  14.713  0.00  0.00    +0.000 A 
ATOM     18  C   UNL     1       6.189   4.230  14.045  0.00  0.00    +0.000 A 
ATOM     19  N   UNL     1       5.234   3.755  14.899  0.00  0.00    +0.000 NA
ATOM     20  C   UNL     1       5.510   4.266  16.090  0.00  0.00    +0.000 A 
BRANCH  16  22
ATOM     21  C   UNL     1       6.632   7.198  17.323  0.00  0.00    +0.000 C 
ATOM     22  C   UNL     1       7.304   5.853  17.053  0.00  0.00    +0.000 C 
ATOM     23  C   UNL     1       7.580   5.035  18.317  0.00  0.00    +0.000 C 
ENDBRANCH  16  22
ENDBRANCH  15  20
ENDBRANCH   1  15
TORSDOF 4
ENDMDL
MODEL 6
REMARK VINA RESULT:      -7.1      0.733      1.061
REMARK  Name = 
REMARK  6 active torsions:
REMARK  status: ('A' for Active; 'I' for Inactive)
REMARK    1  A    between atoms: C_1  and  C_2
REMARK    2  A    between atoms: C_2  and  C_3
REMARK    3  A    between atoms: C_2  and  N_4
REMARK    4  A    between atoms: C_8  and  C_9
REMARK    5  A    between atoms: C_9  and  N_10
REMARK    6  A    between atoms: C_11  and  C_13
REMARK                            x       y       z     vdW  Elec       q    Type
REMARK                         _______ _______ _______ _____ _____    ______ ____
ROOT
ATOM      1  N   UNL     1       4.268   5.939  18.960  0.00  0.00    +0.000 N 
ATOM      2  C   UNL     1       2.909   6.006  18.760  0.00  0.00    +0.000 C 
ATOM      3  O   UNL     1       2.233   5.024  18.467  0.00  0.00    +0.000 OA
ATOM      4  H   UNL     1       4.760   6.686  19.438  0.00  0.00    +0.000 HD
ENDROOT
BRANCH   2   5
ATOM      5  C   UNL     1       2.252   7.334  18.941  0.00  0.00    +0.000 A 
ATOM      6  C   UNL     1       2.164   8.196  17.836  0.00  0.00    +0.000 A 
ATOM      7  C   UNL     1       1.602   9.469  17.970  0.00  0.00    +0.000 A 
ATOM      8  C   UNL     1       1.145   9.897  19.215  0.00  0.00    +0.000 A 
ATOM      9  C   UNL     1       1.213   9.038  20.316  0.00  0.00    +0.000 A 
ATOM     10  C   UNL     1       1.776   7.763  20.188  0.00  0.00    +0.000 A 
ATOM     11  O   UNL     1       0.768   9.391  21.566  0.00  0.00    +0.000 OA
ATOM     12  C   UNL     1      -0.045  10.572  21.528  0.00  0.00    +0.000 C 
ATOM     13  C   UNL     1       0.581  11.631  20.637  0.00  0.00    +0.000 C 
ATOM     14  O   UNL     1       0.647  11.173  19.282  0.00  0.00    +0.000 OA
ENDBRANCH   2   5
BRANCH   1  15
ATOM     15  C   UNL     1       4.966   4.666  18.914  0.00  0.00    +0.000 C 
BRANCH  15  20
ATOM     16  N   UNL     1       6.740   5.118  17.109  0.00  0.00    +0.000 N 
ATOM     17  C   UNL     1       6.949   4.700  15.815  0.00  0.00    +0.000 A 
ATOM     18  C   UNL     1       5.904   3.863  15.524  0.00  0.00    +0.000 A 
ATOM     19  N   UNL     1       5.080   3.728  16.605  0.00  0.00    +0.000 NA
ATOM     20  C   UNL     1       5.589   4.491  17.561  0.00  0.00    +0.000 A 
BRANCH  16  22
ATOM     21  C   UNL     1       7.248   7.525  17.552  0.00  0.00    +0.000 C 
ATOM     22  C   UNL     1       7.624   6.063  17.788  0.00  0.00    +0.000 C 
ATOM     23  C   UNL     1       7.834   5.709  19.262  0.00  0.00    +0.000 C 
ENDBRANCH  16  22
ENDBRANCH  15  20
ENDBRANCH   1  15
TORSDOF 4
ENDMDL
MODEL 7
REMARK VINA RESULT:      -7.1      2.931      7.472
REMARK  Name = 
REMARK  6 active torsions:
REMARK  status: ('A' for Active; 'I' for Inactive)
REMARK    1  A    between atoms: C_1  and  C_2
REMARK    2  A    between atoms: C_2  and  C_3
REMARK    3  A    between atoms: C_2  and  N_4
REMARK    4  A    between atoms: C_8  and  C_9
REMARK    5  A    between atoms: C_9  and  N_10
REMARK    6  A    between atoms: C_11  and  C_13
REMARK                            x       y       z     vdW  Elec       q    Type
REMARK                         _______ _______ _______ _____ _____    ______ ____
ROOT
ATOM      1  N   UNL     1       1.990   7.740  20.428  0.00  0.00    +0.000 N 
ATOM      2  C   UNL     1       2.338   6.464  20.051  0.00  0.00    +0.000 C 
ATOM      3  O   UNL     1       1.760   5.467  20.474  0.00  0.00    +0.000 OA
ATOM      4  H   UNL     1       2.300   8.543  19.891  0.00  0.00    +0.000 HD
ENDROOT
BRANCH   2   5
ATOM      5  C   UNL     1       3.449   6.317  19.066  0.00  0.00    +0.000 A 
ATOM      6  C   UNL     1       3.393   7.058  17.874  0.00  0.00    +0.000 A 
ATOM      7  C   UNL     1       4.385   6.915  16.900  0.00  0.00    +0.000 A 
ATOM      8  C   UNL     1       5.429   6.014  17.101  0.00  0.00    +0.000 A 
ATOM      9  C   UNL     1       5.502   5.285  18.293  0.00  0.00    +0.000 A 
ATOM     10  C   UNL     1       4.510   5.424  19.271  0.00  0.00    +0.000 A 
ATOM     11  O   UNL     1       6.511   4.393  18.561  0.00  0.00    +0.000 OA
ATOM     12  C   UNL     1       7.610   4.544  17.652  0.00  0.00    +0.000 C 
ATOM     13  C   UNL     1       7.114   4.696  16.224  0.00  0.00    +0.000 C 
ATOM     14  O   UNL     1       6.342   5.893  16.085  0.00  0.00    +0.000 OA
ENDBRANCH   2   5
BRANCH   1  15
ATOM     15  C   UNL     1       0.848   7.975  21.295  0.00  0.00    +0.000 C 
BRANCH  15  20
ATOM     16  N   UNL     1       0.237  10.166  20.097  0.00  0.00    +0.000 N 
ATOM     17  C   UNL     1      -0.042  11.454  20.494  0.00  0.00    +0.000 A 
ATOM     18  C   UNL     1       0.072  11.453  21.859  0.00  0.00    +0.000 A 
ATOM     19  N   UNL     1       0.380  10.203  22.315  0.00  0.00    +0.000 NA
ATOM     20  C   UNL     1       0.481   9.428  21.245  0.00  0.00    +0.000 A 
BRANCH  16  22
ATOM     21  C   UNL     1      -0.992  10.171  17.920  0.00  0.00    +0.000 C 
ATOM     22  C   UNL     1       0.259   9.758  18.694  0.00  0.00    +0.000 C 
ATOM     23  C   UNL     1       1.569  10.133  17.999  0.00  0.00    +0.000 C 
ENDBRANCH  16  22
ENDBRANCH  15  20
ENDBRANCH   1  15
TORSDOF 4
ENDMDL
MODEL 8
REMARK VINA RESULT:      -7.0      2.293      4.211
REMARK  Name = 
REMARK  6 active torsions:
REMARK  status: ('A' for Active; 'I' for Inactive)
REMARK    1  A    between atoms: C_1  and  C_2
REMARK    2  A    between atoms: C_2  and  C_3
REMARK    3  A    between atoms: C_2  and  N_4
REMARK    4  A    between atoms: C_8  and  C_9
REMARK    5  A    between atoms: C_9  and  N_10
REMARK    6  A    between atoms: C_11  and  C_13
REMARK                            x       y       z     vdW  Elec       q    Type
REMARK                         _______ _______ _______ _____ _____    ______ ____
ROOT
ATOM      1  N   UNL     1       4.977   4.563  16.070  0.00  0.00    +0.000 N 
ATOM      2  C   UNL     1       4.766   4.533  17.429  0.00  0.00    +0.000 C 
ATOM      3  O   UNL     1       5.236   3.661  18.154  0.00  0.00    +0.000 OA
ATOM      4  H   UNL     1       4.801   5.407  15.536  0.00  0.00    +0.000 HD
ENDROOT
BRANCH   2   5
ATOM      5  C   UNL     1       3.954   5.635  18.023  0.00  0.00    +0.000 A 
ATOM      6  C   UNL     1       3.405   5.451  19.303  0.00  0.00    +0.000 A 
ATOM      7  C   UNL     1       2.596   6.435  19.878  0.00  0.00    +0.000 A 
ATOM      8  C   UNL     1       2.311   7.600  19.169  0.00  0.00    +0.000 A 
ATOM      9  C   UNL     1       2.867   7.799  17.901  0.00  0.00    +0.000 A 
ATOM     10  C   UNL     1       3.678   6.816  17.320  0.00  0.00    +0.000 A 
ATOM     11  O   UNL     1       2.640   8.929  17.155  0.00  0.00    +0.000 OA
ATOM     12  C   UNL     1       2.059   9.977  17.942  0.00  0.00    +0.000 C 
ATOM     13  C   UNL     1       0.950   9.438  18.829  0.00  0.00    +0.000 C 
ATOM     14  O   UNL     1       1.474   8.501  19.776  0.00  0.00    +0.000 OA
ENDBRANCH   2   5
BRANCH   1  15
ATOM     15  C   UNL     1       5.849   3.592  15.431  0.00  0.00    +0.000 C 
BRANCH  15  20
ATOM     16  N   UNL     1       6.468   3.916  12.957  0.00  0.00    +0.000 N 
ATOM     17  C   UNL     1       7.314   4.748  12.259  0.00  0.00    +0.000 A 
ATOM     18  C   UNL     1       7.922   5.532  13.204  0.00  0.00    +0.000 A 
ATOM     19  N   UNL     1       7.454   5.232  14.452  0.00  0.00    +0.000 NA
ATOM     20  C   UNL     1       6.575   4.252  14.297  0.00  0.00    +0.000 A 
BRANCH  16  22
ATOM     21  C   UNL     1       4.413   3.444  11.612  0.00  0.00    +0.000 C 
ATOM     22  C   UNL     1       5.656   2.889  12.308  0.00  0.00    +0.000 C 
ATOM     23  C   UNL     1       6.491   1.955  11.429  0.00  0.00    +0.000 C 
ENDBRANCH  16  22
ENDBRANCH  15  20
ENDBRANCH   1  15
TORSDOF 4
ENDMDL
MODEL 9
REMARK VINA RESULT:      -7.0      1.378      2.787
REMARK  Name = 
REMARK  6 active torsions:
REMARK  status: ('A' for Active; 'I' for Inactive)
REMARK    1  A    between atoms: C_1  and  C_2
REMARK    2  A    between atoms: C_2  and  C_3
REMARK    3  A    between atoms: C_2  and  N_4
REMARK    4  A    between atoms: C_8  and  C_9
REMARK    5  A    between atoms: C_9  and  N_10
REMARK    6  A    between atoms: C_11  and  C_13
REMARK                            x       y       z     vdW  Elec       q    Type
REMARK                         _______ _______ _______ _____ _____    ______ ____
ROOT
ATOM      1  N   UNL     1       3.565   6.032  19.933  0.00  0.00    +0.000 N 
ATOM      2  C   UNL     1       2.619   6.617  19.124  0.00  0.00    +0.000 C 
ATOM      3  O   UNL     1       2.348   6.190  18.005  0.00  0.00    +0.000 OA
ATOM      4  H   UNL     1       3.596   6.236  20.927  0.00  0.00    +0.000 HD
ENDROOT
BRANCH   2   5
ATOM      5  C   UNL     1       1.887   7.799  19.665  0.00  0.00    +0.000 A 
ATOM      6  C   UNL     1       1.431   7.757  20.993  0.00  0.00    +0.000 A 
ATOM      7  C   UNL     1       0.698   8.821  21.528  0.00  0.00    +0.000 A 
ATOM      8  C   UNL     1       0.397   9.924  20.731  0.00  0.00    +0.000 A 
ATOM      9  C   UNL     1       0.862   9.982  19.413  0.00  0.00    +0.000 A 
ATOM     10  C   UNL     1       1.596   8.919  18.873  0.00  0.00    +0.000 A 
ATOM     11  O   UNL     1       0.615  11.044  18.580  0.00  0.00    +0.000 OA
ATOM     12  C   UNL     1       0.127  12.184  19.302  0.00  0.00    +0.000 C 
ATOM     13  C   UNL     1      -0.928  11.772  20.314  0.00  0.00    +0.000 C 
ATOM     14  O   UNL     1      -0.363  10.910  21.306  0.00  0.00    +0.000 OA
ENDBRANCH   2   5
BRANCH   1  15
ATOM     15  C   UNL     1       4.241   4.812  19.528  0.00  0.00    +0.000 C 
BRANCH  15  20
ATOM     16  N   UNL     1       5.936   5.238  17.643  0.00  0.00    +0.000 N 
ATOM     17  C   UNL     1       7.275   5.553  17.583  0.00  0.00    +0.000 A 
ATOM     18  C   UNL     1       7.699   5.616  18.884  0.00  0.00    +0.000 A 
ATOM     19  N   UNL     1       6.659   5.384  19.741  0.00  0.00    +0.000 NA
ATOM     20  C   UNL     1       5.596   5.154  18.984  0.00  0.00    +0.000 A 
BRANCH  16  22
ATOM     21  C   UNL     1       5.818   5.440  15.155  0.00  0.00    +0.000 C 
ATOM     22  C   UNL     1       5.116   5.039  16.451  0.00  0.00    +0.000 C 
ATOM     23  C   UNL     1       4.483   3.647  16.406  0.00  0.00    +0.000 C 
ENDBRANCH  16  22
ENDBRANCH  15  20
ENDBRANCH   1  15
TORSDOF 4
ENDMDL
