MODEL 1
REMARK VINA RESULT:      -7.9      0.000      0.000
REMARK  Name = 
REMARK  10 active torsions:
REMARK  status: ('A' for Active; 'I' for Inactive)
REMARK    1  A    between atoms: C_1  and  O_2
REMARK    2  A    between atoms: O_2  and  C_3
REMARK    3  A    between atoms: C_3  and  C_4
REMARK    4  A    between atoms: C_4  and  N_5
REMARK    5  A    between atoms: C_6  and  C_8
REMARK    6  A    between atoms: N_11  and  C_12
REMARK    7  A    between atoms: C_12  and  C_13
REMARK    8  A    between atoms: N_21  and  C_22
REMARK    9  A    between atoms: C_22  and  C_23
REMARK   10  A    between atoms: C_26  and  C_27
REMARK                            x       y       z     vdW  Elec       q    Type
REMARK                         _______ _______ _______ _____ _____    ______ ____
ROOT
ATOM      1  C   UNL     1       2.861   8.117  17.890  0.00  0.00    +0.000 A 
ATOM      2  C   UNL     1       2.036   9.206  17.641  0.00  0.00    +0.000 A 
ATOM      3  C   UNL     1       1.203   9.436  18.771  0.00  0.00    +0.000 A 
ATOM      4  C   UNL     1       0.193  10.373  19.075  0.00  0.00    +0.000 A 
ATOM      5  C   UNL     1      -0.427  10.349  20.333  0.00  0.00    +0.000 A 
ATOM      6  C   UNL     1      -0.040   9.414  21.289  0.00  0.00    +0.000 A 
ATOM      7  C   UNL     1       0.949   8.467  21.002  0.00  0.00    +0.000 A 
ATOM      8  C   UNL     1       1.538   8.474  19.722  0.00  0.00    +0.000 A 
ATOM      9  N   UNL     1       2.459   7.623  19.134  0.00  0.00    +0.000 N 
ENDROOT
BRANCH   1  10
ATOM     10  C   UNL     1       3.834   7.449  16.925  0.00  0.00    +0.000 C 
BRANCH  10  14
ATOM     11  C   UNL     1       7.048   4.578  16.556  0.00  0.00    +0.000 C 
ATOM     12  C   UNL     1       5.700   4.064  17.051  0.00  0.00    +0.000 C 
ATOM     13  C   UNL     1       4.623   5.122  16.827  0.00  0.00    +0.000 C 
ATOM     14  N   UNL     1       4.816   6.435  17.438  0.00  0.00    +0.000 NA
ATOM     15  C   UNL     1       6.177   6.930  17.141  0.00  0.00    +0.000 C 
ATOM     16  C   UNL     1       7.318   5.900  17.279  0.00  0.00    +0.000 C 
BRANCH  11  18
ATOM     17  N   UNL     1       6.402   3.662  14.345  0.00  0.00    +0.000 N 
ATOM     18  C   UNL     1       7.078   4.659  15.019  0.00  0.00    +0.000 C 
ATOM     19  O   UNL     1       7.624   5.578  14.408  0.00  0.00    +0.000 OA
ATOM     20  H   UNL     1       5.648   3.199  14.837  0.00  0.00    +0.000 HD
BRANCH  17  21
ATOM     21  C   UNL     1       6.244   3.807  12.903  0.00  0.00    +0.000 C 
BRANCH  21  22
ATOM     22  C   UNL     1       4.861   3.410  12.398  0.00  0.00    +0.000 C 
BRANCH  22  24
ATOM     23  C   UNL     1       6.329   1.877  11.373  0.00  0.00    +0.000 C 
ATOM     24  O   UNL     1       4.997   2.377  11.416  0.00  0.00    +0.000 OA
ENDBRANCH  22  24
ENDBRANCH  21  22
ENDBRANCH  17  21
ENDBRANCH  11  18
ENDBRANCH  10  14
ENDBRANCH   1  10
BRANCH   9  25
ATOM     25  C   UNL     1       3.035   6.446  19.777  0.00  0.00    +0.000 C 
BRANCH  25  26
ATOM     26  C   UNL     1       2.500   5.086  19.478  0.00  0.00    +0.000 A 
ATOM     27  C   UNL     1       1.605   4.860  18.437  0.00  0.00    +0.000 A 
ATOM     28  C   UNL     1       1.143   3.572  18.205  0.00  0.00    +0.000 A 
ATOM     29  C   UNL     1       1.592   2.503  18.995  0.00  0.00    +0.000 A 
ATOM     30  C   UNL     1       0.981   1.145  18.861  0.00  0.00    +0.000 C 
ATOM     31  C   UNL     1       2.590   2.715  19.943  0.00  0.00    +0.000 A 
ATOM     32  C   UNL     1       3.046   4.001  20.183  0.00  0.00    +0.000 A 
ENDBRANCH  25  26
ENDBRANCH   9  25
TORSDOF 8
ENDMDL
MODEL 2
REMARK VINA RESULT:      -7.8      2.323      5.277
REMARK  Name = 
REMARK  10 active torsions:
REMARK  status: ('A' for Active; 'I' for Inactive)
REMARK    1  A    between atoms: C_1  and  O_2
REMARK    2  A    between atoms: O_2  and  C_3
REMARK    3  A    between atoms: C_3  and  C_4
REMARK    4  A    between atoms: C_4  and  N_5
REMARK    5  A    between atoms: C_6  and  C_8
REMARK    6  A    between atoms: N_11  and  C_12
REMARK    7  A    between atoms: C_12  and  C_13
REMARK    8  A    between atoms: N_21  and  C_22
REMARK    9  A    between atoms: C_22  and  C_23
REMARK   10  A    between atoms: C_26  and  C_27
REMARK                            x       y       z     vdW  Elec       q    Type
REMARK                         _______ _______ _______ _____ _____    ______ ____
ROOT
ATOM      1  C   UNL     1       1.488   8.241  20.119  0.00  0.00    +0.000 A 
ATOM      2  C   UNL     1       1.394   8.068  21.494  0.00  0.00    +0.000 A 
ATOM      3  C   UNL     1       0.553   9.077  22.040  0.00  0.00    +0.000 A 
ATOM      4  C   UNL     1       0.114   9.393  23.343  0.00  0.00    +0.000 A 
ATOM      5  C   UNL     1      -0.769  10.464  23.542  0.00  0.00    +0.000 A 
ATOM      6  C   UNL     1      -1.226  11.208  22.458  0.00  0.00    +0.000 A 
ATOM      7  C   UNL     1      -0.792  10.919  21.160  0.00  0.00    +0.000 A 
ATOM      8  C   UNL     1       0.126   9.866  20.974  0.00  0.00    +0.000 A 
ATOM      9  N   UNL     1       0.784   9.416  19.843  0.00  0.00    +0.000 N 
ENDROOT
BRANCH   1  10
ATOM     10  C   UNL     1       2.363   7.463  19.142  0.00  0.00    +0.000 C 
BRANCH  10  14
ATOM     11  C   UNL     1       3.827   3.431  18.587  0.00  0.00    +0.000 C 
ATOM     12  C   UNL     1       2.809   3.954  17.578  0.00  0.00    +0.000 C 
ATOM     13  C   UNL     1       2.643   5.462  17.739  0.00  0.00    +0.000 C 
ATOM     14  N   UNL     1       2.231   5.970  19.046  0.00  0.00    +0.000 NA
ATOM     15  C   UNL     1       3.071   5.370  20.103  0.00  0.00    +0.000 C 
ATOM     16  C   UNL     1       3.344   3.857  19.976  0.00  0.00    +0.000 C 
BRANCH  11  18
ATOM     17  N   UNL     1       5.564   3.897  16.880  0.00  0.00    +0.000 N 
ATOM     18  C   UNL     1       5.251   3.891  18.225  0.00  0.00    +0.000 C 
ATOM     19  O   UNL     1       6.062   4.282  19.065  0.00  0.00    +0.000 OA
ATOM     20  H   UNL     1       4.795   3.984  16.226  0.00  0.00    +0.000 HD
BRANCH  17  21
ATOM     21  C   UNL     1       6.827   4.504  16.482  0.00  0.00    +0.000 C 
BRANCH  21  22
ATOM     22  C   UNL     1       7.008   4.602  14.971  0.00  0.00    +0.000 C 
BRANCH  22  24
ATOM     23  C   UNL     1       6.295   3.688  12.919  0.00  0.00    +0.000 C 
ATOM     24  O   UNL     1       6.096   3.706  14.328  0.00  0.00    +0.000 OA
ENDBRANCH  22  24
ENDBRANCH  21  22
ENDBRANCH  17  21
ENDBRANCH  11  18
ENDBRANCH  10  14
ENDBRANCH   1  10
BRANCH   9  25
ATOM     25  C   UNL     1       0.656  10.004  18.514  0.00  0.00    +0.000 C 
BRANCH  25  26
ATOM     26  C   UNL     1      -0.683  10.411  17.994  0.00  0.00    +0.000 A 
ATOM     27  C   UNL     1      -1.177  11.701  18.166  0.00  0.00    +0.000 A 
ATOM     28  C   UNL     1      -2.428  12.023  17.659  0.00  0.00    +0.000 A 
ATOM     29  C   UNL     1      -3.177  11.066  16.957  0.00  0.00    +0.000 A 
ATOM     30  C   UNL     1      -4.587  11.350  16.549  0.00  0.00    +0.000 C 
ATOM     31  C   UNL     1      -2.618   9.823  16.671  0.00  0.00    +0.000 A 
ATOM     32  C   UNL     1      -1.373   9.496  17.184  0.00  0.00    +0.000 A 
ENDBRANCH  25  26
ENDBRANCH   9  25
TORSDOF 8
ENDMDL
MODEL 3
REMARK VINA RESULT:      -7.8      2.529      6.237
REMARK  Name = 
REMARK  10 active torsions:
REMARK  status: ('A' for Active; 'I' for Inactive)
REMARK    1  A    between atoms: C_1  and  O_2
REMARK    2  A    between atoms: O_2  and  C_3
REMARK    3  A    between atoms: C_3  and  C_4
REMARK    4  A    between atoms: C_4  and  N_5
REMARK    5  A    between atoms: C_6  and  C_8
REMARK    6  A    between atoms: N_11  and  C_12
REMARK    7  A    between atoms: C_12  and  C_13
REMARK    8  A    between atoms: N_21  and  C_22
REMARK    9  A    between atoms: C_22  and  C_23
REMARK   10  A    between atoms: C_26  and  C_27
REMARK                            x       y       z     vdW  Elec       q    Type
REMARK                         _______ _______ _______ _____ _____    ______ ____
ROOT
ATOM      1  C   UNL     1       1.334   8.482  20.101  0.00  0.00    +0.000 A 
ATOM      2  C   UNL     1       1.019   8.247  21.433  0.00  0.00    +0.000 A 
ATOM      3  C   UNL     1       0.205   9.307  21.920  0.00  0.00    +0.000 A 
ATOM      4  C   UNL     1      -0.392   9.598  23.166  0.00  0.00    +0.000 A 
ATOM      5  C   UNL     1      -1.189  10.742  23.308  0.00  0.00    +0.000 A 
ATOM      6  C   UNL     1      -1.407  11.586  22.222  0.00  0.00    +0.000 A 
ATOM      7  C   UNL     1      -0.813  11.323  20.984  0.00  0.00    +0.000 A 
ATOM      8  C   UNL     1       0.018  10.192  20.860  0.00  0.00    +0.000 A 
ATOM      9  N   UNL     1       0.793   9.736  19.807  0.00  0.00    +0.000 N 
ENDROOT
BRANCH   1  10
ATOM     10  C   UNL     1       2.267   7.670  19.209  0.00  0.00    +0.000 C 
BRANCH  10  14
ATOM     11  C   UNL     1       3.585   3.582  18.710  0.00  0.00    +0.000 C 
ATOM     12  C   UNL     1       2.676   4.163  17.632  0.00  0.00    +0.000 C 
ATOM     13  C   UNL     1       2.566   5.676  17.802  0.00  0.00    +0.000 C 
ATOM     14  N   UNL     1       2.075   6.187  19.081  0.00  0.00    +0.000 NA
ATOM     15  C   UNL     1       2.800   5.536  20.192  0.00  0.00    +0.000 C 
ATOM     16  C   UNL     1       3.013   4.014  20.063  0.00  0.00    +0.000 C 
BRANCH  11  18
ATOM     17  N   UNL     1       5.511   3.851  17.172  0.00  0.00    +0.000 N 
ATOM     18  C   UNL     1       5.053   3.979  18.469  0.00  0.00    +0.000 C 
ATOM     19  O   UNL     1       5.777   4.433  19.354  0.00  0.00    +0.000 OA
ATOM     20  H   UNL     1       4.822   3.889  16.432  0.00  0.00    +0.000 HD
BRANCH  17  21
ATOM     21  C   UNL     1       6.828   4.394  16.864  0.00  0.00    +0.000 C 
BRANCH  21  22
ATOM     22  C   UNL     1       6.796   5.533  15.850  0.00  0.00    +0.000 C 
BRANCH  22  24
ATOM     23  C   UNL     1       7.296   7.090  17.547  0.00  0.00    +0.000 C 
ATOM     24  O   UNL     1       7.684   6.570  16.280  0.00  0.00    +0.000 OA
ENDBRANCH  22  24
ENDBRANCH  21  22
ENDBRANCH  17  21
ENDBRANCH  11  18
ENDBRANCH  10  14
ENDBRANCH   1  10
BRANCH   9  25
ATOM     25  C   UNL     1       0.920  10.405  18.516  0.00  0.00    +0.000 C 
BRANCH  25  26
ATOM     26  C   UNL     1       1.310  11.843  18.446  0.00  0.00    +0.000 A 
ATOM     27  C   UNL     1       0.389  12.865  18.657  0.00  0.00    +0.000 A 
ATOM     28  C   UNL     1       0.809  14.186  18.581  0.00  0.00    +0.000 A 
ATOM     29  C   UNL     1       2.154  14.489  18.320  0.00  0.00    +0.000 A 
ATOM     30  C   UNL     1       2.585  15.899  18.076  0.00  0.00    +0.000 C 
ATOM     31  C   UNL     1       3.093  13.463  18.248  0.00  0.00    +0.000 A 
ATOM     32  C   UNL     1       2.675  12.144  18.315  0.00  0.00    +0.000 A 
ENDBRANCH  25  26
ENDBRANCH   9  25
TORSDOF 8
ENDMDL
MODEL 4
REMARK VINA RESULT:      -7.8      0.582      1.010
REMARK  Name = 
REMARK  10 active torsions:
REMARK  status: ('A' for Active; 'I' for Inactive)
REMARK    1  A    between atoms: C_1  and  O_2
REMARK    2  A    between atoms: O_2  and  C_3
REMARK    3  A    between atoms: C_3  and  C_4
REMARK    4  A    between atoms: C_4  and  N_5
REMARK    5  A    between atoms: C_6  and  C_8
REMARK    6  A    between atoms: N_11  and  C_12
REMARK    7  A    between atoms: C_12  and  C_13
REMARK    8  A    between atoms: N_21  and  C_22
REMARK    9  A    between atoms: C_22  and  C_23
REMARK   10  A    between atoms: C_26  and  C_27
REMARK                            x       y       z     vdW  Elec       q    Type
REMARK                         _______ _______ _______ _____ _____    ______ ____
ROOT
ATOM      1  C   UNL     1       2.798   7.905  18.089  0.00  0.00    +0.000 A 
ATOM      2  C   UNL     1       1.940   8.979  17.893  0.00  0.00    +0.000 A 
ATOM      3  C   UNL     1       1.211   9.226  19.089  0.00  0.00    +0.000 A 
ATOM      4  C   UNL     1       0.221  10.160  19.463  0.00  0.00    +0.000 A 
ATOM      5  C   UNL     1      -0.280  10.159  20.772  0.00  0.00    +0.000 A 
ATOM      6  C   UNL     1       0.203   9.249  21.709  0.00  0.00    +0.000 A 
ATOM      7  C   UNL     1       1.172   8.306  21.354  0.00  0.00    +0.000 A 
ATOM      8  C   UNL     1       1.643   8.290  20.025  0.00  0.00    +0.000 A 
ATOM      9  N   UNL     1       2.517   7.435  19.375  0.00  0.00    +0.000 N 
ENDROOT
BRANCH   1  10
ATOM     10  C   UNL     1       3.687   7.224  17.054  0.00  0.00    +0.000 C 
BRANCH  10  14
ATOM     11  C   UNL     1       7.110   4.643  16.481  0.00  0.00    +0.000 C 
ATOM     12  C   UNL     1       5.843   4.014  17.053  0.00  0.00    +0.000 C 
ATOM     13  C   UNL     1       4.668   4.974  16.897  0.00  0.00    +0.000 C 
ATOM     14  N   UNL     1       4.782   6.300  17.503  0.00  0.00    +0.000 NA
ATOM     15  C   UNL     1       6.074   6.911  17.128  0.00  0.00    +0.000 C 
ATOM     16  C   UNL     1       7.307   5.984  17.193  0.00  0.00    +0.000 C 
BRANCH  11  18
ATOM     17  N   UNL     1       6.225   3.803  14.323  0.00  0.00    +0.000 N 
ATOM     18  C   UNL     1       7.041   4.726  14.946  0.00  0.00    +0.000 C 
ATOM     19  O   UNL     1       7.632   5.589  14.295  0.00  0.00    +0.000 OA
ATOM     20  H   UNL     1       5.465   3.415  14.868  0.00  0.00    +0.000 HD
BRANCH  17  21
ATOM     21  C   UNL     1       5.982   3.968  12.896  0.00  0.00    +0.000 C 
BRANCH  21  22
ATOM     22  C   UNL     1       6.449   2.783  12.057  0.00  0.00    +0.000 C 
BRANCH  22  24
ATOM     23  C   UNL     1       4.267   3.017  11.197  0.00  0.00    +0.000 C 
ATOM     24  O   UNL     1       5.307   2.102  11.527  0.00  0.00    +0.000 OA
ENDBRANCH  22  24
ENDBRANCH  21  22
ENDBRANCH  17  21
ENDBRANCH  11  18
ENDBRANCH  10  14
ENDBRANCH   1  10
BRANCH   9  25
ATOM     25  C   UNL     1       3.163   6.279  19.988  0.00  0.00    +0.000 C 
BRANCH  25  26
ATOM     26  C   UNL     1       2.615   4.908  19.776  0.00  0.00    +0.000 A 
ATOM     27  C   UNL     1       3.439   3.787  19.724  0.00  0.00    +0.000 A 
ATOM     28  C   UNL     1       2.873   2.536  19.526  0.00  0.00    +0.000 A 
ATOM     29  C   UNL     1       1.482   2.396  19.406  0.00  0.00    +0.000 A 
ATOM     30  C   UNL     1       0.876   1.082  19.033  0.00  0.00    +0.000 C 
ATOM     31  C   UNL     1       0.657   3.501  19.597  0.00  0.00    +0.000 A 
ATOM     32  C   UNL     1       1.219   4.753  19.785  0.00  0.00    +0.000 A 
ENDBRANCH  25  26
ENDBRANCH   9  25
TORSDOF 8
ENDMDL
MODEL 5
REMARK VINA RESULT:      -7.6      3.823      8.442
REMARK  Name = 
REMARK  10 active torsions:
REMARK  status: ('A' for Active; 'I' for Inactive)
REMARK    1  A    between atoms: C_1  and  O_2
REMARK    2  A    between atoms: O_2  and  C_3
REMARK    3  A    between atoms: C_3  and  C_4
REMARK    4  A    between atoms: C_4  and  N_5
REMARK    5  A    between atoms: C_6  and  C_8
REMARK    6  A    between atoms: N_11  and  C_12
REMARK    7  A    between atoms: C_12  and  C_13
REMARK    8  A    between atoms: N_21  and  C_22
REMARK    9  A    between atoms: C_22  and  C_23
REMARK   10  A    between atoms: C_26  and  C_27
REMARK                            x       y       z     vdW  Elec       q    Type
REMARK                         _______ _______ _______ _____ _____    ______ ____
ROOT
ATOM      1  C   UNL     1       2.267   6.078  20.048  0.00  0.00    +0.000 A 
ATOM      2  C   UNL     1       1.197   5.193  20.085  0.00  0.00    +0.000 A 
ATOM      3  C   UNL     1       1.617   3.925  19.594  0.00  0.00    +0.000 A 
ATOM      4  C   UNL     1       0.975   2.684  19.399  0.00  0.00    +0.000 A 
ATOM      5  C   UNL     1       1.705   1.588  18.918  0.00  0.00    +0.000 A 
ATOM      6  C   UNL     1       3.064   1.714  18.646  0.00  0.00    +0.000 A 
ATOM      7  C   UNL     1       3.716   2.939  18.819  0.00  0.00    +0.000 A 
ATOM      8  C   UNL     1       2.965   4.046  19.266  0.00  0.00    +0.000 A 
ATOM      9  N   UNL     1       3.311   5.375  19.442  0.00  0.00    +0.000 N 
ENDROOT
BRANCH   1  10
ATOM     10  C   UNL     1       2.252   7.567  20.375  0.00  0.00    +0.000 C 
BRANCH  10  14
ATOM     11  C   UNL     1       0.133  11.268  19.659  0.00  0.00    +0.000 C 
ATOM     12  C   UNL     1      -0.373  10.376  20.788  0.00  0.00    +0.000 C 
ATOM     13  C   UNL     1       0.655   9.292  21.097  0.00  0.00    +0.000 C 
ATOM     14  N   UNL     1       1.057   8.400  20.011  0.00  0.00    +0.000 NA
ATOM     15  C   UNL     1       1.403   9.194  18.814  0.00  0.00    +0.000 C 
ATOM     16  C   UNL     1       0.447  10.355  18.471  0.00  0.00    +0.000 C 
BRANCH  11  18
ATOM     17  N   UNL     1       2.035  12.769  19.138  0.00  0.00    +0.000 N 
ATOM     18  C   UNL     1       1.304  12.147  20.131  0.00  0.00    +0.000 C 
ATOM     19  O   UNL     1       1.561  12.339  21.320  0.00  0.00    +0.000 OA
ATOM     20  H   UNL     1       1.569  12.936  18.255  0.00  0.00    +0.000 HD
BRANCH  17  21
ATOM     21  C   UNL     1       3.026  13.757  19.545  0.00  0.00    +0.000 C 
BRANCH  21  22
ATOM     22  C   UNL     1       2.541  15.197  19.419  0.00  0.00    +0.000 C 
BRANCH  22  24
ATOM     23  C   UNL     1       3.109  16.491  17.533  0.00  0.00    +0.000 C 
ATOM     24  O   UNL     1       3.555  15.983  18.786  0.00  0.00    +0.000 OA
ENDBRANCH  22  24
ENDBRANCH  21  22
ENDBRANCH  17  21
ENDBRANCH  11  18
ENDBRANCH  10  14
ENDBRANCH   1  10
BRANCH   9  25
ATOM     25  C   UNL     1       4.628   5.937  19.162  0.00  0.00    +0.000 C 
BRANCH  25  26
ATOM     26  C   UNL     1       5.323   5.628  17.878  0.00  0.00    +0.000 A 
ATOM     27  C   UNL     1       6.474   4.847  17.835  0.00  0.00    +0.000 A 
ATOM     28  C   UNL     1       7.077   4.591  16.612  0.00  0.00    +0.000 A 
ATOM     29  C   UNL     1       6.519   5.092  15.426  0.00  0.00    +0.000 A 
ATOM     30  C   UNL     1       7.243   4.961  14.126  0.00  0.00    +0.000 C 
ATOM     31  C   UNL     1       5.294   5.756  15.464  0.00  0.00    +0.000 A 
ATOM     32  C   UNL     1       4.695   6.020  16.685  0.00  0.00    +0.000 A 
ENDBRANCH  25  26
ENDBRANCH   9  25
TORSDOF 8
ENDMDL
MODEL 6
REMARK VINA RESULT:      -7.5      2.815      5.913
REMARK  Name = 
REMARK  10 active torsions:
REMARK  status: ('A' for Active; 'I' for Inactive)
REMARK    1  A    between atoms: C_1  and  O_2
REMARK    2  A    between atoms: O_2  and  C_3
REMARK    3  A    between atoms: C_3  and  C_4
REMARK    4  A    between atoms: C_4  and  N_5
REMARK    5  A    between atoms: C_6  and  C_8
REMARK    6  A    between atoms: N_11  and  C_12
REMARK    7  A    between atoms: C_12  and  C_13
REMARK    8  A    between atoms: N_21  and  C_22
REMARK    9  A    between atoms: C_22  and  C_23
REMARK   10  A    between atoms: C_26  and  C_27
REMARK                            x       y       z     vdW  Elec       q    Type
REMARK                         _______ _______ _______ _____ _____    ______ ____
ROOT
ATOM      1  C   UNL     1       1.541   8.338  19.443  0.00  0.00    +0.000 A 
ATOM      2  C   UNL     1       1.682   7.975  20.776  0.00  0.00    +0.000 A 
ATOM      3  C   UNL     1       0.904   8.847  21.586  0.00  0.00    +0.000 A 
ATOM      4  C   UNL     1       0.674   8.958  22.975  0.00  0.00    +0.000 A 
ATOM      5  C   UNL     1      -0.206   9.935  23.462  0.00  0.00    +0.000 A 
ATOM      6  C   UNL     1      -0.865  10.788  22.581  0.00  0.00    +0.000 A 
ATOM      7  C   UNL     1      -0.640  10.705  21.204  0.00  0.00    +0.000 A 
ATOM      8  C   UNL     1       0.275   9.745  20.726  0.00  0.00    +0.000 A 
ATOM      9  N   UNL     1       0.755   9.493  19.452  0.00  0.00    +0.000 N 
ENDROOT
BRANCH   1  10
ATOM     10  C   UNL     1       2.273   7.754  18.239  0.00  0.00    +0.000 C 
BRANCH  10  14
ATOM     11  C   UNL     1       5.449   4.832  17.959  0.00  0.00    +0.000 C 
ATOM     12  C   UNL     1       5.095   5.354  19.348  0.00  0.00    +0.000 C 
ATOM     13  C   UNL     1       3.776   6.121  19.297  0.00  0.00    +0.000 C 
ATOM     14  N   UNL     1       3.683   7.262  18.388  0.00  0.00    +0.000 NA
ATOM     15  C   UNL     1       4.174   6.876  17.049  0.00  0.00    +0.000 C 
ATOM     16  C   UNL     1       5.470   6.039  17.017  0.00  0.00    +0.000 C 
BRANCH  11  18
ATOM     17  N   UNL     1       4.281   2.709  18.479  0.00  0.00    +0.000 N 
ATOM     18  C   UNL     1       4.501   3.695  17.538  0.00  0.00    +0.000 C 
ATOM     19  O   UNL     1       3.924   3.672  16.450  0.00  0.00    +0.000 OA
ATOM     20  H   UNL     1       4.410   2.959  19.451  0.00  0.00    +0.000 HD
BRANCH  17  21
ATOM     21  C   UNL     1       3.247   1.721  18.194  0.00  0.00    +0.000 C 
BRANCH  21  22
ATOM     22  C   UNL     1       1.965   1.931  18.993  0.00  0.00    +0.000 C 
BRANCH  22  24
ATOM     23  C   UNL     1       1.448   2.774  21.132  0.00  0.00    +0.000 C 
ATOM     24  O   UNL     1       2.159   3.003  19.921  0.00  0.00    +0.000 OA
ENDBRANCH  22  24
ENDBRANCH  21  22
ENDBRANCH  17  21
ENDBRANCH  11  18
ENDBRANCH  10  14
ENDBRANCH   1  10
BRANCH   9  25
ATOM     25  C   UNL     1       0.386  10.246  18.259  0.00  0.00    +0.000 C 
BRANCH  25  26
ATOM     26  C   UNL     1      -1.044  10.572  17.984  0.00  0.00    +0.000 A 
ATOM     27  C   UNL     1      -1.612  11.780  18.379  0.00  0.00    +0.000 A 
ATOM     28  C   UNL     1      -2.947  12.030  18.094  0.00  0.00    +0.000 A 
ATOM     29  C   UNL     1      -3.712  11.086  17.391  0.00  0.00    +0.000 A 
ATOM     30  C   UNL     1      -5.185  11.271  17.221  0.00  0.00    +0.000 C 
ATOM     31  C   UNL     1      -3.101   9.943  16.880  0.00  0.00    +0.000 A 
ATOM     32  C   UNL     1      -1.771   9.688  17.171  0.00  0.00    +0.000 A 
ENDBRANCH  25  26
ENDBRANCH   9  25
TORSDOF 8
ENDMDL
MODEL 7
REMARK VINA RESULT:      -7.5      3.854      8.495
REMARK  Name = 
REMARK  10 active torsions:
REMARK  status: ('A' for Active; 'I' for Inactive)
REMARK    1  A    between atoms: C_1  and  O_2
REMARK    2  A    between atoms: O_2  and  C_3
REMARK    3  A    between atoms: C_3  and  C_4
REMARK    4  A    between atoms: C_4  and  N_5
REMARK    5  A    between atoms: C_6  and  C_8
REMARK    6  A    between atoms: N_11  and  C_12
REMARK    7  A    between atoms: C_12  and  C_13
REMARK    8  A    between atoms: N_21  and  C_22
REMARK    9  A    between atoms: C_22  and  C_23
REMARK   10  A    between atoms: C_26  and  C_27
REMARK                            x       y       z     vdW  Elec       q    Type
REMARK                         _______ _______ _______ _____ _____    ______ ____
ROOT
ATOM      1  C   UNL     1       2.200   6.154  20.200  0.00  0.00    +0.000 A 
ATOM      2  C   UNL     1       1.107   5.299  20.248  0.00  0.00    +0.000 A 
ATOM      3  C   UNL     1       1.478   4.029  19.726  0.00  0.00    +0.000 A 
ATOM      4  C   UNL     1       0.797   2.809  19.526  0.00  0.00    +0.000 A 
ATOM      5  C   UNL     1       1.484   1.701  19.009  0.00  0.00    +0.000 A 
ATOM      6  C   UNL     1       2.839   1.795  18.706  0.00  0.00    +0.000 A 
ATOM      7  C   UNL     1       3.529   2.998  18.883  0.00  0.00    +0.000 A 
ATOM      8  C   UNL     1       2.821   4.117  19.366  0.00  0.00    +0.000 A 
ATOM      9  N   UNL     1       3.209   5.433  19.556  0.00  0.00    +0.000 N 
ENDROOT
BRANCH   1  10
ATOM     10  C   UNL     1       2.235   7.638  20.551  0.00  0.00    +0.000 C 
BRANCH  10  14
ATOM     11  C   UNL     1       0.003  11.311  20.079  0.00  0.00    +0.000 C 
ATOM     12  C   UNL     1      -0.197  10.529  21.373  0.00  0.00    +0.000 C 
ATOM     13  C   UNL     1       0.876   9.453  21.503  0.00  0.00    +0.000 C 
ATOM     14  N   UNL     1       0.987   8.463  20.433  0.00  0.00    +0.000 NA
ATOM     15  C   UNL     1       1.015   9.145  19.122  0.00  0.00    +0.000 C 
ATOM     16  C   UNL     1       0.003  10.295  18.934  0.00  0.00    +0.000 C 
BRANCH  11  18
ATOM     17  N   UNL     1       1.807  12.583  18.950  0.00  0.00    +0.000 N 
ATOM     18  C   UNL     1       1.256  12.201  20.158  0.00  0.00    +0.000 C 
ATOM     19  O   UNL     1       1.727  12.601  21.223  0.00  0.00    +0.000 OA
ATOM     20  H   UNL     1       1.192  12.603  18.147  0.00  0.00    +0.000 HD
BRANCH  17  21
ATOM     21  C   UNL     1       2.873  13.576  18.977  0.00  0.00    +0.000 C 
BRANCH  21  22
ATOM     22  C   UNL     1       2.414  14.976  18.583  0.00  0.00    +0.000 C 
BRANCH  22  24
ATOM     23  C   UNL     1       2.093  17.097  19.558  0.00  0.00    +0.000 C 
ATOM     24  O   UNL     1       2.889  15.917  19.551  0.00  0.00    +0.000 OA
ENDBRANCH  22  24
ENDBRANCH  21  22
ENDBRANCH  17  21
ENDBRANCH  11  18
ENDBRANCH  10  14
ENDBRANCH   1  10
BRANCH   9  25
ATOM     25  C   UNL     1       4.533   5.963  19.253  0.00  0.00    +0.000 C 
BRANCH  25  26
ATOM     26  C   UNL     1       5.165   5.704  17.926  0.00  0.00    +0.000 A 
ATOM     27  C   UNL     1       4.666   6.261  16.752  0.00  0.00    +0.000 A 
ATOM     28  C   UNL     1       5.295   5.987  15.547  0.00  0.00    +0.000 A 
ATOM     29  C   UNL     1       6.441   5.176  15.512  0.00  0.00    +0.000 A 
ATOM     30  C   UNL     1       7.030   4.742  14.209  0.00  0.00    +0.000 C 
ATOM     31  C   UNL     1       7.013   4.736  16.704  0.00  0.00    +0.000 A 
ATOM     32  C   UNL     1       6.381   5.002  17.908  0.00  0.00    +0.000 A 
ENDBRANCH  25  26
ENDBRANCH   9  25
TORSDOF 8
ENDMDL
MODEL 8
REMARK VINA RESULT:      -7.5      3.647      7.670
REMARK  Name = 
REMARK  10 active torsions:
REMARK  status: ('A' for Active; 'I' for Inactive)
REMARK    1  A    between atoms: C_1  and  O_2
REMARK    2  A    between atoms: O_2  and  C_3
REMARK    3  A    between atoms: C_3  and  C_4
REMARK    4  A    between atoms: C_4  and  N_5
REMARK    5  A    between atoms: C_6  and  C_8
REMARK    6  A    between atoms: N_11  and  C_12
REMARK    7  A    between atoms: C_12  and  C_13
REMARK    8  A    between atoms: N_21  and  C_22
REMARK    9  A    between atoms: C_22  and  C_23
REMARK   10  A    between atoms: C_26  and  C_27
REMARK                            x       y       z     vdW  Elec       q    Type
REMARK                         _______ _______ _______ _____ _____    ______ ____
ROOT
ATOM      1  C   UNL     1       1.802   5.789  20.368  0.00  0.00    +0.000 A 
ATOM      2  C   UNL     1       0.821   4.809  20.291  0.00  0.00    +0.000 A 
ATOM      3  C   UNL     1       1.338   3.677  19.602  0.00  0.00    +0.000 A 
ATOM      4  C   UNL     1       0.807   2.423  19.232  0.00  0.00    +0.000 A 
ATOM      5  C   UNL     1       1.617   1.489  18.571  0.00  0.00    +0.000 A 
ATOM      6  C   UNL     1       2.947   1.787  18.290  0.00  0.00    +0.000 A 
ATOM      7  C   UNL     1       3.488   3.029  18.636  0.00  0.00    +0.000 A 
ATOM      8  C   UNL     1       2.656   3.977  19.265  0.00  0.00    +0.000 A 
ATOM      9  N   UNL     1       2.884   5.291  19.636  0.00  0.00    +0.000 N 
ENDROOT
BRANCH   1  10
ATOM     10  C   UNL     1       1.662   7.204  20.920  0.00  0.00    +0.000 C 
BRANCH  10  14
ATOM     11  C   UNL     1       0.730  10.649  18.479  0.00  0.00    +0.000 C 
ATOM     12  C   UNL     1       1.448   9.485  17.805  0.00  0.00    +0.000 C 
ATOM     13  C   UNL     1       1.417   8.258  18.712  0.00  0.00    +0.000 C 
ATOM     14  N   UNL     1       1.992   8.382  20.050  0.00  0.00    +0.000 NA
ATOM     15  C   UNL     1       1.467   9.595  20.710  0.00  0.00    +0.000 C 
ATOM     16  C   UNL     1       1.401  10.867  19.838  0.00  0.00    +0.000 C 
BRANCH  11  18
ATOM     17  N   UNL     1      -1.419  10.214  17.323  0.00  0.00    +0.000 N 
ATOM     18  C   UNL     1      -0.789  10.405  18.536  0.00  0.00    +0.000 C 
ATOM     19  O   UNL     1      -1.415  10.329  19.594  0.00  0.00    +0.000 OA
ATOM     20  H   UNL     1      -0.855   9.869  16.557  0.00  0.00    +0.000 HD
BRANCH  17  21
ATOM     21  C   UNL     1      -2.814   9.791  17.344  0.00  0.00    +0.000 C 
BRANCH  21  22
ATOM     22  C   UNL     1      -3.689  10.521  16.330  0.00  0.00    +0.000 C 
BRANCH  22  24
ATOM     23  C   UNL     1      -3.287  10.109  14.045  0.00  0.00    +0.000 C 
ATOM     24  O   UNL     1      -2.899  10.864  15.187  0.00  0.00    +0.000 OA
ENDBRANCH  22  24
ENDBRANCH  21  22
ENDBRANCH  17  21
ENDBRANCH  11  18
ENDBRANCH  10  14
ENDBRANCH   1  10
BRANCH   9  25
ATOM     25  C   UNL     1       4.131   6.015  19.416  0.00  0.00    +0.000 C 
BRANCH  25  26
ATOM     26  C   UNL     1       4.925   5.791  18.173  0.00  0.00    +0.000 A 
ATOM     27  C   UNL     1       4.508   6.277  16.937  0.00  0.00    +0.000 A 
ATOM     28  C   UNL     1       5.289   6.039  15.815  0.00  0.00    +0.000 A 
ATOM     29  C   UNL     1       6.500   5.339  15.927  0.00  0.00    +0.000 A 
ATOM     30  C   UNL     1       7.266   4.938  14.708  0.00  0.00    +0.000 C 
ATOM     31  C   UNL     1       6.976   4.978  17.185  0.00  0.00    +0.000 A 
ATOM     32  C   UNL     1       6.194   5.205  18.306  0.00  0.00    +0.000 A 
ENDBRANCH  25  26
ENDBRANCH   9  25
TORSDOF 8
ENDMDL
MODEL 9
REMARK VINA RESULT:      -7.5      3.844      8.293
REMARK  Name = 
REMARK  10 active torsions:
REMARK  status: ('A' for Active; 'I' for Inactive)
REMARK    1  A    between atoms: C_1  and  O_2
REMARK    2  A    between atoms: O_2  and  C_3
REMARK    3  A    between atoms: C_3  and  C_4
REMARK    4  A    between atoms: C_4  and  N_5
REMARK    5  A    between atoms: C_6  and  C_8
REMARK    6  A    between atoms: N_11  and  C_12
REMARK    7  A    between atoms: C_12  and  C_13
REMARK    8  A    between atoms: N_21  and  C_22
REMARK    9  A    between atoms: C_22  and  C_23
REMARK   10  A    between atoms: C_26  and  C_27
REMARK                            x       y       z     vdW  Elec       q    Type
REMARK                         _______ _______ _______ _____ _____    ______ ____
ROOT
ATOM      1  C   UNL     1       2.392   6.559  19.682  0.00  0.00    +0.000 A 
ATOM      2  C   UNL     1       1.378   5.823  20.281  0.00  0.00    +0.000 A 
ATOM      3  C   UNL     1       1.848   4.509  20.557  0.00  0.00    +0.000 A 
ATOM      4  C   UNL     1       1.271   3.358  21.135  0.00  0.00    +0.000 A 
ATOM      5  C   UNL     1       2.041   2.199  21.301  0.00  0.00    +0.000 A 
ATOM      6  C   UNL     1       3.377   2.181  20.912  0.00  0.00    +0.000 A 
ATOM      7  C   UNL     1       3.964   3.306  20.324  0.00  0.00    +0.000 A 
ATOM      8  C   UNL     1       3.172   4.455  20.126  0.00  0.00    +0.000 A 
ATOM      9  N   UNL     1       3.448   5.661  19.504  0.00  0.00    +0.000 N 
ENDROOT
BRANCH   1  10
ATOM     10  C   UNL     1       2.306   7.973  19.119  0.00  0.00    +0.000 C 
BRANCH  10  14
ATOM     11  C   UNL     1       0.134  11.633  19.887  0.00  0.00    +0.000 C 
ATOM     12  C   UNL     1       0.041  10.528  20.934  0.00  0.00    +0.000 C 
ATOM     13  C   UNL     1       1.093   9.458  20.659  0.00  0.00    +0.000 C 
ATOM     14  N   UNL     1       1.074   8.798  19.355  0.00  0.00    +0.000 NA
ATOM     15  C   UNL     1       0.993   9.811  18.283  0.00  0.00    +0.000 C 
ATOM     16  C   UNL     1      -0.003  10.967  18.515  0.00  0.00    +0.000 C 
BRANCH  11  18
ATOM     17  N   UNL     1       1.976  12.989  18.930  0.00  0.00    +0.000 N 
ATOM     18  C   UNL     1       1.412  12.469  20.079  0.00  0.00    +0.000 C 
ATOM     19  O   UNL     1       1.892  12.715  21.186  0.00  0.00    +0.000 OA
ATOM     20  H   UNL     1       1.363  13.130  18.136  0.00  0.00    +0.000 HD
BRANCH  17  21
ATOM     21  C   UNL     1       3.069  13.940  19.083  0.00  0.00    +0.000 C 
BRANCH  21  22
ATOM     22  C   UNL     1       3.168  14.946  17.941  0.00  0.00    +0.000 C 
BRANCH  22  24
ATOM     23  C   UNL     1       1.985  16.934  18.392  0.00  0.00    +0.000 C 
ATOM     24  O   UNL     1       3.240  16.268  18.483  0.00  0.00    +0.000 OA
ENDBRANCH  22  24
ENDBRANCH  21  22
ENDBRANCH  17  21
ENDBRANCH  11  18
ENDBRANCH  10  14
ENDBRANCH   1  10
BRANCH   9  25
ATOM     25  C   UNL     1       4.716   5.998  18.867  0.00  0.00    +0.000 C 
BRANCH  25  26
ATOM     26  C   UNL     1       5.009   5.540  17.477  0.00  0.00    +0.000 A 
ATOM     27  C   UNL     1       5.027   6.422  16.401  0.00  0.00    +0.000 A 
ATOM     28  C   UNL     1       5.307   5.940  15.131  0.00  0.00    +0.000 A 
ATOM     29  C   UNL     1       5.597   4.581  14.935  0.00  0.00    +0.000 A 
ATOM     30  C   UNL     1       5.740   4.021  13.556  0.00  0.00    +0.000 C 
ATOM     31  C   UNL     1       5.712   3.733  16.034  0.00  0.00    +0.000 A 
ATOM     32  C   UNL     1       5.424   4.210  17.302  0.00  0.00    +0.000 A 
ENDBRANCH  25  26
ENDBRANCH   9  25
TORSDOF 8
ENDMDL
