MODEL 1
REMARK VINA RESULT:      -7.0      0.000      0.000
REMARK  Name = 
REMARK  4 active torsions:
REMARK  status: ('A' for Active; 'I' for Inactive)
REMARK    1  A    between atoms: C_1  and  C_2
REMARK    2  A    between atoms: C_9  and  C_10
REMARK    3  A    between atoms: C_9  and  O_11
REMARK    4  A    between atoms: C_12  and  O_13
REMARK                            x       y       z     vdW  Elec       q    Type
REMARK                         _______ _______ _______ _____ _____    ______ ____
ROOT
ATOM      1  C   UNL     1       8.213   8.220  17.804  0.00  0.00    +0.000 C 
ATOM      2  C   UNL     1       7.200   7.124  17.852  0.00  0.00    +0.000 A 
ATOM      3  C   UNL     1       5.997   7.218  17.180  0.00  0.00    +0.000 A 
ATOM      4  C   UNL     1       5.094   6.170  17.281  0.00  0.00    +0.000 A 
ATOM      5  C   UNL     1       5.388   5.059  18.062  0.00  0.00    +0.000 A 
ATOM      6  N   UNL     1       4.400   4.115  18.290  0.00  0.00    +0.000 N 
ATOM      7  C   UNL     1       4.483   3.288  19.489  0.00  0.00    +0.000 C 
ATOM      8  C   UNL     1       3.040   3.071  19.966  0.00  0.00    +0.000 C 
ATOM      9  C   UNL     1       2.138   2.494  18.851  0.00  0.00    +0.000 C 
ATOM     10  C   UNL     1       0.674   2.518  19.309  0.00  0.00    +0.000 C 
ATOM     11  C   UNL     1       2.295   3.266  17.509  0.00  0.00    +0.000 C 
ATOM     12  C   UNL     1       3.781   3.433  17.146  0.00  0.00    +0.000 C 
ATOM     13  N   UNL     1       6.578   5.004  18.695  0.00  0.00    +0.000 NA
ATOM     14  N   UNL     1       7.496   6.028  18.578  0.00  0.00    +0.000 NA
ENDROOT
BRANCH   9  15
ATOM     15  O   UNL     1       2.510   1.124  18.637  0.00  0.00    +0.000 OA
ATOM     16  H   UNL     1       2.011   0.797  17.867  0.00  0.00    +0.000 HD
ENDBRANCH   9  15
BRANCH  11  17
ATOM     17  O   UNL     1       1.722   4.583  17.613  0.00  0.00    +0.000 OA
ATOM     18  H   UNL     1       0.877   4.524  17.121  0.00  0.00    +0.000 HD
ENDBRANCH  11  17
TORSDOF 2
ENDMDL
MODEL 2
REMARK VINA RESULT:      -6.9      2.342      2.617
REMARK  Name = 
REMARK  4 active torsions:
REMARK  status: ('A' for Active; 'I' for Inactive)
REMARK    1  A    between atoms: C_1  and  C_2
REMARK    2  A    between atoms: C_9  and  C_10
REMARK    3  A    between atoms: C_9  and  O_11
REMARK    4  A    between atoms: C_12  and  O_13
REMARK                            x       y       z     vdW  Elec       q    Type
REMARK                         _______ _______ _______ _____ _____    ______ ____
ROOT
ATOM      1  C   UNL     1       7.818   5.211  13.404  0.00  0.00    +0.000 C 
ATOM      2  C   UNL     1       6.937   4.787  14.532  0.00  0.00    +0.000 A 
ATOM      3  C   UNL     1       5.648   4.340  14.318  0.00  0.00    +0.000 A 
ATOM      4  C   UNL     1       4.877   3.978  15.413  0.00  0.00    +0.000 A 
ATOM      5  C   UNL     1       5.388   4.086  16.701  0.00  0.00    +0.000 A 
ATOM      6  N   UNL     1       4.542   3.892  17.780  0.00  0.00    +0.000 N 
ATOM      7  C   UNL     1       4.876   4.518  19.055  0.00  0.00    +0.000 C 
ATOM      8  C   UNL     1       3.544   4.931  19.696  0.00  0.00    +0.000 C 
ATOM      9  C   UNL     1       2.555   3.747  19.803  0.00  0.00    +0.000 C 
ATOM     10  C   UNL     1       1.176   4.264  20.230  0.00  0.00    +0.000 C 
ATOM     11  C   UNL     1       2.443   2.953  18.469  0.00  0.00    +0.000 C 
ATOM     12  C   UNL     1       3.839   2.609  17.919  0.00  0.00    +0.000 C 
ATOM     13  N   UNL     1       6.655   4.520  16.865  0.00  0.00    +0.000 NA
ATOM     14  N   UNL     1       7.441   4.854  15.780  0.00  0.00    +0.000 NA
ENDROOT
BRANCH   9  15
ATOM     15  O   UNL     1       3.028   2.859  20.827  0.00  0.00    +0.000 OA
ATOM     16  H   UNL     1       3.029   3.348  21.669  0.00  0.00    +0.000 HD
ENDBRANCH   9  15
BRANCH  11  17
ATOM     17  O   UNL     1       1.762   3.734  17.470  0.00  0.00    +0.000 OA
ATOM     18  H   UNL     1       2.034   4.657  17.650  0.00  0.00    +0.000 HD
ENDBRANCH  11  17
TORSDOF 2
ENDMDL
MODEL 3
REMARK VINA RESULT:      -6.8      2.478      5.982
REMARK  Name = 
REMARK  4 active torsions:
REMARK  status: ('A' for Active; 'I' for Inactive)
REMARK    1  A    between atoms: C_1  and  C_2
REMARK    2  A    between atoms: C_9  and  C_10
REMARK    3  A    between atoms: C_9  and  O_11
REMARK    4  A    between atoms: C_12  and  O_13
REMARK                            x       y       z     vdW  Elec       q    Type
REMARK                         _______ _______ _______ _____ _____    ______ ____
ROOT
ATOM      1  C   UNL     1       0.512   2.087  19.211  0.00  0.00    +0.000 C 
ATOM      2  C   UNL     1       1.783   2.770  18.823  0.00  0.00    +0.000 A 
ATOM      3  C   UNL     1       2.889   2.767  19.648  0.00  0.00    +0.000 A 
ATOM      4  C   UNL     1       4.032   3.437  19.234  0.00  0.00    +0.000 A 
ATOM      5  C   UNL     1       4.050   4.114  18.021  0.00  0.00    +0.000 A 
ATOM      6  N   UNL     1       5.135   4.920  17.716  0.00  0.00    +0.000 N 
ATOM      7  C   UNL     1       4.947   6.023  16.779  0.00  0.00    +0.000 C 
ATOM      8  C   UNL     1       5.838   7.169  17.277  0.00  0.00    +0.000 C 
ATOM      9  C   UNL     1       7.309   6.727  17.461  0.00  0.00    +0.000 C 
ATOM     10  C   UNL     1       8.095   7.836  18.173  0.00  0.00    +0.000 C 
ATOM     11  C   UNL     1       7.426   5.391  18.250  0.00  0.00    +0.000 C 
ATOM     12  C   UNL     1       6.478   4.328  17.668  0.00  0.00    +0.000 C 
ATOM     13  N   UNL     1       2.950   4.084  17.241  0.00  0.00    +0.000 NA
ATOM     14  N   UNL     1       1.818   3.397  17.630  0.00  0.00    +0.000 NA
ENDROOT
BRANCH   9  15
ATOM     15  O   UNL     1       7.888   6.543  16.160  0.00  0.00    +0.000 OA
ATOM     16  H   UNL     1       7.178   6.645  15.500  0.00  0.00    +0.000 HD
ENDBRANCH   9  15
BRANCH  11  17
ATOM     17  O   UNL     1       7.068   5.586  19.631  0.00  0.00    +0.000 OA
ATOM     18  H   UNL     1       6.709   6.496  19.667  0.00  0.00    +0.000 HD
ENDBRANCH  11  17
TORSDOF 2
ENDMDL
MODEL 4
REMARK VINA RESULT:      -6.8      2.537      3.226
REMARK  Name = 
REMARK  4 active torsions:
REMARK  status: ('A' for Active; 'I' for Inactive)
REMARK    1  A    between atoms: C_1  and  C_2
REMARK    2  A    between atoms: C_9  and  C_10
REMARK    3  A    between atoms: C_9  and  O_11
REMARK    4  A    between atoms: C_12  and  O_13
REMARK                            x       y       z     vdW  Elec       q    Type
REMARK                         _______ _______ _______ _____ _____    ______ ____
ROOT
ATOM      1  C   UNL     1       7.204   4.975  13.263  0.00  0.00    +0.000 C 
ATOM      2  C   UNL     1       6.458   4.895  14.554  0.00  0.00    +0.000 A 
ATOM      3  C   UNL     1       6.244   3.691  15.195  0.00  0.00    +0.000 A 
ATOM      4  C   UNL     1       5.527   3.686  16.383  0.00  0.00    +0.000 A 
ATOM      5  C   UNL     1       5.017   4.869  16.902  0.00  0.00    +0.000 A 
ATOM      6  N   UNL     1       4.156   4.813  17.987  0.00  0.00    +0.000 N 
ATOM      7  C   UNL     1       3.210   5.906  18.188  0.00  0.00    +0.000 C 
ATOM      8  C   UNL     1       1.927   5.270  18.740  0.00  0.00    +0.000 C 
ATOM      9  C   UNL     1       2.196   4.414  20.000  0.00  0.00    +0.000 C 
ATOM     10  C   UNL     1       0.932   3.625  20.366  0.00  0.00    +0.000 C 
ATOM     11  C   UNL     1       3.398   3.445  19.807  0.00  0.00    +0.000 C 
ATOM     12  C   UNL     1       4.616   4.194  19.237  0.00  0.00    +0.000 C 
ATOM     13  N   UNL     1       5.256   6.025  16.248  0.00  0.00    +0.000 NA
ATOM     14  N   UNL     1       5.993   6.045  15.081  0.00  0.00    +0.000 NA
ENDROOT
BRANCH   9  15
ATOM     15  O   UNL     1       2.492   5.300  21.090  0.00  0.00    +0.000 OA
ATOM     16  H   UNL     1       3.206   5.897  20.803  0.00  0.00    +0.000 HD
ENDBRANCH   9  15
BRANCH  11  17
ATOM     17  O   UNL     1       3.060   2.396  18.881  0.00  0.00    +0.000 OA
ATOM     18  H   UNL     1       3.126   1.572  19.406  0.00  0.00    +0.000 HD
ENDBRANCH  11  17
TORSDOF 2
ENDMDL
MODEL 5
REMARK VINA RESULT:      -6.6      3.329      4.036
REMARK  Name = 
REMARK  4 active torsions:
REMARK  status: ('A' for Active; 'I' for Inactive)
REMARK    1  A    between atoms: C_1  and  C_2
REMARK    2  A    between atoms: C_9  and  C_10
REMARK    3  A    between atoms: C_9  and  O_11
REMARK    4  A    between atoms: C_12  and  O_13
REMARK                            x       y       z     vdW  Elec       q    Type
REMARK                         _______ _______ _______ _____ _____    ______ ____
ROOT
ATOM      1  C   UNL     1       0.725  10.481  18.877  0.00  0.00    +0.000 C 
ATOM      2  C   UNL     1       1.447   9.174  18.935  0.00  0.00    +0.000 A 
ATOM      3  C   UNL     1       2.044   8.625  17.818  0.00  0.00    +0.000 A 
ATOM      4  C   UNL     1       2.682   7.399  17.939  0.00  0.00    +0.000 A 
ATOM      5  C   UNL     1       2.700   6.731  19.156  0.00  0.00    +0.000 A 
ATOM      6  N   UNL     1       3.184   5.433  19.206  0.00  0.00    +0.000 N 
ATOM      7  C   UNL     1       2.720   4.552  20.272  0.00  0.00    +0.000 C 
ATOM      8  C   UNL     1       2.616   3.149  19.658  0.00  0.00    +0.000 C 
ATOM      9  C   UNL     1       3.937   2.705  18.990  0.00  0.00    +0.000 C 
ATOM     10  C   UNL     1       3.706   1.410  18.200  0.00  0.00    +0.000 C 
ATOM     11  C   UNL     1       4.523   3.806  18.059  0.00  0.00    +0.000 C 
ATOM     12  C   UNL     1       4.563   5.166  18.778  0.00  0.00    +0.000 C 
ATOM     13  N   UNL     1       2.111   7.307  20.225  0.00  0.00    +0.000 NA
ATOM     14  N   UNL     1       1.498   8.540  20.123  0.00  0.00    +0.000 NA
ENDROOT
BRANCH   9  15
ATOM     15  O   UNL     1       4.892   2.425  20.025  0.00  0.00    +0.000 OA
ATOM     16  H   UNL     1       5.263   1.540  19.856  0.00  0.00    +0.000 HD
ENDBRANCH   9  15
BRANCH  11  17
ATOM     17  O   UNL     1       3.708   3.960  16.882  0.00  0.00    +0.000 OA
ATOM     18  H   UNL     1       2.788   3.951  17.216  0.00  0.00    +0.000 HD
ENDBRANCH  11  17
TORSDOF 2
ENDMDL
MODEL 6
REMARK VINA RESULT:      -6.3      3.794      4.381
REMARK  Name = 
REMARK  4 active torsions:
REMARK  status: ('A' for Active; 'I' for Inactive)
REMARK    1  A    between atoms: C_1  and  C_2
REMARK    2  A    between atoms: C_9  and  C_10
REMARK    3  A    between atoms: C_9  and  O_11
REMARK    4  A    between atoms: C_12  and  O_13
REMARK                            x       y       z     vdW  Elec       q    Type
REMARK                         _______ _______ _______ _____ _____    ______ ____
ROOT
ATOM      1  C   UNL     1       0.696  11.253  18.906  0.00  0.00    +0.000 C 
ATOM      2  C   UNL     1       1.237   9.870  19.068  0.00  0.00    +0.000 A 
ATOM      3  C   UNL     1       1.881   9.217  18.035  0.00  0.00    +0.000 A 
ATOM      4  C   UNL     1       2.343   7.926  18.248  0.00  0.00    +0.000 A 
ATOM      5  C   UNL     1       2.141   7.299  19.471  0.00  0.00    +0.000 A 
ATOM      6  N   UNL     1       2.450   5.954  19.598  0.00  0.00    +0.000 N 
ATOM      7  C   UNL     1       1.763   5.170  20.618  0.00  0.00    +0.000 C 
ATOM      8  C   UNL     1       1.553   3.772  20.020  0.00  0.00    +0.000 C 
ATOM      9  C   UNL     1       2.874   3.149  19.514  0.00  0.00    +0.000 C 
ATOM     10  C   UNL     1       2.570   1.868  18.725  0.00  0.00    +0.000 C 
ATOM     11  C   UNL     1       3.693   4.140  18.637  0.00  0.00    +0.000 C 
ATOM     12  C   UNL     1       3.823   5.505  19.334  0.00  0.00    +0.000 C 
ATOM     13  N   UNL     1       1.515   7.976  20.456  0.00  0.00    +0.000 NA
ATOM     14  N   UNL     1       1.077   9.271  20.264  0.00  0.00    +0.000 NA
ENDROOT
BRANCH   9  15
ATOM     15  O   UNL     1       3.665   2.785  20.655  0.00  0.00    +0.000 OA
ATOM     16  H   UNL     1       3.118   2.913  21.451  0.00  0.00    +0.000 HD
ENDBRANCH   9  15
BRANCH  11  17
ATOM     17  O   UNL     1       3.039   4.357  17.373  0.00  0.00    +0.000 OA
ATOM     18  H   UNL     1       2.935   5.328  17.312  0.00  0.00    +0.000 HD
ENDBRANCH  11  17
TORSDOF 2
ENDMDL
MODEL 7
REMARK VINA RESULT:      -6.2      2.276      2.746
REMARK  Name = 
REMARK  4 active torsions:
REMARK  status: ('A' for Active; 'I' for Inactive)
REMARK    1  A    between atoms: C_1  and  C_2
REMARK    2  A    between atoms: C_9  and  C_10
REMARK    3  A    between atoms: C_9  and  O_11
REMARK    4  A    between atoms: C_12  and  O_13
REMARK                            x       y       z     vdW  Elec       q    Type
REMARK                         _______ _______ _______ _____ _____    ______ ____
ROOT
ATOM      1  C   UNL     1       7.451   5.329  14.502  0.00  0.00    +0.000 C 
ATOM      2  C   UNL     1       6.304   5.056  15.419  0.00  0.00    +0.000 A 
ATOM      3  C   UNL     1       6.009   5.889  16.480  0.00  0.00    +0.000 A 
ATOM      4  C   UNL     1       4.940   5.566  17.303  0.00  0.00    +0.000 A 
ATOM      5  C   UNL     1       4.197   4.415  17.074  0.00  0.00    +0.000 A 
ATOM      6  N   UNL     1       3.254   4.023  18.011  0.00  0.00    +0.000 N 
ATOM      7  C   UNL     1       2.885   2.614  18.088  0.00  0.00    +0.000 C 
ATOM      8  C   UNL     1       2.643   2.310  19.573  0.00  0.00    +0.000 C 
ATOM      9  C   UNL     1       1.616   3.277  20.206  0.00  0.00    +0.000 C 
ATOM     10  C   UNL     1       1.590   3.077  21.727  0.00  0.00    +0.000 C 
ATOM     11  C   UNL     1       1.920   4.764  19.863  0.00  0.00    +0.000 C 
ATOM     12  C   UNL     1       2.158   4.939  18.353  0.00  0.00    +0.000 C 
ATOM     13  N   UNL     1       4.514   3.633  16.021  0.00  0.00    +0.000 NA
ATOM     14  N   UNL     1       5.557   3.960  15.178  0.00  0.00    +0.000 NA
ENDROOT
BRANCH   9  15
ATOM     15  O   UNL     1       0.315   2.947  19.696  0.00  0.00    +0.000 OA
ATOM     16  H   UNL     1       0.310   3.145  18.742  0.00  0.00    +0.000 HD
ENDBRANCH   9  15
BRANCH  11  17
ATOM     17  O   UNL     1       3.108   5.208  20.545  0.00  0.00    +0.000 OA
ATOM     18  H   UNL     1       2.940   6.152  20.745  0.00  0.00    +0.000 HD
ENDBRANCH  11  17
TORSDOF 2
ENDMDL
MODEL 8
REMARK VINA RESULT:      -6.0      3.572      4.931
REMARK  Name = 
REMARK  4 active torsions:
REMARK  status: ('A' for Active; 'I' for Inactive)
REMARK    1  A    between atoms: C_1  and  C_2
REMARK    2  A    between atoms: C_9  and  C_10
REMARK    3  A    between atoms: C_9  and  O_11
REMARK    4  A    between atoms: C_12  and  O_13
REMARK                            x       y       z     vdW  Elec       q    Type
REMARK                         _______ _______ _______ _____ _____    ______ ____
ROOT
ATOM      1  C   UNL     1       0.325   9.407  20.008  0.00  0.00    +0.000 C 
ATOM      2  C   UNL     1       1.441   8.620  19.402  0.00  0.00    +0.000 A 
ATOM      3  C   UNL     1       2.071   9.027  18.243  0.00  0.00    +0.000 A 
ATOM      4  C   UNL     1       3.088   8.239  17.725  0.00  0.00    +0.000 A 
ATOM      5  C   UNL     1       3.448   7.052  18.351  0.00  0.00    +0.000 A 
ATOM      6  N   UNL     1       4.337   6.198  17.718  0.00  0.00    +0.000 N 
ATOM      7  C   UNL     1       4.300   4.778  18.047  0.00  0.00    +0.000 C 
ATOM      8  C   UNL     1       4.606   4.025  16.745  0.00  0.00    +0.000 C 
ATOM      9  C   UNL     1       5.926   4.498  16.093  0.00  0.00    +0.000 C 
ATOM     10  C   UNL     1       6.059   3.883  14.694  0.00  0.00    +0.000 C 
ATOM     11  C   UNL     1       6.017   6.049  16.012  0.00  0.00    +0.000 C 
ATOM     12  C   UNL     1       5.677   6.689  17.369  0.00  0.00    +0.000 C 
ATOM     13  N   UNL     1       2.812   6.695  19.486  0.00  0.00    +0.000 NA
ATOM     14  N   UNL     1       1.818   7.487  20.027  0.00  0.00    +0.000 NA
ENDROOT
BRANCH   9  15
ATOM     15  O   UNL     1       7.018   4.016  16.891  0.00  0.00    +0.000 OA
ATOM     16  H   UNL     1       7.010   4.505  17.734  0.00  0.00    +0.000 HD
ENDBRANCH   9  15
BRANCH  11  17
ATOM     17  O   UNL     1       5.084   6.561  15.043  0.00  0.00    +0.000 OA
ATOM     18  H   UNL     1       5.612   6.675  14.226  0.00  0.00    +0.000 HD
ENDBRANCH  11  17
TORSDOF 2
ENDMDL
MODEL 9
REMARK VINA RESULT:      -5.9      2.478      5.742
REMARK  Name = 
REMARK  4 active torsions:
REMARK  status: ('A' for Active; 'I' for Inactive)
REMARK    1  A    between atoms: C_1  and  C_2
REMARK    2  A    between atoms: C_9  and  C_10
REMARK    3  A    between atoms: C_9  and  O_11
REMARK    4  A    between atoms: C_12  and  O_13
REMARK                            x       y       z     vdW  Elec       q    Type
REMARK                         _______ _______ _______ _____ _____    ______ ____
ROOT
ATOM      1  C   UNL     1       1.070   2.385  22.257  0.00  0.00    +0.000 C 
ATOM      2  C   UNL     1       1.895   2.913  21.129  0.00  0.00    +0.000 A 
ATOM      3  C   UNL     1       3.170   2.445  20.882  0.00  0.00    +0.000 A 
ATOM      4  C   UNL     1       3.889   2.993  19.829  0.00  0.00    +0.000 A 
ATOM      5  C   UNL     1       3.340   4.007  19.054  0.00  0.00    +0.000 A 
ATOM      6  N   UNL     1       4.141   4.657  18.129  0.00  0.00    +0.000 N 
ATOM      7  C   UNL     1       3.791   6.016  17.731  0.00  0.00    +0.000 C 
ATOM      8  C   UNL     1       5.117   6.761  17.523  0.00  0.00    +0.000 C 
ATOM      9  C   UNL     1       6.051   6.024  16.535  0.00  0.00    +0.000 C 
ATOM     10  C   UNL     1       7.436   6.683  16.546  0.00  0.00    +0.000 C 
ATOM     11  C   UNL     1       6.174   4.507  16.863  0.00  0.00    +0.000 C 
ATOM     12  C   UNL     1       4.784   3.878  17.064  0.00  0.00    +0.000 C 
ATOM     13  N   UNL     1       2.087   4.429  19.325  0.00  0.00    +0.000 NA
ATOM     14  N   UNL     1       1.353   3.871  20.352  0.00  0.00    +0.000 NA
ENDROOT
BRANCH   9  15
ATOM     15  O   UNL     1       5.507   6.164  15.214  0.00  0.00    +0.000 OA
ATOM     16  H   UNL     1       6.094   6.758  14.711  0.00  0.00    +0.000 HD
ENDBRANCH   9  15
BRANCH  11  17
ATOM     17  O   UNL     1       6.921   4.311  18.079  0.00  0.00    +0.000 OA
ATOM     18  H   UNL     1       7.626   4.989  18.047  0.00  0.00    +0.000 HD
ENDBRANCH  11  17
TORSDOF 2
ENDMDL
