MODEL 1
REMARK VINA RESULT:      -8.2      0.000      0.000
REMARK  Name = 
REMARK  9 active torsions:
REMARK  status: ('A' for Active; 'I' for Inactive)
REMARK    1  A    between atoms: C_1  and  C_2
REMARK    2  A    between atoms: C_2  and  C_3
REMARK    3  A    between atoms: C_8  and  O_9
REMARK    4  A    between atoms: O_9  and  S_10
REMARK    5  A    between atoms: S_10  and  N_11
REMARK    6  A    between atoms: C_20  and  C_21
REMARK    7  A    between atoms: C_22  and  C_23
REMARK    8  A    between atoms: C_23  and  O_24
REMARK    9  A    between atoms: O_24  and  C_25
REMARK                            x       y       z     vdW  Elec       q    Type
REMARK                         _______ _______ _______ _____ _____    ______ ____
ROOT
ATOM      1  C   UNL     1       0.015   9.745  21.241  0.00  0.00    +0.000 A 
ATOM      2  C   UNL     1       0.787   8.577  21.069  0.00  0.00    +0.000 A 
ATOM      3  C   UNL     1       1.504   8.302  19.895  0.00  0.00    +0.000 A 
ATOM      4  C   UNL     1       1.516   9.273  18.885  0.00  0.00    +0.000 A 
ATOM      5  C   UNL     1       0.762  10.445  19.047  0.00  0.00    +0.000 A 
ATOM      6  C   UNL     1      -0.009  10.679  20.195  0.00  0.00    +0.000 A 
ATOM      7  C   UNL     1       2.260   9.083  17.585  0.00  0.00    +0.000 C 
ATOM      8  C   UNL     1       3.278   7.947  17.624  0.00  0.00    +0.000 C 
ATOM      9  C   UNL     1       2.638   6.716  18.268  0.00  0.00    +0.000 C 
ATOM     10  C   UNL     1       2.334   7.032  19.763  0.00  0.00    +0.000 C 
ATOM     11  C   UNL     1       1.753   5.801  20.505  0.00  0.00    +0.000 C 
ATOM     12  C   UNL     1       2.580   4.521  20.304  0.00  0.00    +0.000 C 
ATOM     13  C   UNL     1       2.819   4.235  18.818  0.00  0.00    +0.000 C 
ATOM     14  C   UNL     1       1.474   3.868  18.140  0.00  0.00    +0.000 C 
ATOM     15  C   UNL     1       3.895   3.162  18.534  0.00  0.00    +0.000 C 
ATOM     16  C   UNL     1       4.376   3.497  17.101  0.00  0.00    +0.000 C 
ATOM     17  C   UNL     1       4.008   4.971  16.850  0.00  0.00    +0.000 C 
ATOM     18  C   UNL     1       3.520   5.470  18.206  0.00  0.00    +0.000 C 
ENDROOT
BRANCH   1  20
ATOM     19  C   UNL     1       0.108   9.403  23.821  0.00  0.00    +0.000 C 
ATOM     20  C   UNL     1      -0.646   9.891  22.596  0.00  0.00    +0.000 C 
ENDBRANCH   1  20
BRANCH   6  21
ATOM     21  O   UNL     1      -0.779  11.811  20.332  0.00  0.00    +0.000 OA
BRANCH  21  22
ATOM     22  S   UNL     1      -2.004  12.135  19.303  0.00  0.00    +0.000 S 
ATOM     23  O   UNL     1      -2.398  10.919  18.637  0.00  0.00    +0.000 OA
ATOM     24  O   UNL     1      -2.961  13.011  19.947  0.00  0.00    +0.000 OA
BRANCH  22  25
ATOM     25  N   UNL     1      -1.282  13.101  18.134  0.00  0.00    +0.000 NA
ATOM     26  H   UNL     1      -0.883  12.551  17.380  0.00  0.00    +0.000 HD
ATOM     27  H   UNL     1      -0.648  13.759  18.580  0.00  0.00    +0.000 HD
ENDBRANCH  22  25
ENDBRANCH  21  22
ENDBRANCH   6  21
BRANCH  15  28
ATOM     28  C   UNL     1       3.455   1.709  18.699  0.00  0.00    +0.000 C 
BRANCH  28  29
ATOM     29  O   UNL     1       4.477   0.993  19.393  0.00  0.00    +0.000 OA
ATOM     30  C   UNL     1       4.867   1.665  20.583  0.00  0.00    +0.000 C 
ENDBRANCH  28  29
ENDBRANCH  15  28
TORSDOF 6
ENDMDL
MODEL 2
REMARK VINA RESULT:      -7.9      0.925      1.319
REMARK  Name = 
REMARK  9 active torsions:
REMARK  status: ('A' for Active; 'I' for Inactive)
REMARK    1  A    between atoms: C_1  and  C_2
REMARK    2  A    between atoms: C_2  and  C_3
REMARK    3  A    between atoms: C_8  and  O_9
REMARK    4  A    between atoms: O_9  and  S_10
REMARK    5  A    between atoms: S_10  and  N_11
REMARK    6  A    between atoms: C_20  and  C_21
REMARK    7  A    between atoms: C_22  and  C_23
REMARK    8  A    between atoms: C_23  and  O_24
REMARK    9  A    between atoms: O_24  and  C_25
REMARK                            x       y       z     vdW  Elec       q    Type
REMARK                         _______ _______ _______ _____ _____    ______ ____
ROOT
ATOM      1  C   UNL     1      -0.020   9.872  21.200  0.00  0.00    +0.000 A 
ATOM      2  C   UNL     1       0.758   8.705  21.051  0.00  0.00    +0.000 A 
ATOM      3  C   UNL     1       1.465   8.402  19.878  0.00  0.00    +0.000 A 
ATOM      4  C   UNL     1       1.461   9.346  18.843  0.00  0.00    +0.000 A 
ATOM      5  C   UNL     1       0.702  10.519  18.981  0.00  0.00    +0.000 A 
ATOM      6  C   UNL     1      -0.059  10.778  20.130  0.00  0.00    +0.000 A 
ATOM      7  C   UNL     1       2.194   9.127  17.540  0.00  0.00    +0.000 C 
ATOM      8  C   UNL     1       3.220   7.998  17.600  0.00  0.00    +0.000 C 
ATOM      9  C   UNL     1       2.594   6.780  18.282  0.00  0.00    +0.000 C 
ATOM     10  C   UNL     1       2.302   7.135  19.771  0.00  0.00    +0.000 C 
ATOM     11  C   UNL     1       1.735   5.920  20.551  0.00  0.00    +0.000 C 
ATOM     12  C   UNL     1       2.568   4.640  20.376  0.00  0.00    +0.000 C 
ATOM     13  C   UNL     1       2.795   4.316  18.895  0.00  0.00    +0.000 C 
ATOM     14  C   UNL     1       1.446   3.924  18.240  0.00  0.00    +0.000 C 
ATOM     15  C   UNL     1       3.874   3.243  18.629  0.00  0.00    +0.000 C 
ATOM     16  C   UNL     1       4.339   3.543  17.183  0.00  0.00    +0.000 C 
ATOM     17  C   UNL     1       3.960   5.007  16.897  0.00  0.00    +0.000 C 
ATOM     18  C   UNL     1       3.482   5.538  18.244  0.00  0.00    +0.000 C 
ENDROOT
BRANCH   1  20
ATOM     19  C   UNL     1       0.011   9.431  23.766  0.00  0.00    +0.000 C 
ATOM     20  C   UNL     1      -0.669  10.049  22.557  0.00  0.00    +0.000 C 
ENDBRANCH   1  20
BRANCH   6  21
ATOM     21  O   UNL     1      -0.835  11.908  20.245  0.00  0.00    +0.000 OA
BRANCH  21  22
ATOM     22  S   UNL     1      -0.199  13.330  20.734  0.00  0.00    +0.000 S 
ATOM     23  O   UNL     1      -1.254  14.168  21.248  0.00  0.00    +0.000 OA
ATOM     24  O   UNL     1       1.025  13.088  21.468  0.00  0.00    +0.000 OA
BRANCH  22  25
ATOM     25  N   UNL     1       0.312  14.039  19.301  0.00  0.00    +0.000 NA
ATOM     26  H   UNL     1       0.560  15.016  19.426  0.00  0.00    +0.000 HD
ATOM     27  H   UNL     1      -0.366  13.850  18.566  0.00  0.00    +0.000 HD
ENDBRANCH  22  25
ENDBRANCH  21  22
ENDBRANCH   6  21
BRANCH  15  28
ATOM     28  C   UNL     1       3.445   1.792  18.837  0.00  0.00    +0.000 C 
BRANCH  28  29
ATOM     29  O   UNL     1       4.513   1.079  19.461  0.00  0.00    +0.000 OA
ATOM     30  C   UNL     1       4.889   1.680  20.693  0.00  0.00    +0.000 C 
ENDBRANCH  28  29
ENDBRANCH  15  28
TORSDOF 6
ENDMDL
MODEL 3
REMARK VINA RESULT:      -7.9      3.845      8.761
REMARK  Name = 
REMARK  9 active torsions:
REMARK  status: ('A' for Active; 'I' for Inactive)
REMARK    1  A    between atoms: C_1  and  C_2
REMARK    2  A    between atoms: C_2  and  C_3
REMARK    3  A    between atoms: C_8  and  O_9
REMARK    4  A    between atoms: O_9  and  S_10
REMARK    5  A    between atoms: S_10  and  N_11
REMARK    6  A    between atoms: C_20  and  C_21
REMARK    7  A    between atoms: C_22  and  C_23
REMARK    8  A    between atoms: C_23  and  O_24
REMARK    9  A    between atoms: O_24  and  C_25
REMARK                            x       y       z     vdW  Elec       q    Type
REMARK                         _______ _______ _______ _____ _____    ______ ____
ROOT
ATOM      1  C   UNL     1       3.960   5.583  17.444  0.00  0.00    +0.000 A 
ATOM      2  C   UNL     1       3.527   6.896  17.721  0.00  0.00    +0.000 A 
ATOM      3  C   UNL     1       2.686   7.212  18.798  0.00  0.00    +0.000 A 
ATOM      4  C   UNL     1       2.331   6.184  19.682  0.00  0.00    +0.000 A 
ATOM      5  C   UNL     1       2.765   4.874  19.427  0.00  0.00    +0.000 A 
ATOM      6  C   UNL     1       3.547   4.557  18.306  0.00  0.00    +0.000 A 
ATOM      7  C   UNL     1       1.438   6.413  20.878  0.00  0.00    +0.000 C 
ATOM      8  C   UNL     1       1.275   7.886  21.246  0.00  0.00    +0.000 C 
ATOM      9  C   UNL     1       0.996   8.696  19.978  0.00  0.00    +0.000 C 
ATOM     10  C   UNL     1       2.257   8.649  19.064  0.00  0.00    +0.000 C 
ATOM     11  C   UNL     1       2.077   9.514  17.790  0.00  0.00    +0.000 C 
ATOM     12  C   UNL     1       1.586  10.940  18.086  0.00  0.00    +0.000 C 
ATOM     13  C   UNL     1       0.325  10.930  18.956  0.00  0.00    +0.000 C 
ATOM     14  C   UNL     1      -0.856  10.336  18.146  0.00  0.00    +0.000 C 
ATOM     15  C   UNL     1      -0.051  12.302  19.561  0.00  0.00    +0.000 C 
ATOM     16  C   UNL     1      -0.893  11.934  20.807  0.00  0.00    +0.000 C 
ATOM     17  C   UNL     1      -0.520  10.486  21.173  0.00  0.00    +0.000 C 
ATOM     18  C   UNL     1       0.652  10.158  20.255  0.00  0.00    +0.000 C 
ENDROOT
BRANCH   1  20
ATOM     19  C   UNL     1       6.389   5.667  16.508  0.00  0.00    +0.000 C 
ATOM     20  C   UNL     1       4.905   5.447  16.268  0.00  0.00    +0.000 C 
ENDBRANCH   1  20
BRANCH   6  21
ATOM     21  O   UNL     1       3.935   3.265  18.035  0.00  0.00    +0.000 OA
BRANCH  21  22
ATOM     22  S   UNL     1       3.764   2.077  19.142  0.00  0.00    +0.000 S 
ATOM     23  O   UNL     1       4.772   2.229  20.160  0.00  0.00    +0.000 OA
ATOM     24  O   UNL     1       2.361   1.907  19.459  0.00  0.00    +0.000 OA
BRANCH  22  25
ATOM     25  N   UNL     1       4.164   0.690  18.285  0.00  0.00    +0.000 NA
ATOM     26  H   UNL     1       4.975   0.221  18.676  0.00  0.00    +0.000 HD
ATOM     27  H   UNL     1       4.218   0.906  17.292  0.00  0.00    +0.000 HD
ENDBRANCH  22  25
ENDBRANCH  21  22
ENDBRANCH   6  21
BRANCH  15  28
ATOM     28  C   UNL     1      -0.757  13.280  18.623  0.00  0.00    +0.000 C 
BRANCH  28  29
ATOM     29  O   UNL     1      -0.320  14.605  18.923  0.00  0.00    +0.000 OA
ATOM     30  C   UNL     1       1.097  14.709  18.880  0.00  0.00    +0.000 C 
ENDBRANCH  28  29
ENDBRANCH  15  28
TORSDOF 6
ENDMDL
MODEL 4
REMARK VINA RESULT:      -7.4      3.615      8.649
REMARK  Name = 
REMARK  9 active torsions:
REMARK  status: ('A' for Active; 'I' for Inactive)
REMARK    1  A    between atoms: C_1  and  C_2
REMARK    2  A    between atoms: C_2  and  C_3
REMARK    3  A    between atoms: C_8  and  O_9
REMARK    4  A    between atoms: O_9  and  S_10
REMARK    5  A    between atoms: S_10  and  N_11
REMARK    6  A    between atoms: C_20  and  C_21
REMARK    7  A    between atoms: C_22  and  C_23
REMARK    8  A    between atoms: C_23  and  O_24
REMARK    9  A    between atoms: O_24  and  C_25
REMARK                            x       y       z     vdW  Elec       q    Type
REMARK                         _______ _______ _______ _____ _____    ______ ____
ROOT
ATOM      1  C   UNL     1       3.812   5.570  17.995  0.00  0.00    +0.000 A 
ATOM      2  C   UNL     1       3.402   6.912  18.131  0.00  0.00    +0.000 A 
ATOM      3  C   UNL     1       2.547   7.350  19.153  0.00  0.00    +0.000 A 
ATOM      4  C   UNL     1       2.152   6.423  20.126  0.00  0.00    +0.000 A 
ATOM      5  C   UNL     1       2.562   5.086  20.011  0.00  0.00    +0.000 A 
ATOM      6  C   UNL     1       3.359   4.643  18.945  0.00  0.00    +0.000 A 
ATOM      7  C   UNL     1       1.240   6.788  21.274  0.00  0.00    +0.000 C 
ATOM      8  C   UNL     1       1.102   8.293  21.489  0.00  0.00    +0.000 C 
ATOM      9  C   UNL     1       0.866   8.978  20.142  0.00  0.00    +0.000 C 
ATOM     10  C   UNL     1       2.145   8.815  19.265  0.00  0.00    +0.000 C 
ATOM     11  C   UNL     1       2.009   9.552  17.908  0.00  0.00    +0.000 C 
ATOM     12  C   UNL     1       1.544  11.010  18.050  0.00  0.00    +0.000 C 
ATOM     13  C   UNL     1       0.265  11.112  18.889  0.00  0.00    +0.000 C 
ATOM     14  C   UNL     1      -0.912  10.464  18.116  0.00  0.00    +0.000 C 
ATOM     15  C   UNL     1      -0.092  12.545  19.346  0.00  0.00    +0.000 C 
ATOM     16  C   UNL     1      -0.966  12.319  20.603  0.00  0.00    +0.000 C 
ATOM     17  C   UNL     1      -0.634  10.908  21.119  0.00  0.00    +0.000 C 
ATOM     18  C   UNL     1       0.549  10.467  20.264  0.00  0.00    +0.000 C 
ENDROOT
BRANCH   1  20
ATOM     19  C   UNL     1       5.227   6.469  16.002  0.00  0.00    +0.000 C 
ATOM     20  C   UNL     1       4.777   5.299  16.860  0.00  0.00    +0.000 C 
ENDBRANCH   1  20
BRANCH   6  21
ATOM     21  O   UNL     1       3.724   3.323  18.813  0.00  0.00    +0.000 OA
BRANCH  21  22
ATOM     22  S   UNL     1       2.848   2.286  17.906  0.00  0.00    +0.000 S 
ATOM     23  O   UNL     1       2.069   3.034  16.951  0.00  0.00    +0.000 OA
ATOM     24  O   UNL     1       3.675   1.162  17.520  0.00  0.00    +0.000 OA
BRANCH  22  25
ATOM     25  N   UNL     1       1.756   1.638  19.004  0.00  0.00    +0.000 NA
ATOM     26  H   UNL     1       2.142   0.841  19.500  0.00  0.00    +0.000 HD
ATOM     27  H   UNL     1       0.864   1.478  18.542  0.00  0.00    +0.000 HD
ENDBRANCH  22  25
ENDBRANCH  21  22
ENDBRANCH   6  21
BRANCH  15  28
ATOM     28  C   UNL     1      -0.758  13.438  18.300  0.00  0.00    +0.000 C 
BRANCH  28  29
ATOM     29  O   UNL     1      -0.361  14.790  18.528  0.00  0.00    +0.000 OA
ATOM     30  C   UNL     1       1.016  14.878  18.872  0.00  0.00    +0.000 C 
ENDBRANCH  28  29
ENDBRANCH  15  28
TORSDOF 6
ENDMDL
MODEL 5
REMARK VINA RESULT:      -7.4      4.021      8.305
REMARK  Name = 
REMARK  9 active torsions:
REMARK  status: ('A' for Active; 'I' for Inactive)
REMARK    1  A    between atoms: C_1  and  C_2
REMARK    2  A    between atoms: C_2  and  C_3
REMARK    3  A    between atoms: C_8  and  O_9
REMARK    4  A    between atoms: O_9  and  S_10
REMARK    5  A    between atoms: S_10  and  N_11
REMARK    6  A    between atoms: C_20  and  C_21
REMARK    7  A    between atoms: C_22  and  C_23
REMARK    8  A    between atoms: C_23  and  O_24
REMARK    9  A    between atoms: O_24  and  C_25
REMARK                            x       y       z     vdW  Elec       q    Type
REMARK                         _______ _______ _______ _____ _____    ______ ____
ROOT
ATOM      1  C   UNL     1       3.820   4.997  19.061  0.00  0.00    +0.000 A 
ATOM      2  C   UNL     1       2.754   5.759  19.584  0.00  0.00    +0.000 A 
ATOM      3  C   UNL     1       2.410   7.028  19.095  0.00  0.00    +0.000 A 
ATOM      4  C   UNL     1       3.108   7.519  17.983  0.00  0.00    +0.000 A 
ATOM      5  C   UNL     1       4.163   6.766  17.444  0.00  0.00    +0.000 A 
ATOM      6  C   UNL     1       4.546   5.530  17.986  0.00  0.00    +0.000 A 
ATOM      7  C   UNL     1       2.816   8.868  17.371  0.00  0.00    +0.000 C 
ATOM      8  C   UNL     1       1.481   9.463  17.813  0.00  0.00    +0.000 C 
ATOM      9  C   UNL     1       1.341   9.319  19.330  0.00  0.00    +0.000 C 
ATOM     10  C   UNL     1       1.241   7.805  19.684  0.00  0.00    +0.000 C 
ATOM     11  C   UNL     1       1.019   7.584  21.203  0.00  0.00    +0.000 C 
ATOM     12  C   UNL     1      -0.128   8.426  21.781  0.00  0.00    +0.000 C 
ATOM     13  C   UNL     1       0.036   9.910  21.436  0.00  0.00    +0.000 C 
ATOM     14  C   UNL     1       1.271  10.479  22.181  0.00  0.00    +0.000 C 
ATOM     15  C   UNL     1      -1.218  10.775  21.698  0.00  0.00    +0.000 C 
ATOM     16  C   UNL     1      -1.035  11.982  20.746  0.00  0.00    +0.000 C 
ATOM     17  C   UNL     1      -0.060  11.526  19.645  0.00  0.00    +0.000 C 
ATOM     18  C   UNL     1       0.115  10.032  19.897  0.00  0.00    +0.000 C 
ENDROOT
BRANCH   1  20
ATOM     19  C   UNL     1       2.935   3.120  20.634  0.00  0.00    +0.000 C 
ATOM     20  C   UNL     1       4.006   3.630  19.686  0.00  0.00    +0.000 C 
ENDBRANCH   1  20
BRANCH   6  21
ATOM     21  O   UNL     1       5.608   4.816  17.482  0.00  0.00    +0.000 OA
BRANCH  21  22
ATOM     22  S   UNL     1       7.112   5.448  17.433  0.00  0.00    +0.000 S 
ATOM     23  O   UNL     1       7.358   5.982  16.117  0.00  0.00    +0.000 OA
ATOM     24  O   UNL     1       7.357   6.212  18.637  0.00  0.00    +0.000 OA
BRANCH  22  25
ATOM     25  N   UNL     1       8.103   4.102  17.589  0.00  0.00    +0.000 NA
ATOM     26  H   UNL     1       8.904   4.145  16.966  0.00  0.00    +0.000 HD
ATOM     27  H   UNL     1       7.542   3.256  17.524  0.00  0.00    +0.000 HD
ENDBRANCH  22  25
ENDBRANCH  21  22
ENDBRANCH   6  21
BRANCH  15  28
ATOM     28  C   UNL     1      -1.461  11.183  23.150  0.00  0.00    +0.000 C 
BRANCH  28  29
ATOM     29  O   UNL     1      -2.063  12.478  23.171  0.00  0.00    +0.000 OA
ATOM     30  C   UNL     1      -3.408  12.419  23.628  0.00  0.00    +0.000 C 
ENDBRANCH  28  29
ENDBRANCH  15  28
TORSDOF 6
ENDMDL
MODEL 6
REMARK VINA RESULT:      -7.2      3.622      8.349
REMARK  Name = 
REMARK  9 active torsions:
REMARK  status: ('A' for Active; 'I' for Inactive)
REMARK    1  A    between atoms: C_1  and  C_2
REMARK    2  A    between atoms: C_2  and  C_3
REMARK    3  A    between atoms: C_8  and  O_9
REMARK    4  A    between atoms: O_9  and  S_10
REMARK    5  A    between atoms: S_10  and  N_11
REMARK    6  A    between atoms: C_20  and  C_21
REMARK    7  A    between atoms: C_22  and  C_23
REMARK    8  A    between atoms: C_23  and  O_24
REMARK    9  A    between atoms: O_24  and  C_25
REMARK                            x       y       z     vdW  Elec       q    Type
REMARK                         _______ _______ _______ _____ _____    ______ ____
ROOT
ATOM      1  C   UNL     1       2.445   5.171  20.540  0.00  0.00    +0.000 A 
ATOM      2  C   UNL     1       1.606   6.294  20.695  0.00  0.00    +0.000 A 
ATOM      3  C   UNL     1       1.615   7.383  19.811  0.00  0.00    +0.000 A 
ATOM      4  C   UNL     1       2.439   7.308  18.680  0.00  0.00    +0.000 A 
ATOM      5  C   UNL     1       3.271   6.192  18.506  0.00  0.00    +0.000 A 
ATOM      6  C   UNL     1       3.306   5.140  19.434  0.00  0.00    +0.000 A 
ATOM      7  C   UNL     1       2.521   8.419  17.660  0.00  0.00    +0.000 C 
ATOM      8  C   UNL     1       1.380   9.428  17.763  0.00  0.00    +0.000 C 
ATOM      9  C   UNL     1       1.178   9.816  19.229  0.00  0.00    +0.000 C 
ATOM     10  C   UNL     1       0.678   8.566  20.015  0.00  0.00    +0.000 C 
ATOM     11  C   UNL     1       0.376   8.902  21.498  0.00  0.00    +0.000 C 
ATOM     12  C   UNL     1      -0.523  10.136  21.673  0.00  0.00    +0.000 C 
ATOM     13  C   UNL     1       0.031  11.346  20.912  0.00  0.00    +0.000 C 
ATOM     14  C   UNL     1       1.357  11.807  21.570  0.00  0.00    +0.000 C 
ATOM     15  C   UNL     1      -0.958  12.525  20.770  0.00  0.00    +0.000 C 
ATOM     16  C   UNL     1      -0.448  13.282  19.519  0.00  0.00    +0.000 C 
ATOM     17  C   UNL     1       0.395  12.276  18.715  0.00  0.00    +0.000 C 
ATOM     18  C   UNL     1       0.169  10.946  19.425  0.00  0.00    +0.000 C 
ENDROOT
BRANCH   1  20
ATOM     19  C   UNL     1       1.331   2.918  21.221  0.00  0.00    +0.000 C 
ATOM     20  C   UNL     1       2.255   4.073  21.566  0.00  0.00    +0.000 C 
ENDBRANCH   1  20
BRANCH   6  21
ATOM     21  O   UNL     1       4.154   4.068  19.281  0.00  0.00    +0.000 OA
BRANCH  21  22
ATOM     22  S   UNL     1       3.792   2.835  18.274  0.00  0.00    +0.000 S 
ATOM     23  O   UNL     1       4.075   1.585  18.935  0.00  0.00    +0.000 OA
ATOM     24  O   UNL     1       2.528   3.097  17.620  0.00  0.00    +0.000 OA
BRANCH  22  25
ATOM     25  N   UNL     1       4.930   2.989  17.049  0.00  0.00    +0.000 NA
ATOM     26  H   UNL     1       5.849   3.226  17.410  0.00  0.00    +0.000 HD
ATOM     27  H   UNL     1       4.571   3.607  16.325  0.00  0.00    +0.000 HD
ENDBRANCH  22  25
ENDBRANCH  21  22
ENDBRANCH   6  21
BRANCH  15  28
ATOM     28  C   UNL     1      -1.116  13.422  21.996  0.00  0.00    +0.000 C 
BRANCH  28  29
ATOM     29  O   UNL     1      -2.507  13.585  22.274  0.00  0.00    +0.000 OA
ATOM     30  C   UNL     1      -3.026  12.477  22.998  0.00  0.00    +0.000 C 
ENDBRANCH  28  29
ENDBRANCH  15  28
TORSDOF 6
ENDMDL
MODEL 7
REMARK VINA RESULT:      -7.2      2.212      3.692
REMARK  Name = 
REMARK  9 active torsions:
REMARK  status: ('A' for Active; 'I' for Inactive)
REMARK    1  A    between atoms: C_1  and  C_2
REMARK    2  A    between atoms: C_2  and  C_3
REMARK    3  A    between atoms: C_8  and  O_9
REMARK    4  A    between atoms: O_9  and  S_10
REMARK    5  A    between atoms: S_10  and  N_11
REMARK    6  A    between atoms: C_20  and  C_21
REMARK    7  A    between atoms: C_22  and  C_23
REMARK    8  A    between atoms: C_23  and  O_24
REMARK    9  A    between atoms: O_24  and  C_25
REMARK                            x       y       z     vdW  Elec       q    Type
REMARK                         _______ _______ _______ _____ _____    ______ ____
ROOT
ATOM      1  C   UNL     1       1.265  11.116  19.638  0.00  0.00    +0.000 A 
ATOM      2  C   UNL     1       1.712  10.013  18.881  0.00  0.00    +0.000 A 
ATOM      3  C   UNL     1       1.763   8.707  19.391  0.00  0.00    +0.000 A 
ATOM      4  C   UNL     1       1.269   8.482  20.683  0.00  0.00    +0.000 A 
ATOM      5  C   UNL     1       0.810   9.568  21.444  0.00  0.00    +0.000 A 
ATOM      6  C   UNL     1       0.830  10.881  20.950  0.00  0.00    +0.000 A 
ATOM      7  C   UNL     1       1.269   7.116  21.327  0.00  0.00    +0.000 C 
ATOM      8  C   UNL     1       1.490   5.975  20.337  0.00  0.00    +0.000 C 
ATOM      9  C   UNL     1       2.653   6.328  19.408  0.00  0.00    +0.000 C 
ATOM     10  C   UNL     1       2.240   7.546  18.528  0.00  0.00    +0.000 C 
ATOM     11  C   UNL     1       3.344   7.916  17.503  0.00  0.00    +0.000 C 
ATOM     12  C   UNL     1       3.848   6.714  16.690  0.00  0.00    +0.000 C 
ATOM     13  C   UNL     1       4.275   5.558  17.601  0.00  0.00    +0.000 C 
ATOM     14  C   UNL     1       5.539   5.970  18.399  0.00  0.00    +0.000 C 
ATOM     15  C   UNL     1       4.491   4.211  16.875  0.00  0.00    +0.000 C 
ATOM     16  C   UNL     1       4.291   3.158  17.992  0.00  0.00    +0.000 C 
ATOM     17  C   UNL     1       3.468   3.844  19.097  0.00  0.00    +0.000 C 
ATOM     18  C   UNL     1       3.065   5.182  18.486  0.00  0.00    +0.000 C 
ENDROOT
BRANCH   1  20
ATOM     19  C   UNL     1       2.509  12.917  18.228  0.00  0.00    +0.000 C 
ATOM     20  C   UNL     1       1.233  12.438  18.900  0.00  0.00    +0.000 C 
ENDBRANCH   1  20
BRANCH   6  21
ATOM     21  O   UNL     1       0.418  11.948  21.715  0.00  0.00    +0.000 OA
BRANCH  21  22
ATOM     22  S   UNL     1      -1.089  12.016  22.339  0.00  0.00    +0.000 S 
ATOM     23  O   UNL     1      -2.045  12.078  21.261  0.00  0.00    +0.000 OA
ATOM     24  O   UNL     1      -1.208  11.068  23.426  0.00  0.00    +0.000 OA
BRANCH  22  25
ATOM     25  N   UNL     1      -1.129  13.516  23.092  0.00  0.00    +0.000 NA
ATOM     26  H   UNL     1      -0.602  14.215  22.578  0.00  0.00    +0.000 HD
ATOM     27  H   UNL     1      -0.880  13.412  24.073  0.00  0.00    +0.000 HD
ENDBRANCH  22  25
ENDBRANCH  21  22
ENDBRANCH   6  21
BRANCH  15  28
ATOM     28  C   UNL     1       5.814   4.054  16.128  0.00  0.00    +0.000 C 
BRANCH  28  29
ATOM     29  O   UNL     1       5.598   4.327  14.743  0.00  0.00    +0.000 OA
ATOM     30  C   UNL     1       6.818   4.614  14.073  0.00  0.00    +0.000 C 
ENDBRANCH  28  29
ENDBRANCH  15  28
TORSDOF 6
ENDMDL
MODEL 8
REMARK VINA RESULT:      -7.1      1.448      1.654
REMARK  Name = 
REMARK  9 active torsions:
REMARK  status: ('A' for Active; 'I' for Inactive)
REMARK    1  A    between atoms: C_1  and  C_2
REMARK    2  A    between atoms: C_2  and  C_3
REMARK    3  A    between atoms: C_8  and  O_9
REMARK    4  A    between atoms: O_9  and  S_10
REMARK    5  A    between atoms: S_10  and  N_11
REMARK    6  A    between atoms: C_20  and  C_21
REMARK    7  A    between atoms: C_22  and  C_23
REMARK    8  A    between atoms: C_23  and  O_24
REMARK    9  A    between atoms: O_24  and  C_25
REMARK                            x       y       z     vdW  Elec       q    Type
REMARK                         _______ _______ _______ _____ _____    ______ ____
ROOT
ATOM      1  C   UNL     1      -0.265  10.546  20.902  0.00  0.00    +0.000 A 
ATOM      2  C   UNL     1       0.530   9.381  20.917  0.00  0.00    +0.000 A 
ATOM      3  C   UNL     1       1.268   8.944  19.807  0.00  0.00    +0.000 A 
ATOM      4  C   UNL     1       1.277   9.750  18.662  0.00  0.00    +0.000 A 
ATOM      5  C   UNL     1       0.501  10.919  18.635  0.00  0.00    +0.000 A 
ATOM      6  C   UNL     1      -0.290  11.309  19.726  0.00  0.00    +0.000 A 
ATOM      7  C   UNL     1       2.042   9.381  17.413  0.00  0.00    +0.000 C 
ATOM      8  C   UNL     1       3.080   8.283  17.636  0.00  0.00    +0.000 C 
ATOM      9  C   UNL     1       2.453   7.152  18.453  0.00  0.00    +0.000 C 
ATOM     10  C   UNL     1       2.123   7.686  19.879  0.00  0.00    +0.000 C 
ATOM     11  C   UNL     1       1.552   6.570  20.793  0.00  0.00    +0.000 C 
ATOM     12  C   UNL     1       2.404   5.291  20.798  0.00  0.00    +0.000 C 
ATOM     13  C   UNL     1       2.670   4.788  19.375  0.00  0.00    +0.000 C 
ATOM     14  C   UNL     1       1.341   4.296  18.746  0.00  0.00    +0.000 C 
ATOM     15  C   UNL     1       3.768   3.706  19.270  0.00  0.00    +0.000 C 
ATOM     16  C   UNL     1       4.263   3.828  17.808  0.00  0.00    +0.000 C 
ATOM     17  C   UNL     1       3.873   5.239  17.332  0.00  0.00    +0.000 C 
ATOM     18  C   UNL     1       3.357   5.928  18.591  0.00  0.00    +0.000 C 
ENDROOT
BRANCH   1  20
ATOM     19  C   UNL     1      -0.712   9.968  23.401  0.00  0.00    +0.000 C 
ATOM     20  C   UNL     1      -0.947  10.882  22.211  0.00  0.00    +0.000 C 
ENDBRANCH   1  20
BRANCH   6  21
ATOM     21  O   UNL     1      -1.083  12.433  19.681  0.00  0.00    +0.000 OA
BRANCH  21  22
ATOM     22  S   UNL     1      -0.453  13.926  19.883  0.00  0.00    +0.000 S 
ATOM     23  O   UNL     1       0.649  13.853  20.809  0.00  0.00    +0.000 OA
ATOM     24  O   UNL     1      -0.344  14.585  18.599  0.00  0.00    +0.000 OA
BRANCH  22  25
ATOM     25  N   UNL     1      -1.679  14.759  20.672  0.00  0.00    +0.000 NA
ATOM     26  H   UNL     1      -1.694  14.561  21.668  0.00  0.00    +0.000 HD
ATOM     27  H   UNL     1      -2.559  14.615  20.183  0.00  0.00    +0.000 HD
ENDBRANCH  22  25
ENDBRANCH  21  22
ENDBRANCH   6  21
BRANCH  15  28
ATOM     28  C   UNL     1       3.352   2.285  19.649  0.00  0.00    +0.000 C 
BRANCH  28  29
ATOM     29  O   UNL     1       3.488   2.126  21.061  0.00  0.00    +0.000 OA
ATOM     30  C   UNL     1       2.221   2.083  21.705  0.00  0.00    +0.000 C 
ENDBRANCH  28  29
ENDBRANCH  15  28
TORSDOF 6
ENDMDL
MODEL 9
REMARK VINA RESULT:      -7.1      3.743      8.642
REMARK  Name = 
REMARK  9 active torsions:
REMARK  status: ('A' for Active; 'I' for Inactive)
REMARK    1  A    between atoms: C_1  and  C_2
REMARK    2  A    between atoms: C_2  and  C_3
REMARK    3  A    between atoms: C_8  and  O_9
REMARK    4  A    between atoms: O_9  and  S_10
REMARK    5  A    between atoms: S_10  and  N_11
REMARK    6  A    between atoms: C_20  and  C_21
REMARK    7  A    between atoms: C_22  and  C_23
REMARK    8  A    between atoms: C_23  and  O_24
REMARK    9  A    between atoms: O_24  and  C_25
REMARK                            x       y       z     vdW  Elec       q    Type
REMARK                         _______ _______ _______ _____ _____    ______ ____
ROOT
ATOM      1  C   UNL     1       3.314   6.026  18.172  0.00  0.00    +0.000 A 
ATOM      2  C   UNL     1       3.013   7.396  18.322  0.00  0.00    +0.000 A 
ATOM      3  C   UNL     1       2.215   7.894  19.363  0.00  0.00    +0.000 A 
ATOM      4  C   UNL     1       1.768   6.995  20.340  0.00  0.00    +0.000 A 
ATOM      5  C   UNL     1       2.070   5.630  20.211  0.00  0.00    +0.000 A 
ATOM      6  C   UNL     1       2.809   5.132  19.128  0.00  0.00    +0.000 A 
ATOM      7  C   UNL     1       0.910   7.423  21.507  0.00  0.00    +0.000 C 
ATOM      8  C   UNL     1       0.895   8.933  21.731  0.00  0.00    +0.000 C 
ATOM      9  C   UNL     1       0.687   9.642  20.391  0.00  0.00    +0.000 C 
ATOM     10  C   UNL     1       1.931   9.384  19.489  0.00  0.00    +0.000 C 
ATOM     11  C   UNL     1       1.827  10.138  18.137  0.00  0.00    +0.000 C 
ATOM     12  C   UNL     1       1.481  11.627  18.295  0.00  0.00    +0.000 C 
ATOM     13  C   UNL     1       0.231  11.824  19.159  0.00  0.00    +0.000 C 
ATOM     14  C   UNL     1      -1.008  11.274  18.407  0.00  0.00    +0.000 C 
ATOM     15  C   UNL     1      -0.004  13.277  19.629  0.00  0.00    +0.000 C 
ATOM     16  C   UNL     1      -0.869  13.114  20.903  0.00  0.00    +0.000 C 
ATOM     17  C   UNL     1      -0.638  11.678  21.406  0.00  0.00    +0.000 C 
ATOM     18  C   UNL     1       0.490  11.151  20.526  0.00  0.00    +0.000 C 
ENDROOT
BRANCH   1  20
ATOM     19  C   UNL     1       5.366   6.645  16.694  0.00  0.00    +0.000 C 
ATOM     20  C   UNL     1       4.233   5.687  17.017  0.00  0.00    +0.000 C 
ENDBRANCH   1  20
BRANCH   6  21
ATOM     21  O   UNL     1       3.066   3.789  18.983  0.00  0.00    +0.000 OA
BRANCH  21  22
ATOM     22  S   UNL     1       1.860   2.711  18.759  0.00  0.00    +0.000 S 
ATOM     23  O   UNL     1       1.511   2.121  20.027  0.00  0.00    +0.000 OA
ATOM     24  O   UNL     1       0.868   3.271  17.866  0.00  0.00    +0.000 OA
BRANCH  22  25
ATOM     25  N   UNL     1       2.589   1.497  17.858  0.00  0.00    +0.000 NA
ATOM     26  H   UNL     1       2.485   0.585  18.293  0.00  0.00    +0.000 HD
ATOM     27  H   UNL     1       3.542   1.767  17.628  0.00  0.00    +0.000 HD
ENDBRANCH  22  25
ENDBRANCH  21  22
ENDBRANCH   6  21
BRANCH  15  28
ATOM     28  C   UNL     1      -0.618  14.226  18.600  0.00  0.00    +0.000 C 
BRANCH  28  29
ATOM     29  O   UNL     1      -0.001  15.507  18.728  0.00  0.00    +0.000 OA
ATOM     30  C   UNL     1       1.404  15.391  18.916  0.00  0.00    +0.000 C 
ENDBRANCH  28  29
ENDBRANCH  15  28
TORSDOF 6
ENDMDL
