MODEL 1
REMARK VINA RESULT:      -7.7      0.000      0.000
REMARK  Name = 
REMARK  17 active torsions:
REMARK  status: ('A' for Active; 'I' for Inactive)
REMARK    1  A    between atoms: C_1  and  C_2
REMARK    2  A    between atoms: C_2  and  C_3
REMARK    3  A    between atoms: C_3  and  C_4
REMARK    4  A    between atoms: C_4  and  C_5
REMARK    5  A    between atoms: C_5  and  C_6
REMARK    6  A    between atoms: C_6  and  C_7
REMARK    7  A    between atoms: C_7  and  C_8
REMARK    8  A    between atoms: C_8  and  C_9
REMARK    9  A    between atoms: C_12  and  C_13
REMARK   10  A    between atoms: C_13  and  C_14
REMARK   11  A    between atoms: C_14  and  C_15
REMARK   12  A    between atoms: C_15  and  C_16
REMARK   13  A    between atoms: C_15  and  C_18
REMARK   14  A    between atoms: C_15  and  N_20
REMARK   15  A    between atoms: C_16  and  O_17
REMARK   16  A    between atoms: C_18  and  O_19
REMARK   17  A    between atoms: C_21  and  C_23
REMARK                            x       y       z     vdW  Elec       q    Type
REMARK                         _______ _______ _______ _____ _____    ______ ____
ROOT
ATOM      1  C   UNL     1       1.841   7.612  20.482  0.00  0.00    +0.000 C 
ENDROOT
BRANCH   1   5
ATOM      2  C   UNL     1       3.446   4.712  17.688  0.00  0.00    +0.000 A 
ATOM      3  C   UNL     1       3.609   6.094  17.514  0.00  0.00    +0.000 A 
ATOM      4  C   UNL     1       3.092   6.992  18.430  0.00  0.00    +0.000 A 
ATOM      5  C   UNL     1       2.358   6.544  19.538  0.00  0.00    +0.000 A 
ATOM      6  C   UNL     1       2.135   5.145  19.716  0.00  0.00    +0.000 A 
ATOM      7  C   UNL     1       1.411   4.618  20.812  0.00  0.00    +0.000 A 
ATOM      8  C   UNL     1       1.128   3.259  20.946  0.00  0.00    +0.000 A 
ATOM      9  C   UNL     1       1.606   2.369  20.005  0.00  0.00    +0.000 A 
ATOM     10  C   UNL     1       2.374   2.843  18.943  0.00  0.00    +0.000 A 
ATOM     11  C   UNL     1       2.660   4.221  18.766  0.00  0.00    +0.000 A 
BRANCH   2  12
ATOM     12  C   UNL     1       4.241   3.829  16.748  0.00  0.00    +0.000 C 
BRANCH  12  13
ATOM     13  C   UNL     1       4.915   4.700  15.682  0.00  0.00    +0.000 C 
BRANCH  13  14
ATOM     14  C   UNL     1       6.250   4.124  15.233  0.00  0.00    +0.000 C 
BRANCH  14  15
ATOM     15  C   UNL     1       7.395   4.886  15.894  0.00  0.00    +0.000 C 
BRANCH  15  16
ATOM     16  C   UNL     1       6.992   6.327  16.179  0.00  0.00    +0.000 C 
BRANCH  16  17
ATOM     17  C   UNL     1       7.379   6.730  17.600  0.00  0.00    +0.000 C 
BRANCH  17  19
ATOM     18  C   UNL     1       6.546   5.355  19.531  0.00  0.00    +0.000 C 
ATOM     19  C   UNL     1       7.618   5.496  18.466  0.00  0.00    +0.000 C 
ENDBRANCH  17  19
ENDBRANCH  16  17
ENDBRANCH  15  16
ENDBRANCH  14  15
ENDBRANCH  13  14
ENDBRANCH  12  13
ENDBRANCH   2  12
ENDBRANCH   1   5
BRANCH   1  20
ATOM     20  C   UNL     1       1.407   8.953  19.874  0.00  0.00    +0.000 C 
BRANCH  20  21
ATOM     21  C   UNL     1       0.393   9.852  20.641  0.00  0.00    +0.000 C 
BRANCH  21  22
ATOM     22  N   UNL     1      -0.833  10.005  19.784  0.00  0.00    +0.000 N 
ATOM     23  C   UNL     1      -0.884  10.875  18.706  0.00  0.00    +0.000 C 
ATOM     24  O   UNL     1       0.065  11.545  18.320  0.00  0.00    +0.000 OA
ATOM     25  H   UNL     1      -1.715   9.735  20.200  0.00  0.00    +0.000 HD
BRANCH  23  26
ATOM     26  C   UNL     1      -2.201  11.042  18.040  0.00  0.00    +0.000 A 
ATOM     27  C   UNL     1      -3.235  11.644  18.772  0.00  0.00    +0.000 A 
ATOM     28  C   UNL     1      -4.498  11.802  18.203  0.00  0.00    +0.000 A 
ATOM     29  C   UNL     1      -4.732  11.373  16.897  0.00  0.00    +0.000 A 
ATOM     30  C   UNL     1      -3.699  10.802  16.154  0.00  0.00    +0.000 A 
ATOM     31  C   UNL     1      -2.433  10.638  16.719  0.00  0.00    +0.000 A 
ENDBRANCH  23  26
ENDBRANCH  21  22
BRANCH  21  32
ATOM     32  C   UNL     1       0.943  11.261  20.993  0.00  0.00    +0.000 C 
BRANCH  32  33
ATOM     33  O   UNL     1      -0.110  12.097  21.491  0.00  0.00    +0.000 OA
ATOM     34  H   UNL     1      -0.937  11.665  21.212  0.00  0.00    +0.000 HD
ENDBRANCH  32  33
ENDBRANCH  21  32
BRANCH  21  35
ATOM     35  C   UNL     1      -0.029   9.163  21.971  0.00  0.00    +0.000 C 
BRANCH  35  36
ATOM     36  O   UNL     1       0.444   9.874  23.117  0.00  0.00    +0.000 OA
ATOM     37  H   UNL     1      -0.043  10.714  23.154  0.00  0.00    +0.000 HD
ENDBRANCH  35  36
ENDBRANCH  21  35
ENDBRANCH  20  21
ENDBRANCH   1  20
TORSDOF 16
ENDMDL
MODEL 2
REMARK VINA RESULT:      -7.4      2.317      3.606
REMARK  Name = 
REMARK  17 active torsions:
REMARK  status: ('A' for Active; 'I' for Inactive)
REMARK    1  A    between atoms: C_1  and  C_2
REMARK    2  A    between atoms: C_2  and  C_3
REMARK    3  A    between atoms: C_3  and  C_4
REMARK    4  A    between atoms: C_4  and  C_5
REMARK    5  A    between atoms: C_5  and  C_6
REMARK    6  A    between atoms: C_6  and  C_7
REMARK    7  A    between atoms: C_7  and  C_8
REMARK    8  A    between atoms: C_8  and  C_9
REMARK    9  A    between atoms: C_12  and  C_13
REMARK   10  A    between atoms: C_13  and  C_14
REMARK   11  A    between atoms: C_14  and  C_15
REMARK   12  A    between atoms: C_15  and  C_16
REMARK   13  A    between atoms: C_15  and  C_18
REMARK   14  A    between atoms: C_15  and  N_20
REMARK   15  A    between atoms: C_16  and  O_17
REMARK   16  A    between atoms: C_18  and  O_19
REMARK   17  A    between atoms: C_21  and  C_23
REMARK                            x       y       z     vdW  Elec       q    Type
REMARK                         _______ _______ _______ _____ _____    ______ ____
ROOT
ATOM      1  C   UNL     1       2.740   7.879  18.655  0.00  0.00    +0.000 C 
ENDROOT
BRANCH   1   5
ATOM      2  C   UNL     1       5.049   4.905  16.506  0.00  0.00    +0.000 A 
ATOM      3  C   UNL     1       5.397   6.264  16.516  0.00  0.00    +0.000 A 
ATOM      4  C   UNL     1       4.643   7.186  17.220  0.00  0.00    +0.000 A 
ATOM      5  C   UNL     1       3.489   6.789  17.912  0.00  0.00    +0.000 A 
ATOM      6  C   UNL     1       3.084   5.421  17.881  0.00  0.00    +0.000 A 
ATOM      7  C   UNL     1       1.936   4.946  18.559  0.00  0.00    +0.000 A 
ATOM      8  C   UNL     1       1.497   3.626  18.467  0.00  0.00    +0.000 A 
ATOM      9  C   UNL     1       2.226   2.717  17.725  0.00  0.00    +0.000 A 
ATOM     10  C   UNL     1       3.395   3.134  17.091  0.00  0.00    +0.000 A 
ATOM     11  C   UNL     1       3.856   4.474  17.146  0.00  0.00    +0.000 A 
BRANCH   2  12
ATOM     12  C   UNL     1       6.067   3.967  15.890  0.00  0.00    +0.000 C 
BRANCH  12  13
ATOM     13  C   UNL     1       6.320   4.376  14.435  0.00  0.00    +0.000 C 
BRANCH  13  14
ATOM     14  C   UNL     1       5.501   3.546  13.457  0.00  0.00    +0.000 C 
BRANCH  14  15
ATOM     15  C   UNL     1       6.316   3.271  12.197  0.00  0.00    +0.000 C 
BRANCH  15  16
ATOM     16  C   UNL     1       5.409   3.166  10.978  0.00  0.00    +0.000 C 
BRANCH  16  17
ATOM     17  C   UNL     1       3.941   3.276  11.380  0.00  0.00    +0.000 C 
BRANCH  17  19
ATOM     18  C   UNL     1       2.903   4.446   9.413  0.00  0.00    +0.000 C 
ATOM     19  C   UNL     1       3.033   3.132  10.162  0.00  0.00    +0.000 C 
ENDBRANCH  17  19
ENDBRANCH  16  17
ENDBRANCH  15  16
ENDBRANCH  14  15
ENDBRANCH  13  14
ENDBRANCH  12  13
ENDBRANCH   2  12
ENDBRANCH   1   5
BRANCH   1  20
ATOM     20  C   UNL     1       1.766   8.752  17.851  0.00  0.00    +0.000 C 
BRANCH  20  21
ATOM     21  C   UNL     1       1.111   9.993  18.525  0.00  0.00    +0.000 C 
BRANCH  21  22
ATOM     22  N   UNL     1      -0.146  10.324  17.767  0.00  0.00    +0.000 N 
ATOM     23  C   UNL     1      -1.287  10.803  18.391  0.00  0.00    +0.000 C 
ATOM     24  O   UNL     1      -1.359  11.055  19.588  0.00  0.00    +0.000 OA
ATOM     25  H   UNL     1      -0.266   9.875  16.869  0.00  0.00    +0.000 HD
BRANCH  23  26
ATOM     26  C   UNL     1      -2.503  10.943  17.551  0.00  0.00    +0.000 A 
ATOM     27  C   UNL     1      -3.631  11.549  18.123  0.00  0.00    +0.000 A 
ATOM     28  C   UNL     1      -4.807  11.683  17.386  0.00  0.00    +0.000 A 
ATOM     29  C   UNL     1      -4.859  11.224  16.070  0.00  0.00    +0.000 A 
ATOM     30  C   UNL     1      -3.731  10.649  15.485  0.00  0.00    +0.000 A 
ATOM     31  C   UNL     1      -2.552  10.510  16.219  0.00  0.00    +0.000 A 
ENDBRANCH  23  26
ENDBRANCH  21  22
BRANCH  21  32
ATOM     32  C   UNL     1       2.027  11.246  18.558  0.00  0.00    +0.000 C 
BRANCH  32  33
ATOM     33  O   UNL     1       1.255  12.421  18.843  0.00  0.00    +0.000 OA
ATOM     34  H   UNL     1       0.472  12.104  19.331  0.00  0.00    +0.000 HD
ENDBRANCH  32  33
ENDBRANCH  21  32
BRANCH  21  35
ATOM     35  C   UNL     1       0.716   9.655  19.992  0.00  0.00    +0.000 C 
BRANCH  35  36
ATOM     36  O   UNL     1       1.152  10.661  20.909  0.00  0.00    +0.000 OA
ATOM     37  H   UNL     1       2.012  10.376  21.260  0.00  0.00    +0.000 HD
ENDBRANCH  35  36
ENDBRANCH  21  35
ENDBRANCH  20  21
ENDBRANCH   1  20
TORSDOF 16
ENDMDL
MODEL 3
REMARK VINA RESULT:      -7.4      1.171      2.244
REMARK  Name = 
REMARK  17 active torsions:
REMARK  status: ('A' for Active; 'I' for Inactive)
REMARK    1  A    between atoms: C_1  and  C_2
REMARK    2  A    between atoms: C_2  and  C_3
REMARK    3  A    between atoms: C_3  and  C_4
REMARK    4  A    between atoms: C_4  and  C_5
REMARK    5  A    between atoms: C_5  and  C_6
REMARK    6  A    between atoms: C_6  and  C_7
REMARK    7  A    between atoms: C_7  and  C_8
REMARK    8  A    between atoms: C_8  and  C_9
REMARK    9  A    between atoms: C_12  and  C_13
REMARK   10  A    between atoms: C_13  and  C_14
REMARK   11  A    between atoms: C_14  and  C_15
REMARK   12  A    between atoms: C_15  and  C_16
REMARK   13  A    between atoms: C_15  and  C_18
REMARK   14  A    between atoms: C_15  and  N_20
REMARK   15  A    between atoms: C_16  and  O_17
REMARK   16  A    between atoms: C_18  and  O_19
REMARK   17  A    between atoms: C_21  and  C_23
REMARK                            x       y       z     vdW  Elec       q    Type
REMARK                         _______ _______ _______ _____ _____    ______ ____
ROOT
ATOM      1  C   UNL     1       1.547   7.478  20.680  0.00  0.00    +0.000 C 
ENDROOT
BRANCH   1   5
ATOM      2  C   UNL     1       3.366   4.859  17.743  0.00  0.00    +0.000 A 
ATOM      3  C   UNL     1       3.439   6.257  17.651  0.00  0.00    +0.000 A 
ATOM      4  C   UNL     1       2.855   7.064  18.611  0.00  0.00    +0.000 A 
ATOM      5  C   UNL     1       2.143   6.503  19.682  0.00  0.00    +0.000 A 
ATOM      6  C   UNL     1       2.013   5.085  19.777  0.00  0.00    +0.000 A 
ATOM      7  C   UNL     1       1.316   4.448  20.831  0.00  0.00    +0.000 A 
ATOM      8  C   UNL     1       1.123   3.068  20.883  0.00  0.00    +0.000 A 
ATOM      9  C   UNL     1       1.668   2.268  19.899  0.00  0.00    +0.000 A 
ATOM     10  C   UNL     1       2.411   2.853  18.875  0.00  0.00    +0.000 A 
ATOM     11  C   UNL     1       2.606   4.255  18.781  0.00  0.00    +0.000 A 
BRANCH   2  12
ATOM     12  C   UNL     1       4.227   4.087  16.764  0.00  0.00    +0.000 C 
BRANCH  12  13
ATOM     13  C   UNL     1       5.662   4.012  17.298  0.00  0.00    +0.000 C 
BRANCH  13  14
ATOM     14  C   UNL     1       6.691   4.286  16.211  0.00  0.00    +0.000 C 
BRANCH  14  15
ATOM     15  C   UNL     1       6.281   5.513  15.402  0.00  0.00    +0.000 C 
BRANCH  15  16
ATOM     16  C   UNL     1       5.876   5.119  13.987  0.00  0.00    +0.000 C 
BRANCH  16  17
ATOM     17  C   UNL     1       6.227   3.660  13.707  0.00  0.00    +0.000 C 
BRANCH  17  19
ATOM     18  C   UNL     1       4.623   3.369  11.795  0.00  0.00    +0.000 C 
ATOM     19  C   UNL     1       6.080   3.344  12.221  0.00  0.00    +0.000 C 
ENDBRANCH  17  19
ENDBRANCH  16  17
ENDBRANCH  15  16
ENDBRANCH  14  15
ENDBRANCH  13  14
ENDBRANCH  12  13
ENDBRANCH   2  12
ENDBRANCH   1   5
BRANCH   1  20
ATOM     20  C   UNL     1       1.657   8.977  20.366  0.00  0.00    +0.000 C 
BRANCH  20  21
ATOM     21  C   UNL     1       0.443   9.911  20.645  0.00  0.00    +0.000 C 
BRANCH  21  22
ATOM     22  N   UNL     1      -0.387   9.981  19.393  0.00  0.00    +0.000 N 
ATOM     23  C   UNL     1      -1.407  10.904  19.226  0.00  0.00    +0.000 C 
ATOM     24  O   UNL     1      -1.685  11.774  20.043  0.00  0.00    +0.000 OA
ATOM     25  H   UNL     1      -0.426   9.143  18.827  0.00  0.00    +0.000 HD
BRANCH  23  26
ATOM     26  C   UNL     1      -2.246  10.765  18.009  0.00  0.00    +0.000 A 
ATOM     27  C   UNL     1      -3.423  11.524  17.932  0.00  0.00    +0.000 A 
ATOM     28  C   UNL     1      -4.260  11.413  16.823  0.00  0.00    +0.000 A 
ATOM     29  C   UNL     1      -3.920  10.554  15.778  0.00  0.00    +0.000 A 
ATOM     30  C   UNL     1      -2.734   9.820  15.835  0.00  0.00    +0.000 A 
ATOM     31  C   UNL     1      -1.894   9.925  16.944  0.00  0.00    +0.000 A 
ENDBRANCH  23  26
ENDBRANCH  21  22
BRANCH  21  32
ATOM     32  C   UNL     1       0.842  11.351  21.070  0.00  0.00    +0.000 C 
BRANCH  32  33
ATOM     33  O   UNL     1       0.042  11.783  22.178  0.00  0.00    +0.000 OA
ATOM     34  H   UNL     1      -0.507  11.014  22.418  0.00  0.00    +0.000 HD
ENDBRANCH  32  33
ENDBRANCH  21  32
BRANCH  21  35
ATOM     35  C   UNL     1      -0.441   9.311  21.778  0.00  0.00    +0.000 C 
BRANCH  35  36
ATOM     36  O   UNL     1       0.265   9.221  23.017  0.00  0.00    +0.000 OA
ATOM     37  H   UNL     1       0.911   8.501  22.928  0.00  0.00    +0.000 HD
ENDBRANCH  35  36
ENDBRANCH  21  35
ENDBRANCH  20  21
ENDBRANCH   1  20
TORSDOF 16
ENDMDL
MODEL 4
REMARK VINA RESULT:      -7.3      1.360      1.924
REMARK  Name = 
REMARK  17 active torsions:
REMARK  status: ('A' for Active; 'I' for Inactive)
REMARK    1  A    between atoms: C_1  and  C_2
REMARK    2  A    between atoms: C_2  and  C_3
REMARK    3  A    between atoms: C_3  and  C_4
REMARK    4  A    between atoms: C_4  and  C_5
REMARK    5  A    between atoms: C_5  and  C_6
REMARK    6  A    between atoms: C_6  and  C_7
REMARK    7  A    between atoms: C_7  and  C_8
REMARK    8  A    between atoms: C_8  and  C_9
REMARK    9  A    between atoms: C_12  and  C_13
REMARK   10  A    between atoms: C_13  and  C_14
REMARK   11  A    between atoms: C_14  and  C_15
REMARK   12  A    between atoms: C_15  and  C_16
REMARK   13  A    between atoms: C_15  and  C_18
REMARK   14  A    between atoms: C_15  and  N_20
REMARK   15  A    between atoms: C_16  and  O_17
REMARK   16  A    between atoms: C_18  and  O_19
REMARK   17  A    between atoms: C_21  and  C_23
REMARK                            x       y       z     vdW  Elec       q    Type
REMARK                         _______ _______ _______ _____ _____    ______ ____
ROOT
ATOM      1  C   UNL     1       1.867   8.386  19.301  0.00  0.00    +0.000 C 
ENDROOT
BRANCH   1   5
ATOM      2  C   UNL     1       4.080   5.047  17.642  0.00  0.00    +0.000 A 
ATOM      3  C   UNL     1       4.118   6.331  17.076  0.00  0.00    +0.000 A 
ATOM      4  C   UNL     1       3.407   7.376  17.637  0.00  0.00    +0.000 A 
ATOM      5  C   UNL     1       2.599   7.170  18.765  0.00  0.00    +0.000 A 
ATOM      6  C   UNL     1       2.504   5.865  19.335  0.00  0.00    +0.000 A 
ATOM      7  C   UNL     1       1.715   5.583  20.475  0.00  0.00    +0.000 A 
ATOM      8  C   UNL     1       1.560   4.294  20.986  0.00  0.00    +0.000 A 
ATOM      9  C   UNL     1       2.235   3.244  20.397  0.00  0.00    +0.000 A 
ATOM     10  C   UNL     1       3.069   3.492  19.307  0.00  0.00    +0.000 A 
ATOM     11  C   UNL     1       3.229   4.786  18.750  0.00  0.00    +0.000 A 
BRANCH   2  12
ATOM     12  C   UNL     1       5.067   4.046  17.077  0.00  0.00    +0.000 C 
BRANCH  12  13
ATOM     13  C   UNL     1       5.758   4.652  15.850  0.00  0.00    +0.000 C 
BRANCH  13  14
ATOM     14  C   UNL     1       7.110   5.257  16.196  0.00  0.00    +0.000 C 
BRANCH  14  15
ATOM     15  C   UNL     1       7.460   4.955  17.650  0.00  0.00    +0.000 C 
BRANCH  15  16
ATOM     16  C   UNL     1       7.784   6.238  18.406  0.00  0.00    +0.000 C 
BRANCH  16  17
ATOM     17  C   UNL     1       7.155   7.448  17.721  0.00  0.00    +0.000 C 
BRANCH  17  19
ATOM     18  C   UNL     1       8.715   9.087  18.814  0.00  0.00    +0.000 C 
ATOM     19  C   UNL     1       8.194   8.543  17.496  0.00  0.00    +0.000 C 
ENDBRANCH  17  19
ENDBRANCH  16  17
ENDBRANCH  15  16
ENDBRANCH  14  15
ENDBRANCH  13  14
ENDBRANCH  12  13
ENDBRANCH   2  12
ENDBRANCH   1   5
BRANCH   1  20
ATOM     20  C   UNL     1       1.597   9.543  18.329  0.00  0.00    +0.000 C 
BRANCH  20  21
ATOM     21  C   UNL     1       1.204  10.941  18.890  0.00  0.00    +0.000 C 
BRANCH  21  22
ATOM     22  N   UNL     1      -0.155  11.293  18.351  0.00  0.00    +0.000 N 
ATOM     23  C   UNL     1      -1.311  10.652  18.769  0.00  0.00    +0.000 C 
ATOM     24  O   UNL     1      -1.341   9.796  19.645  0.00  0.00    +0.000 OA
ATOM     25  H   UNL     1      -0.181  11.747  17.447  0.00  0.00    +0.000 HD
BRANCH  23  26
ATOM     26  C   UNL     1      -2.564  10.988  18.046  0.00  0.00    +0.000 A 
ATOM     27  C   UNL     1      -3.560  11.683  18.747  0.00  0.00    +0.000 A 
ATOM     28  C   UNL     1      -4.765  12.002  18.124  0.00  0.00    +0.000 A 
ATOM     29  C   UNL     1      -4.978  11.640  16.794  0.00  0.00    +0.000 A 
ATOM     30  C   UNL     1      -3.979  10.976  16.083  0.00  0.00    +0.000 A 
ATOM     31  C   UNL     1      -2.771  10.652  16.702  0.00  0.00    +0.000 A 
ENDBRANCH  23  26
ENDBRANCH  21  22
BRANCH  21  32
ATOM     32  C   UNL     1       2.203  12.071  18.521  0.00  0.00    +0.000 C 
BRANCH  32  33
ATOM     33  O   UNL     1       2.623  11.938  17.156  0.00  0.00    +0.000 OA
ATOM     34  H   UNL     1       3.375  12.549  17.056  0.00  0.00    +0.000 HD
ENDBRANCH  32  33
ENDBRANCH  21  32
BRANCH  21  35
ATOM     35  C   UNL     1       1.108  10.884  20.443  0.00  0.00    +0.000 C 
BRANCH  35  36
ATOM     36  O   UNL     1       1.350  12.159  21.042  0.00  0.00    +0.000 OA
ATOM     37  H   UNL     1       1.661  12.752  20.338  0.00  0.00    +0.000 HD
ENDBRANCH  35  36
ENDBRANCH  21  35
ENDBRANCH  20  21
ENDBRANCH   1  20
TORSDOF 16
ENDMDL
MODEL 5
REMARK VINA RESULT:      -7.3      1.455      2.703
REMARK  Name = 
REMARK  17 active torsions:
REMARK  status: ('A' for Active; 'I' for Inactive)
REMARK    1  A    between atoms: C_1  and  C_2
REMARK    2  A    between atoms: C_2  and  C_3
REMARK    3  A    between atoms: C_3  and  C_4
REMARK    4  A    between atoms: C_4  and  C_5
REMARK    5  A    between atoms: C_5  and  C_6
REMARK    6  A    between atoms: C_6  and  C_7
REMARK    7  A    between atoms: C_7  and  C_8
REMARK    8  A    between atoms: C_8  and  C_9
REMARK    9  A    between atoms: C_12  and  C_13
REMARK   10  A    between atoms: C_13  and  C_14
REMARK   11  A    between atoms: C_14  and  C_15
REMARK   12  A    between atoms: C_15  and  C_16
REMARK   13  A    between atoms: C_15  and  C_18
REMARK   14  A    between atoms: C_15  and  N_20
REMARK   15  A    between atoms: C_16  and  O_17
REMARK   16  A    between atoms: C_18  and  O_19
REMARK   17  A    between atoms: C_21  and  C_23
REMARK                            x       y       z     vdW  Elec       q    Type
REMARK                         _______ _______ _______ _____ _____    ______ ____
ROOT
ATOM      1  C   UNL     1       1.717   7.700  20.504  0.00  0.00    +0.000 C 
ENDROOT
BRANCH   1   5
ATOM      2  C   UNL     1       3.511   4.962  17.662  0.00  0.00    +0.000 A 
ATOM      3  C   UNL     1       3.627   6.355  17.540  0.00  0.00    +0.000 A 
ATOM      4  C   UNL     1       3.050   7.200  18.470  0.00  0.00    +0.000 A 
ATOM      5  C   UNL     1       2.301   6.686  19.540  0.00  0.00    +0.000 A 
ATOM      6  C   UNL     1       2.127   5.274  19.663  0.00  0.00    +0.000 A 
ATOM      7  C   UNL     1       1.392   4.682  20.718  0.00  0.00    +0.000 A 
ATOM      8  C   UNL     1       1.157   3.310  20.798  0.00  0.00    +0.000 A 
ATOM      9  C   UNL     1       1.695   2.472  19.842  0.00  0.00    +0.000 A 
ATOM     10  C   UNL     1       2.475   3.012  18.820  0.00  0.00    +0.000 A 
ATOM     11  C   UNL     1       2.714   4.404  18.698  0.00  0.00    +0.000 A 
BRANCH   2  12
ATOM     12  C   UNL     1       4.366   4.142  16.717  0.00  0.00    +0.000 C 
BRANCH  12  13
ATOM     13  C   UNL     1       5.266   5.080  15.904  0.00  0.00    +0.000 C 
BRANCH  13  14
ATOM     14  C   UNL     1       6.513   4.374  15.394  0.00  0.00    +0.000 C 
BRANCH  14  15
ATOM     15  C   UNL     1       6.181   3.568  14.141  0.00  0.00    +0.000 C 
BRANCH  15  16
ATOM     16  C   UNL     1       6.714   4.262  12.894  0.00  0.00    +0.000 C 
BRANCH  16  17
ATOM     17  C   UNL     1       6.074   3.686  11.634  0.00  0.00    +0.000 C 
BRANCH  17  19
ATOM     18  C   UNL     1       6.863   1.378  11.029  0.00  0.00    +0.000 C 
ATOM     19  C   UNL     1       5.828   2.188  11.789  0.00  0.00    +0.000 C 
ENDBRANCH  17  19
ENDBRANCH  16  17
ENDBRANCH  15  16
ENDBRANCH  14  15
ENDBRANCH  13  14
ENDBRANCH  12  13
ENDBRANCH   2  12
ENDBRANCH   1   5
BRANCH   1  20
ATOM     20  C   UNL     1       1.287   9.060  19.935  0.00  0.00    +0.000 C 
BRANCH  20  21
ATOM     21  C   UNL     1       0.315   9.962  20.752  0.00  0.00    +0.000 C 
BRANCH  21  22
ATOM     22  N   UNL     1      -0.926  10.171  19.929  0.00  0.00    +0.000 N 
ATOM     23  C   UNL     1      -0.899  10.240  18.545  0.00  0.00    +0.000 C 
ATOM     24  O   UNL     1       0.111  10.080  17.871  0.00  0.00    +0.000 OA
ATOM     25  H   UNL     1      -1.713  10.602  20.397  0.00  0.00    +0.000 HD
BRANCH  23  26
ATOM     26  C   UNL     1      -2.169  10.603  17.866  0.00  0.00    +0.000 A 
ATOM     27  C   UNL     1      -2.380  10.120  16.567  0.00  0.00    +0.000 A 
ATOM     28  C   UNL     1      -3.543  10.451  15.874  0.00  0.00    +0.000 A 
ATOM     29  C   UNL     1      -4.509  11.255  16.480  0.00  0.00    +0.000 A 
ATOM     30  C   UNL     1      -4.318  11.713  17.784  0.00  0.00    +0.000 A 
ATOM     31  C   UNL     1      -3.154  11.387  18.481  0.00  0.00    +0.000 A 
ENDBRANCH  23  26
ENDBRANCH  21  22
BRANCH  21  32
ATOM     32  C   UNL     1       0.910  11.345  21.132  0.00  0.00    +0.000 C 
BRANCH  32  33
ATOM     33  O   UNL     1       1.476  11.978  19.977  0.00  0.00    +0.000 OA
ATOM     34  H   UNL     1       2.210  12.523  20.314  0.00  0.00    +0.000 HD
ENDBRANCH  32  33
ENDBRANCH  21  32
BRANCH  21  35
ATOM     35  C   UNL     1      -0.094   9.244  22.071  0.00  0.00    +0.000 C 
BRANCH  35  36
ATOM     36  O   UNL     1       0.295   9.987  23.228  0.00  0.00    +0.000 OA
ATOM     37  H   UNL     1       0.302   9.368  23.978  0.00  0.00    +0.000 HD
ENDBRANCH  35  36
ENDBRANCH  21  35
ENDBRANCH  20  21
ENDBRANCH   1  20
TORSDOF 16
ENDMDL
MODEL 6
REMARK VINA RESULT:      -7.2      1.569      4.098
REMARK  Name = 
REMARK  17 active torsions:
REMARK  status: ('A' for Active; 'I' for Inactive)
REMARK    1  A    between atoms: C_1  and  C_2
REMARK    2  A    between atoms: C_2  and  C_3
REMARK    3  A    between atoms: C_3  and  C_4
REMARK    4  A    between atoms: C_4  and  C_5
REMARK    5  A    between atoms: C_5  and  C_6
REMARK    6  A    between atoms: C_6  and  C_7
REMARK    7  A    between atoms: C_7  and  C_8
REMARK    8  A    between atoms: C_8  and  C_9
REMARK    9  A    between atoms: C_12  and  C_13
REMARK   10  A    between atoms: C_13  and  C_14
REMARK   11  A    between atoms: C_14  and  C_15
REMARK   12  A    between atoms: C_15  and  C_16
REMARK   13  A    between atoms: C_15  and  C_18
REMARK   14  A    between atoms: C_15  and  N_20
REMARK   15  A    between atoms: C_16  and  O_17
REMARK   16  A    between atoms: C_18  and  O_19
REMARK   17  A    between atoms: C_21  and  C_23
REMARK                            x       y       z     vdW  Elec       q    Type
REMARK                         _______ _______ _______ _____ _____    ______ ____
ROOT
ATOM      1  C   UNL     1       2.172   8.519  17.937  0.00  0.00    +0.000 C 
ENDROOT
BRANCH   1   5
ATOM      2  C   UNL     1       4.193   4.929  19.285  0.00  0.00    +0.000 A 
ATOM      3  C   UNL     1       3.222   5.580  20.060  0.00  0.00    +0.000 A 
ATOM      4  C   UNL     1       2.589   6.719  19.595  0.00  0.00    +0.000 A 
ATOM      5  C   UNL     1       2.931   7.273  18.352  0.00  0.00    +0.000 A 
ATOM      6  C   UNL     1       3.948   6.657  17.562  0.00  0.00    +0.000 A 
ATOM      7  C   UNL     1       4.341   7.154  16.296  0.00  0.00    +0.000 A 
ATOM      8  C   UNL     1       5.387   6.599  15.559  0.00  0.00    +0.000 A 
ATOM      9  C   UNL     1       6.048   5.490  16.047  0.00  0.00    +0.000 A 
ATOM     10  C   UNL     1       5.651   4.936  17.263  0.00  0.00    +0.000 A 
ATOM     11  C   UNL     1       4.607   5.490  18.047  0.00  0.00    +0.000 A 
BRANCH   2  12
ATOM     12  C   UNL     1       4.650   3.578  19.798  0.00  0.00    +0.000 C 
BRANCH  12  13
ATOM     13  C   UNL     1       4.595   2.556  18.657  0.00  0.00    +0.000 C 
BRANCH  13  14
ATOM     14  C   UNL     1       3.219   1.923  18.522  0.00  0.00    +0.000 C 
BRANCH  14  15
ATOM     15  C   UNL     1       2.420   2.640  17.437  0.00  0.00    +0.000 C 
BRANCH  15  16
ATOM     16  C   UNL     1       1.235   3.384  18.040  0.00  0.00    +0.000 C 
BRANCH  16  17
ATOM     17  C   UNL     1       0.655   2.616  19.225  0.00  0.00    +0.000 C 
BRANCH  17  19
ATOM     18  C   UNL     1       1.510   2.648  21.587  0.00  0.00    +0.000 C 
ATOM     19  C   UNL     1       0.779   3.429  20.510  0.00  0.00    +0.000 C 
ENDBRANCH  17  19
ENDBRANCH  16  17
ENDBRANCH  15  16
ENDBRANCH  14  15
ENDBRANCH  13  14
ENDBRANCH  12  13
ENDBRANCH   2  12
ENDBRANCH   1   5
BRANCH   1  20
ATOM     20  C   UNL     1       1.607   9.415  19.048  0.00  0.00    +0.000 C 
BRANCH  20  21
ATOM     21  C   UNL     1       1.412  10.936  18.783  0.00  0.00    +0.000 C 
BRANCH  21  22
ATOM     22  N   UNL     1       0.111  11.117  18.049  0.00  0.00    +0.000 N 
ATOM     23  C   UNL     1      -1.103  10.703  18.573  0.00  0.00    +0.000 C 
ATOM     24  O   UNL     1      -1.238  10.215  19.689  0.00  0.00    +0.000 OA
ATOM     25  H   UNL     1       0.168  11.221  17.044  0.00  0.00    +0.000 HD
BRANCH  23  26
ATOM     26  C   UNL     1      -2.287  10.800  17.682  0.00  0.00    +0.000 A 
ATOM     27  C   UNL     1      -2.225  10.161  16.436  0.00  0.00    +0.000 A 
ATOM     28  C   UNL     1      -3.299  10.242  15.550  0.00  0.00    +0.000 A 
ATOM     29  C   UNL     1      -4.445  10.950  15.910  0.00  0.00    +0.000 A 
ATOM     30  C   UNL     1      -4.525  11.562  17.161  0.00  0.00    +0.000 A 
ATOM     31  C   UNL     1      -3.452  11.486  18.050  0.00  0.00    +0.000 A 
ENDBRANCH  23  26
ENDBRANCH  21  22
BRANCH  21  32
ATOM     32  C   UNL     1       2.555  11.582  17.954  0.00  0.00    +0.000 C 
BRANCH  32  33
ATOM     33  O   UNL     1       2.164  12.883  17.494  0.00  0.00    +0.000 OA
ATOM     34  H   UNL     1       2.691  13.042  16.690  0.00  0.00    +0.000 HD
ENDBRANCH  32  33
ENDBRANCH  21  32
BRANCH  21  35
ATOM     35  C   UNL     1       1.315  11.704  20.134  0.00  0.00    +0.000 C 
BRANCH  35  36
ATOM     36  O   UNL     1       1.204  10.814  21.248  0.00  0.00    +0.000 OA
ATOM     37  H   UNL     1       0.493  11.154  21.816  0.00  0.00    +0.000 HD
ENDBRANCH  35  36
ENDBRANCH  21  35
ENDBRANCH  20  21
ENDBRANCH   1  20
TORSDOF 16
ENDMDL
MODEL 7
REMARK VINA RESULT:      -7.2      1.879      3.022
REMARK  Name = 
REMARK  17 active torsions:
REMARK  status: ('A' for Active; 'I' for Inactive)
REMARK    1  A    between atoms: C_1  and  C_2
REMARK    2  A    between atoms: C_2  and  C_3
REMARK    3  A    between atoms: C_3  and  C_4
REMARK    4  A    between atoms: C_4  and  C_5
REMARK    5  A    between atoms: C_5  and  C_6
REMARK    6  A    between atoms: C_6  and  C_7
REMARK    7  A    between atoms: C_7  and  C_8
REMARK    8  A    between atoms: C_8  and  C_9
REMARK    9  A    between atoms: C_12  and  C_13
REMARK   10  A    between atoms: C_13  and  C_14
REMARK   11  A    between atoms: C_14  and  C_15
REMARK   12  A    between atoms: C_15  and  C_16
REMARK   13  A    between atoms: C_15  and  C_18
REMARK   14  A    between atoms: C_15  and  N_20
REMARK   15  A    between atoms: C_16  and  O_17
REMARK   16  A    between atoms: C_18  and  O_19
REMARK   17  A    between atoms: C_21  and  C_23
REMARK                            x       y       z     vdW  Elec       q    Type
REMARK                         _______ _______ _______ _____ _____    ______ ____
ROOT
ATOM      1  C   UNL     1       1.825   8.454  19.089  0.00  0.00    +0.000 C 
ENDROOT
BRANCH   1   5
ATOM      2  C   UNL     1       4.417   5.267  17.705  0.00  0.00    +0.000 A 
ATOM      3  C   UNL     1       4.389   6.531  17.096  0.00  0.00    +0.000 A 
ATOM      4  C   UNL     1       3.556   7.529  17.569  0.00  0.00    +0.000 A 
ATOM      5  C   UNL     1       2.691   7.289  18.647  0.00  0.00    +0.000 A 
ATOM      6  C   UNL     1       2.664   5.999  19.257  0.00  0.00    +0.000 A 
ATOM      7  C   UNL     1       1.824   5.685  20.351  0.00  0.00    +0.000 A 
ATOM      8  C   UNL     1       1.741   4.405  20.898  0.00  0.00    +0.000 A 
ATOM      9  C   UNL     1       2.540   3.398  20.393  0.00  0.00    +0.000 A 
ATOM     10  C   UNL     1       3.425   3.683  19.354  0.00  0.00    +0.000 A 
ATOM     11  C   UNL     1       3.516   4.968  18.762  0.00  0.00    +0.000 A 
BRANCH   2  12
ATOM     12  C   UNL     1       5.521   4.337  17.244  0.00  0.00    +0.000 C 
BRANCH  12  13
ATOM     13  C   UNL     1       6.233   4.953  16.035  0.00  0.00    +0.000 C 
BRANCH  13  14
ATOM     14  C   UNL     1       6.137   4.068  14.801  0.00  0.00    +0.000 C 
BRANCH  14  15
ATOM     15  C   UNL     1       6.991   4.646  13.676  0.00  0.00    +0.000 C 
BRANCH  15  16
ATOM     16  C   UNL     1       6.729   3.913  12.367  0.00  0.00    +0.000 C 
BRANCH  16  17
ATOM     17  C   UNL     1       5.426   3.121  12.437  0.00  0.00    +0.000 C 
BRANCH  17  19
ATOM     18  C   UNL     1       6.438   1.244  11.108  0.00  0.00    +0.000 C 
ATOM     19  C   UNL     1       5.277   2.215  11.217  0.00  0.00    +0.000 C 
ENDBRANCH  17  19
ENDBRANCH  16  17
ENDBRANCH  15  16
ENDBRANCH  14  15
ENDBRANCH  13  14
ENDBRANCH  12  13
ENDBRANCH   2  12
ENDBRANCH   1   5
BRANCH   1  20
ATOM     20  C   UNL     1       1.772   9.689  18.179  0.00  0.00    +0.000 C 
BRANCH  20  21
ATOM     21  C   UNL     1       1.296  11.052  18.761  0.00  0.00    +0.000 C 
BRANCH  21  22
ATOM     22  N   UNL     1      -0.066  11.349  18.196  0.00  0.00    +0.000 N 
ATOM     23  C   UNL     1      -1.223  10.778  18.702  0.00  0.00    +0.000 C 
ATOM     24  O   UNL     1      -1.252  10.038  19.677  0.00  0.00    +0.000 OA
ATOM     25  H   UNL     1      -0.098  11.688  17.243  0.00  0.00    +0.000 HD
BRANCH  23  26
ATOM     26  C   UNL     1      -2.481  11.035  17.955  0.00  0.00    +0.000 A 
ATOM     27  C   UNL     1      -3.560  11.590  18.658  0.00  0.00    +0.000 A 
ATOM     28  C   UNL     1      -4.772  11.828  18.012  0.00  0.00    +0.000 A 
ATOM     29  C   UNL     1      -4.909  11.527  16.657  0.00  0.00    +0.000 A 
ATOM     30  C   UNL     1      -3.829  11.004  15.945  0.00  0.00    +0.000 A 
ATOM     31  C   UNL     1      -2.614  10.760  16.588  0.00  0.00    +0.000 A 
ENDBRANCH  23  26
ENDBRANCH  21  22
BRANCH  21  32
ATOM     32  C   UNL     1       2.246  12.238  18.442  0.00  0.00    +0.000 C 
BRANCH  32  33
ATOM     33  O   UNL     1       1.498  13.455  18.313  0.00  0.00    +0.000 OA
ATOM     34  H   UNL     1       2.031  14.135  18.764  0.00  0.00    +0.000 HD
ENDBRANCH  32  33
ENDBRANCH  21  32
BRANCH  21  35
ATOM     35  C   UNL     1       1.165  10.953  20.309  0.00  0.00    +0.000 C 
BRANCH  35  36
ATOM     36  O   UNL     1       1.541  12.170  20.957  0.00  0.00    +0.000 OA
ATOM     37  H   UNL     1       1.283  12.900  20.370  0.00  0.00    +0.000 HD
ENDBRANCH  35  36
ENDBRANCH  21  35
ENDBRANCH  20  21
ENDBRANCH   1  20
TORSDOF 16
ENDMDL
MODEL 8
REMARK VINA RESULT:      -7.2      3.085      9.502
REMARK  Name = 
REMARK  17 active torsions:
REMARK  status: ('A' for Active; 'I' for Inactive)
REMARK    1  A    between atoms: C_1  and  C_2
REMARK    2  A    between atoms: C_2  and  C_3
REMARK    3  A    between atoms: C_3  and  C_4
REMARK    4  A    between atoms: C_4  and  C_5
REMARK    5  A    between atoms: C_5  and  C_6
REMARK    6  A    between atoms: C_6  and  C_7
REMARK    7  A    between atoms: C_7  and  C_8
REMARK    8  A    between atoms: C_8  and  C_9
REMARK    9  A    between atoms: C_12  and  C_13
REMARK   10  A    between atoms: C_13  and  C_14
REMARK   11  A    between atoms: C_14  and  C_15
REMARK   12  A    between atoms: C_15  and  C_16
REMARK   13  A    between atoms: C_15  and  C_18
REMARK   14  A    between atoms: C_15  and  N_20
REMARK   15  A    between atoms: C_16  and  O_17
REMARK   16  A    between atoms: C_18  and  O_19
REMARK   17  A    between atoms: C_21  and  C_23
REMARK                            x       y       z     vdW  Elec       q    Type
REMARK                         _______ _______ _______ _____ _____    ______ ____
ROOT
ATOM      1  C   UNL     1       2.556   6.752  20.246  0.00  0.00    +0.000 C 
ENDROOT
BRANCH   1   5
ATOM      2  C   UNL     1       0.216  10.085  18.759  0.00  0.00    +0.000 A 
ATOM      3  C   UNL     1       1.001   9.283  17.917  0.00  0.00    +0.000 A 
ATOM      4  C   UNL     1       1.729   8.221  18.424  0.00  0.00    +0.000 A 
ATOM      5  C   UNL     1       1.729   7.942  19.799  0.00  0.00    +0.000 A 
ATOM      6  C   UNL     1       0.975   8.769  20.685  0.00  0.00    +0.000 A 
ATOM      7  C   UNL     1       0.921   8.545  22.082  0.00  0.00    +0.000 A 
ATOM      8  C   UNL     1       0.248   9.397  22.957  0.00  0.00    +0.000 A 
ATOM      9  C   UNL     1      -0.439  10.483  22.454  0.00  0.00    +0.000 A 
ATOM     10  C   UNL     1      -0.459  10.703  21.078  0.00  0.00    +0.000 A 
ATOM     11  C   UNL     1       0.234   9.869  20.164  0.00  0.00    +0.000 A 
BRANCH   2  12
ATOM     12  C   UNL     1      -0.703  11.069  18.064  0.00  0.00    +0.000 C 
BRANCH  12  13
ATOM     13  C   UNL     1      -1.654  10.307  17.134  0.00  0.00    +0.000 C 
BRANCH  13  14
ATOM     14  C   UNL     1      -2.962   9.948  17.823  0.00  0.00    +0.000 C 
BRANCH  14  15
ATOM     15  C   UNL     1      -4.118  10.704  17.174  0.00  0.00    +0.000 C 
BRANCH  15  16
ATOM     16  C   UNL     1      -5.249  10.921  18.170  0.00  0.00    +0.000 C 
BRANCH  16  17
ATOM     17  C   UNL     1      -5.647  12.394  18.231  0.00  0.00    +0.000 C 
BRANCH  17  19
ATOM     18  C   UNL     1      -6.835  14.228  16.990  0.00  0.00    +0.000 C 
ATOM     19  C   UNL     1      -6.657  12.727  17.136  0.00  0.00    +0.000 C 
ENDBRANCH  17  19
ENDBRANCH  16  17
ENDBRANCH  15  16
ENDBRANCH  14  15
ENDBRANCH  13  14
ENDBRANCH  12  13
ENDBRANCH   2  12
ENDBRANCH   1   5
BRANCH   1  20
ATOM     20  C   UNL     1       1.820   5.434  20.524  0.00  0.00    +0.000 C 
BRANCH  20  21
ATOM     21  C   UNL     1       2.199   4.157  19.718  0.00  0.00    +0.000 C 
BRANCH  21  22
ATOM     22  N   UNL     1       3.289   4.526  18.749  0.00  0.00    +0.000 N 
ATOM     23  C   UNL     1       3.891   3.596  17.917  0.00  0.00    +0.000 C 
ATOM     24  O   UNL     1       3.559   2.419  17.849  0.00  0.00    +0.000 OA
ATOM     25  H   UNL     1       3.810   5.369  18.952  0.00  0.00    +0.000 HD
BRANCH  23  26
ATOM     26  C   UNL     1       5.057   4.062  17.122  0.00  0.00    +0.000 A 
ATOM     27  C   UNL     1       6.209   4.457  17.816  0.00  0.00    +0.000 A 
ATOM     28  C   UNL     1       7.322   4.927  17.120  0.00  0.00    +0.000 A 
ATOM     29  C   UNL     1       7.295   4.990  15.727  0.00  0.00    +0.000 A 
ATOM     30  C   UNL     1       6.163   4.568  15.030  0.00  0.00    +0.000 A 
ATOM     31  C   UNL     1       5.045   4.101  15.722  0.00  0.00    +0.000 A 
ENDBRANCH  23  26
ENDBRANCH  21  22
BRANCH  21  32
ATOM     32  C   UNL     1       1.013   3.534  18.932  0.00  0.00    +0.000 C 
BRANCH  32  33
ATOM     33  O   UNL     1       1.013   2.108  19.079  0.00  0.00    +0.000 OA
ATOM     34  H   UNL     1       0.759   1.943  20.005  0.00  0.00    +0.000 HD
ENDBRANCH  32  33
ENDBRANCH  21  32
BRANCH  21  35
ATOM     35  C   UNL     1       2.755   3.067  20.679  0.00  0.00    +0.000 C 
BRANCH  35  36
ATOM     36  O   UNL     1       2.276   3.236  22.015  0.00  0.00    +0.000 OA
ATOM     37  H   UNL     1       2.708   4.028  22.376  0.00  0.00    +0.000 HD
ENDBRANCH  35  36
ENDBRANCH  21  35
ENDBRANCH  20  21
ENDBRANCH   1  20
TORSDOF 16
ENDMDL
MODEL 9
REMARK VINA RESULT:      -7.1      1.479      2.313
REMARK  Name = 
REMARK  17 active torsions:
REMARK  status: ('A' for Active; 'I' for Inactive)
REMARK    1  A    between atoms: C_1  and  C_2
REMARK    2  A    between atoms: C_2  and  C_3
REMARK    3  A    between atoms: C_3  and  C_4
REMARK    4  A    between atoms: C_4  and  C_5
REMARK    5  A    between atoms: C_5  and  C_6
REMARK    6  A    between atoms: C_6  and  C_7
REMARK    7  A    between atoms: C_7  and  C_8
REMARK    8  A    between atoms: C_8  and  C_9
REMARK    9  A    between atoms: C_12  and  C_13
REMARK   10  A    between atoms: C_13  and  C_14
REMARK   11  A    between atoms: C_14  and  C_15
REMARK   12  A    between atoms: C_15  and  C_16
REMARK   13  A    between atoms: C_15  and  C_18
REMARK   14  A    between atoms: C_15  and  N_20
REMARK   15  A    between atoms: C_16  and  O_17
REMARK   16  A    between atoms: C_18  and  O_19
REMARK   17  A    between atoms: C_21  and  C_23
REMARK                            x       y       z     vdW  Elec       q    Type
REMARK                         _______ _______ _______ _____ _____    ______ ____
ROOT
ATOM      1  C   UNL     1       1.822   7.990  18.163  0.00  0.00    +0.000 C 
ENDROOT
BRANCH   1   5
ATOM      2  C   UNL     1       4.835   5.175  16.825  0.00  0.00    +0.000 A 
ATOM      3  C   UNL     1       4.933   6.553  16.581  0.00  0.00    +0.000 A 
ATOM      4  C   UNL     1       3.958   7.425  17.031  0.00  0.00    +0.000 A 
ATOM      5  C   UNL     1       2.827   6.948  17.710  0.00  0.00    +0.000 A 
ATOM      6  C   UNL     1       2.677   5.545  17.931  0.00  0.00    +0.000 A 
ATOM      7  C   UNL     1       1.568   4.991  18.614  0.00  0.00    +0.000 A 
ATOM      8  C   UNL     1       1.383   3.617  18.763  0.00  0.00    +0.000 A 
ATOM      9  C   UNL     1       2.336   2.746  18.273  0.00  0.00    +0.000 A 
ATOM     10  C   UNL     1       3.472   3.256  17.646  0.00  0.00    +0.000 A 
ATOM     11  C   UNL     1       3.678   4.647  17.459  0.00  0.00    +0.000 A 
BRANCH   2  12
ATOM     12  C   UNL     1       6.063   4.355  16.483  0.00  0.00    +0.000 C 
BRANCH  12  13
ATOM     13  C   UNL     1       7.322   5.163  16.816  0.00  0.00    +0.000 C 
BRANCH  13  14
ATOM     14  C   UNL     1       7.598   5.201  18.312  0.00  0.00    +0.000 C 
BRANCH  14  15
ATOM     15  C   UNL     1       7.961   6.620  18.740  0.00  0.00    +0.000 C 
BRANCH  15  16
ATOM     16  C   UNL     1       7.964   7.562  17.542  0.00  0.00    +0.000 C 
BRANCH  16  17
ATOM     17  C   UNL     1       7.647   8.992  17.973  0.00  0.00    +0.000 C 
BRANCH  17  19
ATOM     18  C   UNL     1       9.277  10.248  19.414  0.00  0.00    +0.000 C 
ATOM     19  C   UNL     1       8.913   9.844  17.997  0.00  0.00    +0.000 C 
ENDBRANCH  17  19
ENDBRANCH  16  17
ENDBRANCH  15  16
ENDBRANCH  14  15
ENDBRANCH  13  14
ENDBRANCH  12  13
ENDBRANCH   2  12
ENDBRANCH   1   5
BRANCH   1  20
ATOM     20  C   UNL     1       1.832   8.395  19.644  0.00  0.00    +0.000 C 
BRANCH  20  21
ATOM     21  C   UNL     1       0.784   9.420  20.167  0.00  0.00    +0.000 C 
BRANCH  21  22
ATOM     22  N   UNL     1      -0.180   9.710  19.049  0.00  0.00    +0.000 N 
ATOM     23  C   UNL     1      -1.244  10.586  19.193  0.00  0.00    +0.000 C 
ATOM     24  O   UNL     1      -1.462  11.240  20.205  0.00  0.00    +0.000 OA
ATOM     25  H   UNL     1      -0.251   9.014  18.320  0.00  0.00    +0.000 HD
BRANCH  23  26
ATOM     26  C   UNL     1      -2.206  10.664  18.064  0.00  0.00    +0.000 A 
ATOM     27  C   UNL     1      -1.968   9.858  16.942  0.00  0.00    +0.000 A 
ATOM     28  C   UNL     1      -2.825   9.911  15.844  0.00  0.00    +0.000 A 
ATOM     29  C   UNL     1      -3.932  10.759  15.866  0.00  0.00    +0.000 A 
ATOM     30  C   UNL     1      -4.192  11.540  16.993  0.00  0.00    +0.000 A 
ATOM     31  C   UNL     1      -3.335  11.493  18.093  0.00  0.00    +0.000 A 
ENDBRANCH  23  26
ENDBRANCH  21  22
BRANCH  21  32
ATOM     32  C   UNL     1       1.403  10.755  20.662  0.00  0.00    +0.000 C 
BRANCH  32  33
ATOM     33  O   UNL     1       1.516  11.685  19.576  0.00  0.00    +0.000 OA
ATOM     34  H   UNL     1       1.458  12.568  19.983  0.00  0.00    +0.000 HD
ENDBRANCH  32  33
ENDBRANCH  21  32
BRANCH  21  35
ATOM     35  C   UNL     1      -0.019   8.804  21.350  0.00  0.00    +0.000 C 
BRANCH  35  36
ATOM     36  O   UNL     1      -0.085   9.688  22.471  0.00  0.00    +0.000 OA
ATOM     37  H   UNL     1       0.695  10.266  22.426  0.00  0.00    +0.000 HD
ENDBRANCH  35  36
ENDBRANCH  21  35
ENDBRANCH  20  21
ENDBRANCH   1  20
TORSDOF 16
ENDMDL
