MODEL 1
REMARK VINA RESULT:      -7.1      0.000      0.000
REMARK  Name = 
REMARK  7 active torsions:
REMARK  status: ('A' for Active; 'I' for Inactive)
REMARK    1  A    between atoms: C_2  and  C_3
REMARK    2  A    between atoms: C_3  and  C_4
REMARK    3  A    between atoms: C_4  and  C_5
REMARK    4  A    between atoms: C_5  and  O_6
REMARK    5  A    between atoms: O_6  and  C_7
REMARK    6  A    between atoms: N_13  and  N_14
REMARK    7  A    between atoms: C_15  and  C_17
REMARK                            x       y       z     vdW  Elec       q    Type
REMARK                         _______ _______ _______ _____ _____    ______ ____
ROOT
ATOM      1  O   UNL     1       4.864   5.659  19.383  0.00  0.00    +0.000 OA
ATOM      2  C   UNL     1       4.500   5.831  18.219  0.00  0.00    +0.000 C 
ATOM      3  N   UNL     1       3.398   6.588  17.886  0.00  0.00    +0.000 N 
ATOM      4  H   UNL     1       3.103   6.780  16.927  0.00  0.00    +0.000 HD
ENDROOT
BRANCH   3   5
ATOM      5  N   UNL     1       2.638   7.180  18.896  0.00  0.00    +0.000 N 
ATOM      6  C   UNL     1       2.054   8.403  18.627  0.00  0.00    +0.000 C 
ATOM      7  O   UNL     1       2.174   8.973  17.546  0.00  0.00    +0.000 OA
ATOM      8  H   UNL     1       2.416   6.601  19.704  0.00  0.00    +0.000 HD
BRANCH   6   9
ATOM      9  C   UNL     1       1.238   9.001  19.716  0.00  0.00    +0.000 A 
ATOM     10  C   UNL     1       1.202   8.435  20.996  0.00  0.00    +0.000 A 
ATOM     11  C   UNL     1       0.431   9.026  22.001  0.00  0.00    +0.000 A 
ATOM     12  C   UNL     1      -0.298  10.183  21.728  0.00  0.00    +0.000 A 
ATOM     13 CL   UNL     1      -1.254  10.899  22.967  0.00  0.00    +0.000 Cl
ATOM     14  C   UNL     1      -0.252  10.766  20.462  0.00  0.00    +0.000 A 
ATOM     15  C   UNL     1       0.522  10.179  19.457  0.00  0.00    +0.000 A 
ENDBRANCH   6   9
ENDBRANCH   3   5
BRANCH   2  16
ATOM     16  C   UNL     1       5.208   5.245  17.011  0.00  0.00    +0.000 C 
BRANCH  16  17
ATOM     17  C   UNL     1       4.417   4.131  16.326  0.00  0.00    +0.000 C 
BRANCH  17  18
ATOM     18  C   UNL     1       4.226   2.933  17.255  0.00  0.00    +0.000 C 
BRANCH  18  19
ATOM     19  O   UNL     1       2.834   2.708  17.480  0.00  0.00    +0.000 OA
BRANCH  19  20
ATOM     20  C   UNL     1       2.403   3.018  18.746  0.00  0.00    +0.000 A 
ATOM     21  C   UNL     1       3.155   2.479  19.789  0.00  0.00    +0.000 A 
ATOM     22  C   UNL     1       2.797   2.720  21.118  0.00  0.00    +0.000 A 
ATOM     23  C   UNL     1       1.692   3.520  21.408  0.00  0.00    +0.000 A 
ATOM     24  C   UNL     1       0.953   4.081  20.372  0.00  0.00    +0.000 A 
ATOM     25  C   UNL     1       1.308   3.834  19.044  0.00  0.00    +0.000 A 
ENDBRANCH  19  20
ENDBRANCH  18  19
ENDBRANCH  17  18
ENDBRANCH  16  17
ENDBRANCH   2  16
TORSDOF 7
ENDMDL
MODEL 2
REMARK VINA RESULT:      -7.1      0.291      1.045
REMARK  Name = 
REMARK  7 active torsions:
REMARK  status: ('A' for Active; 'I' for Inactive)
REMARK    1  A    between atoms: C_2  and  C_3
REMARK    2  A    between atoms: C_3  and  C_4
REMARK    3  A    between atoms: C_4  and  C_5
REMARK    4  A    between atoms: C_5  and  O_6
REMARK    5  A    between atoms: O_6  and  C_7
REMARK    6  A    between atoms: N_13  and  N_14
REMARK    7  A    between atoms: C_15  and  C_17
REMARK                            x       y       z     vdW  Elec       q    Type
REMARK                         _______ _______ _______ _____ _____    ______ ____
ROOT
ATOM      1  O   UNL     1       4.971   5.826  19.010  0.00  0.00    +0.000 OA
ATOM      2  C   UNL     1       4.560   6.044  17.870  0.00  0.00    +0.000 C 
ATOM      3  N   UNL     1       3.423   6.779  17.615  0.00  0.00    +0.000 N 
ATOM      4  H   UNL     1       3.088   7.009  16.678  0.00  0.00    +0.000 HD
ENDROOT
BRANCH   3   5
ATOM      5  N   UNL     1       2.680   7.293  18.679  0.00  0.00    +0.000 N 
ATOM      6  C   UNL     1       2.052   8.509  18.496  0.00  0.00    +0.000 C 
ATOM      7  O   UNL     1       2.118   9.139  17.443  0.00  0.00    +0.000 OA
ATOM      8  H   UNL     1       2.504   6.665  19.462  0.00  0.00    +0.000 HD
BRANCH   6   9
ATOM      9  C   UNL     1       1.256   9.023  19.641  0.00  0.00    +0.000 A 
ATOM     10  C   UNL     1       0.356  10.085  19.487  0.00  0.00    +0.000 A 
ATOM     11  C   UNL     1      -0.383  10.540  20.583  0.00  0.00    +0.000 A 
ATOM     12  C   UNL     1      -0.227   9.931  21.828  0.00  0.00    +0.000 A 
ATOM     13 CL   UNL     1      -1.133  10.503  23.174  0.00  0.00    +0.000 Cl
ATOM     14  C   UNL     1       0.651   8.859  21.986  0.00  0.00    +0.000 A 
ATOM     15  C   UNL     1       1.388   8.399  20.891  0.00  0.00    +0.000 A 
ENDBRANCH   6   9
ENDBRANCH   3   5
BRANCH   2  16
ATOM     16  C   UNL     1       5.243   5.545  16.609  0.00  0.00    +0.000 C 
BRANCH  16  17
ATOM     17  C   UNL     1       4.701   4.202  16.118  0.00  0.00    +0.000 C 
BRANCH  17  18
ATOM     18  C   UNL     1       4.442   3.249  17.283  0.00  0.00    +0.000 C 
BRANCH  18  19
ATOM     19  O   UNL     1       3.043   2.978  17.389  0.00  0.00    +0.000 OA
BRANCH  19  20
ATOM     20  C   UNL     1       2.521   3.158  18.646  0.00  0.00    +0.000 A 
ATOM     21  C   UNL     1       3.247   2.583  19.689  0.00  0.00    +0.000 A 
ATOM     22  C   UNL     1       2.799   2.694  21.008  0.00  0.00    +0.000 A 
ATOM     23  C   UNL     1       1.629   3.399  21.290  0.00  0.00    +0.000 A 
ATOM     24  C   UNL     1       0.914   3.996  20.256  0.00  0.00    +0.000 A 
ATOM     25  C   UNL     1       1.360   3.879  18.937  0.00  0.00    +0.000 A 
ENDBRANCH  19  20
ENDBRANCH  18  19
ENDBRANCH  17  18
ENDBRANCH  16  17
ENDBRANCH   2  16
TORSDOF 7
ENDMDL
MODEL 3
REMARK VINA RESULT:      -7.0      6.351      7.313
REMARK  Name = 
REMARK  7 active torsions:
REMARK  status: ('A' for Active; 'I' for Inactive)
REMARK    1  A    between atoms: C_2  and  C_3
REMARK    2  A    between atoms: C_3  and  C_4
REMARK    3  A    between atoms: C_4  and  C_5
REMARK    4  A    between atoms: C_5  and  O_6
REMARK    5  A    between atoms: O_6  and  C_7
REMARK    6  A    between atoms: N_13  and  N_14
REMARK    7  A    between atoms: C_15  and  C_17
REMARK                            x       y       z     vdW  Elec       q    Type
REMARK                         _______ _______ _______ _____ _____    ______ ____
ROOT
ATOM      1  O   UNL     1       7.342   7.722  16.871  0.00  0.00    +0.000 OA
ATOM      2  C   UNL     1       7.767   7.435  17.990  0.00  0.00    +0.000 C 
ATOM      3  N   UNL     1       8.541   8.295  18.738  0.00  0.00    +0.000 N 
ATOM      4  H   UNL     1       8.868   8.096  19.685  0.00  0.00    +0.000 HD
ENDROOT
BRANCH   3   5
ATOM      5  N   UNL     1       8.885   9.544  18.216  0.00  0.00    +0.000 N 
ATOM      6  C   UNL     1       9.347  10.503  19.097  0.00  0.00    +0.000 C 
ATOM      7  O   UNL     1       9.470  10.294  20.301  0.00  0.00    +0.000 OA
ATOM      8  H   UNL     1       8.939   9.618  17.201  0.00  0.00    +0.000 HD
BRANCH   6   9
ATOM      9  C   UNL     1       9.719  11.816  18.510  0.00  0.00    +0.000 A 
ATOM     10  C   UNL     1       8.984  12.975  18.788  0.00  0.00    +0.000 A 
ATOM     11  C   UNL     1       9.364  14.197  18.227  0.00  0.00    +0.000 A 
ATOM     12  C   UNL     1      10.481  14.262  17.393  0.00  0.00    +0.000 A 
ATOM     13 CL   UNL     1      10.937  15.768  16.696  0.00  0.00    +0.000 Cl
ATOM     14  C   UNL     1      11.232  13.117  17.127  0.00  0.00    +0.000 A 
ATOM     15  C   UNL     1      10.856  11.894  17.691  0.00  0.00    +0.000 A 
ENDBRANCH   6   9
ENDBRANCH   3   5
BRANCH   2  16
ATOM     16  C   UNL     1       7.495   6.116  18.691  0.00  0.00    +0.000 C 
BRANCH  16  17
ATOM     17  C   UNL     1       7.630   4.902  17.771  0.00  0.00    +0.000 C 
BRANCH  17  18
ATOM     18  C   UNL     1       6.283   4.516  17.162  0.00  0.00    +0.000 C 
BRANCH  18  19
ATOM     19  O   UNL     1       5.220   4.989  17.991  0.00  0.00    +0.000 OA
BRANCH  19  20
ATOM     20  C   UNL     1       4.278   4.041  18.306  0.00  0.00    +0.000 A 
ATOM     21  C   UNL     1       3.386   3.713  17.285  0.00  0.00    +0.000 A 
ATOM     22  C   UNL     1       2.378   2.770  17.502  0.00  0.00    +0.000 A 
ATOM     23  C   UNL     1       2.272   2.136  18.739  0.00  0.00    +0.000 A 
ATOM     24  C   UNL     1       3.174   2.440  19.754  0.00  0.00    +0.000 A 
ATOM     25  C   UNL     1       4.177   3.388  19.537  0.00  0.00    +0.000 A 
ENDBRANCH  19  20
ENDBRANCH  18  19
ENDBRANCH  17  18
ENDBRANCH  16  17
ENDBRANCH   2  16
TORSDOF 7
ENDMDL
MODEL 4
REMARK VINA RESULT:      -7.0      1.917      4.119
REMARK  Name = 
REMARK  7 active torsions:
REMARK  status: ('A' for Active; 'I' for Inactive)
REMARK    1  A    between atoms: C_2  and  C_3
REMARK    2  A    between atoms: C_3  and  C_4
REMARK    3  A    between atoms: C_4  and  C_5
REMARK    4  A    between atoms: C_5  and  O_6
REMARK    5  A    between atoms: O_6  and  C_7
REMARK    6  A    between atoms: N_13  and  N_14
REMARK    7  A    between atoms: C_15  and  C_17
REMARK                            x       y       z     vdW  Elec       q    Type
REMARK                         _______ _______ _______ _____ _____    ______ ____
ROOT
ATOM      1  O   UNL     1       0.550   4.197  20.383  0.00  0.00    +0.000 OA
ATOM      2  C   UNL     1       1.711   4.158  20.790  0.00  0.00    +0.000 C 
ATOM      3  N   UNL     1       2.450   5.291  21.051  0.00  0.00    +0.000 N 
ATOM      4  H   UNL     1       3.398   5.283  21.430  0.00  0.00    +0.000 HD
ENDROOT
BRANCH   3   5
ATOM      5  N   UNL     1       1.882   6.549  20.835  0.00  0.00    +0.000 N 
ATOM      6  C   UNL     1       2.241   7.226  19.685  0.00  0.00    +0.000 C 
ATOM      7  O   UNL     1       3.023   6.764  18.858  0.00  0.00    +0.000 OA
ATOM      8  H   UNL     1       1.112   6.815  21.445  0.00  0.00    +0.000 HD
BRANCH   6   9
ATOM      9  C   UNL     1       1.609   8.555  19.475  0.00  0.00    +0.000 A 
ATOM     10  C   UNL     1       1.670   9.204  18.236  0.00  0.00    +0.000 A 
ATOM     11  C   UNL     1       1.059  10.450  18.069  0.00  0.00    +0.000 A 
ATOM     12  C   UNL     1       0.383  11.042  19.136  0.00  0.00    +0.000 A 
ATOM     13 CL   UNL     1      -0.357  12.581  18.926  0.00  0.00    +0.000 Cl
ATOM     14  C   UNL     1       0.300  10.394  20.368  0.00  0.00    +0.000 A 
ATOM     15  C   UNL     1       0.907   9.145  20.536  0.00  0.00    +0.000 A 
ENDBRANCH   6   9
ENDBRANCH   3   5
BRANCH   2  16
ATOM     16  C   UNL     1       2.475   2.873  21.061  0.00  0.00    +0.000 C 
BRANCH  16  17
ATOM     17  C   UNL     1       3.129   2.282  19.812  0.00  0.00    +0.000 C 
BRANCH  17  18
ATOM     18  C   UNL     1       4.599   2.683  19.714  0.00  0.00    +0.000 C 
BRANCH  18  19
ATOM     19  O   UNL     1       4.706   4.045  19.296  0.00  0.00    +0.000 OA
BRANCH  19  20
ATOM     20  C   UNL     1       5.395   4.229  18.122  0.00  0.00    +0.000 A 
ATOM     21  C   UNL     1       4.659   4.038  16.953  0.00  0.00    +0.000 A 
ATOM     22  C   UNL     1       5.265   4.186  15.703  0.00  0.00    +0.000 A 
ATOM     23  C   UNL     1       6.610   4.546  15.618  0.00  0.00    +0.000 A 
ATOM     24  C   UNL     1       7.343   4.762  16.780  0.00  0.00    +0.000 A 
ATOM     25  C   UNL     1       6.737   4.607  18.030  0.00  0.00    +0.000 A 
ENDBRANCH  19  20
ENDBRANCH  18  19
ENDBRANCH  17  18
ENDBRANCH  16  17
ENDBRANCH   2  16
TORSDOF 7
ENDMDL
MODEL 5
REMARK VINA RESULT:      -6.9      5.380      6.260
REMARK  Name = 
REMARK  7 active torsions:
REMARK  status: ('A' for Active; 'I' for Inactive)
REMARK    1  A    between atoms: C_2  and  C_3
REMARK    2  A    between atoms: C_3  and  C_4
REMARK    3  A    between atoms: C_4  and  C_5
REMARK    4  A    between atoms: C_5  and  O_6
REMARK    5  A    between atoms: O_6  and  C_7
REMARK    6  A    between atoms: N_13  and  N_14
REMARK    7  A    between atoms: C_15  and  C_17
REMARK                            x       y       z     vdW  Elec       q    Type
REMARK                         _______ _______ _______ _____ _____    ______ ____
ROOT
ATOM      1  O   UNL     1       8.080   5.516  19.996  0.00  0.00    +0.000 OA
ATOM      2  C   UNL     1       7.622   5.635  18.860  0.00  0.00    +0.000 C 
ATOM      3  N   UNL     1       7.777   6.780  18.109  0.00  0.00    +0.000 N 
ATOM      4  H   UNL     1       7.443   6.885  17.149  0.00  0.00    +0.000 HD
ENDROOT
BRANCH   3   5
ATOM      5  N   UNL     1       8.464   7.869  18.647  0.00  0.00    +0.000 N 
ATOM      6  C   UNL     1       8.245   9.110  18.080  0.00  0.00    +0.000 C 
ATOM      7  O   UNL     1       7.473   9.284  17.141  0.00  0.00    +0.000 OA
ATOM      8  H   UNL     1       8.951   7.715  19.529  0.00  0.00    +0.000 HD
BRANCH   6   9
ATOM      9  C   UNL     1       8.979  10.253  18.684  0.00  0.00    +0.000 A 
ATOM     10  C   UNL     1       9.302  10.275  20.047  0.00  0.00    +0.000 A 
ATOM     11  C   UNL     1      10.000  11.360  20.583  0.00  0.00    +0.000 A 
ATOM     12  C   UNL     1      10.380  12.419  19.758  0.00  0.00    +0.000 A 
ATOM     13 CL   UNL     1      11.230  13.757  20.427  0.00  0.00    +0.000 Cl
ATOM     14  C   UNL     1      10.081  12.397  18.396  0.00  0.00    +0.000 A 
ATOM     15  C   UNL     1       9.386  11.309  17.856  0.00  0.00    +0.000 A 
ENDBRANCH   6   9
ENDBRANCH   3   5
BRANCH   2  16
ATOM     16  C   UNL     1       6.840   4.551  18.140  0.00  0.00    +0.000 C 
BRANCH  16  17
ATOM     17  C   UNL     1       5.855   5.099  17.107  0.00  0.00    +0.000 C 
BRANCH  17  18
ATOM     18  C   UNL     1       4.517   5.455  17.751  0.00  0.00    +0.000 C 
BRANCH  18  19
ATOM     19  O   UNL     1       3.548   4.450  17.449  0.00  0.00    +0.000 OA
BRANCH  19  20
ATOM     20  C   UNL     1       2.698   4.147  18.484  0.00  0.00    +0.000 A 
ATOM     21  C   UNL     1       1.747   3.163  18.217  0.00  0.00    +0.000 A 
ATOM     22  C   UNL     1       0.824   2.788  19.197  0.00  0.00    +0.000 A 
ATOM     23  C   UNL     1       0.862   3.384  20.457  0.00  0.00    +0.000 A 
ATOM     24  C   UNL     1       1.825   4.348  20.738  0.00  0.00    +0.000 A 
ATOM     25  C   UNL     1       2.744   4.727  19.755  0.00  0.00    +0.000 A 
ENDBRANCH  19  20
ENDBRANCH  18  19
ENDBRANCH  17  18
ENDBRANCH  16  17
ENDBRANCH   2  16
TORSDOF 7
ENDMDL
MODEL 6
REMARK VINA RESULT:      -6.9      1.922      3.996
REMARK  Name = 
REMARK  7 active torsions:
REMARK  status: ('A' for Active; 'I' for Inactive)
REMARK    1  A    between atoms: C_2  and  C_3
REMARK    2  A    between atoms: C_3  and  C_4
REMARK    3  A    between atoms: C_4  and  C_5
REMARK    4  A    between atoms: C_5  and  O_6
REMARK    5  A    between atoms: O_6  and  C_7
REMARK    6  A    between atoms: N_13  and  N_14
REMARK    7  A    between atoms: C_15  and  C_17
REMARK                            x       y       z     vdW  Elec       q    Type
REMARK                         _______ _______ _______ _____ _____    ______ ____
ROOT
ATOM      1  O   UNL     1       0.883   4.221  20.075  0.00  0.00    +0.000 OA
ATOM      2  C   UNL     1       2.085   4.312  20.321  0.00  0.00    +0.000 C 
ATOM      3  N   UNL     1       2.671   5.479  20.762  0.00  0.00    +0.000 N 
ATOM      4  H   UNL     1       3.657   5.566  21.014  0.00  0.00    +0.000 HD
ENDROOT
BRANCH   3   5
ATOM      5  N   UNL     1       1.888   6.624  20.927  0.00  0.00    +0.000 N 
ATOM      6  C   UNL     1       1.964   7.599  19.952  0.00  0.00    +0.000 C 
ATOM      7  O   UNL     1       2.679   7.491  18.959  0.00  0.00    +0.000 OA
ATOM      8  H   UNL     1       1.183   6.596  21.662  0.00  0.00    +0.000 HD
BRANCH   6   9
ATOM      9  C   UNL     1       1.108   8.798  20.147  0.00  0.00    +0.000 A 
ATOM     10  C   UNL     1       0.903   9.724  19.117  0.00  0.00    +0.000 A 
ATOM     11  C   UNL     1       0.086  10.838  19.330  0.00  0.00    +0.000 A 
ATOM     12  C   UNL     1      -0.529  11.023  20.568  0.00  0.00    +0.000 A 
ATOM     13 CL   UNL     1      -1.524  12.403  20.826  0.00  0.00    +0.000 Cl
ATOM     14  C   UNL     1      -0.347  10.096  21.593  0.00  0.00    +0.000 A 
ATOM     15  C   UNL     1       0.466   8.978  21.381  0.00  0.00    +0.000 A 
ENDBRANCH   6   9
ENDBRANCH   3   5
BRANCH   2  16
ATOM     16  C   UNL     1       3.072   3.167  20.180  0.00  0.00    +0.000 C 
BRANCH  16  17
ATOM     17  C   UNL     1       3.285   2.726  18.732  0.00  0.00    +0.000 C 
BRANCH  17  18
ATOM     18  C   UNL     1       4.470   3.453  18.100  0.00  0.00    +0.000 C 
BRANCH  18  19
ATOM     19  O   UNL     1       5.263   4.068  19.116  0.00  0.00    +0.000 OA
BRANCH  19  20
ATOM     20  C   UNL     1       6.032   5.119  18.682  0.00  0.00    +0.000 A 
ATOM     21  C   UNL     1       5.496   5.868  17.634  0.00  0.00    +0.000 A 
ATOM     22  C   UNL     1       6.202   6.952  17.106  0.00  0.00    +0.000 A 
ATOM     23  C   UNL     1       7.441   7.304  17.639  0.00  0.00    +0.000 A 
ATOM     24  C   UNL     1       7.970   6.577  18.701  0.00  0.00    +0.000 A 
ATOM     25  C   UNL     1       7.266   5.489  19.224  0.00  0.00    +0.000 A 
ENDBRANCH  19  20
ENDBRANCH  18  19
ENDBRANCH  17  18
ENDBRANCH  16  17
ENDBRANCH   2  16
TORSDOF 7
ENDMDL
MODEL 7
REMARK VINA RESULT:      -6.9      3.859      7.288
REMARK  Name = 
REMARK  7 active torsions:
REMARK  status: ('A' for Active; 'I' for Inactive)
REMARK    1  A    between atoms: C_2  and  C_3
REMARK    2  A    between atoms: C_3  and  C_4
REMARK    3  A    between atoms: C_4  and  C_5
REMARK    4  A    between atoms: C_5  and  O_6
REMARK    5  A    between atoms: O_6  and  C_7
REMARK    6  A    between atoms: N_13  and  N_14
REMARK    7  A    between atoms: C_15  and  C_17
REMARK                            x       y       z     vdW  Elec       q    Type
REMARK                         _______ _______ _______ _____ _____    ______ ____
ROOT
ATOM      1  O   UNL     1       2.564   2.003  18.725  0.00  0.00    +0.000 OA
ATOM      2  C   UNL     1       3.245   2.566  19.582  0.00  0.00    +0.000 C 
ATOM      3  N   UNL     1       4.394   3.265  19.284  0.00  0.00    +0.000 N 
ATOM      4  H   UNL     1       4.950   3.775  19.972  0.00  0.00    +0.000 HD
ENDROOT
BRANCH   3   5
ATOM      5  N   UNL     1       4.833   3.335  17.960  0.00  0.00    +0.000 N 
ATOM      6  C   UNL     1       5.586   4.434  17.592  0.00  0.00    +0.000 C 
ATOM      7  O   UNL     1       5.882   5.330  18.377  0.00  0.00    +0.000 OA
ATOM      8  H   UNL     1       4.721   2.496  17.394  0.00  0.00    +0.000 HD
BRANCH   6   9
ATOM      9  C   UNL     1       6.053   4.473  16.181  0.00  0.00    +0.000 A 
ATOM     10  C   UNL     1       7.119   5.291  15.787  0.00  0.00    +0.000 A 
ATOM     11  C   UNL     1       7.539   5.300  14.454  0.00  0.00    +0.000 A 
ATOM     12  C   UNL     1       6.898   4.488  13.518  0.00  0.00    +0.000 A 
ATOM     13 CL   UNL     1       7.413   4.512  11.876  0.00  0.00    +0.000 Cl
ATOM     14  C   UNL     1       5.849   3.655  13.904  0.00  0.00    +0.000 A 
ATOM     15  C   UNL     1       5.430   3.641  15.239  0.00  0.00    +0.000 A 
ENDBRANCH   6   9
ENDBRANCH   3   5
BRANCH   2  16
ATOM     16  C   UNL     1       2.912   2.572  21.064  0.00  0.00    +0.000 C 
BRANCH  16  17
ATOM     17  C   UNL     1       1.475   3.004  21.360  0.00  0.00    +0.000 C 
BRANCH  17  18
ATOM     18  C   UNL     1       1.138   4.322  20.666  0.00  0.00    +0.000 C 
BRANCH  18  19
ATOM     19  O   UNL     1       2.190   5.265  20.874  0.00  0.00    +0.000 OA
BRANCH  19  20
ATOM     20  C   UNL     1       2.088   6.409  20.121  0.00  0.00    +0.000 A 
ATOM     21  C   UNL     1       2.526   6.304  18.801  0.00  0.00    +0.000 A 
ATOM     22  C   UNL     1       2.478   7.412  17.950  0.00  0.00    +0.000 A 
ATOM     23  C   UNL     1       1.974   8.626  18.414  0.00  0.00    +0.000 A 
ATOM     24  C   UNL     1       1.513   8.730  19.722  0.00  0.00    +0.000 A 
ATOM     25  C   UNL     1       1.566   7.624  20.574  0.00  0.00    +0.000 A 
ENDBRANCH  19  20
ENDBRANCH  18  19
ENDBRANCH  17  18
ENDBRANCH  16  17
ENDBRANCH   2  16
TORSDOF 7
ENDMDL
MODEL 8
REMARK VINA RESULT:      -6.8      2.067      4.248
REMARK  Name = 
REMARK  7 active torsions:
REMARK  status: ('A' for Active; 'I' for Inactive)
REMARK    1  A    between atoms: C_2  and  C_3
REMARK    2  A    between atoms: C_3  and  C_4
REMARK    3  A    between atoms: C_4  and  C_5
REMARK    4  A    between atoms: C_5  and  O_6
REMARK    5  A    between atoms: O_6  and  C_7
REMARK    6  A    between atoms: N_13  and  N_14
REMARK    7  A    between atoms: C_15  and  C_17
REMARK                            x       y       z     vdW  Elec       q    Type
REMARK                         _______ _______ _______ _____ _____    ______ ____
ROOT
ATOM      1  O   UNL     1       0.745   4.039  20.658  0.00  0.00    +0.000 OA
ATOM      2  C   UNL     1       1.842   4.287  20.159  0.00  0.00    +0.000 C 
ATOM      3  N   UNL     1       2.424   5.534  20.217  0.00  0.00    +0.000 N 
ATOM      4  H   UNL     1       3.352   5.751  19.848  0.00  0.00    +0.000 HD
ENDROOT
BRANCH   3   5
ATOM      5  N   UNL     1       1.750   6.581  20.848  0.00  0.00    +0.000 N 
ATOM      6  C   UNL     1       1.697   7.797  20.195  0.00  0.00    +0.000 C 
ATOM      7  O   UNL     1       2.208   7.982  19.094  0.00  0.00    +0.000 OA
ATOM      8  H   UNL     1       1.193   6.341  21.667  0.00  0.00    +0.000 HD
BRANCH   6   9
ATOM      9  C   UNL     1       0.960   8.888  20.885  0.00  0.00    +0.000 A 
ATOM     10  C   UNL     1       0.462   9.991  20.182  0.00  0.00    +0.000 A 
ATOM     11  C   UNL     1      -0.235  10.996  20.858  0.00  0.00    +0.000 A 
ATOM     12  C   UNL     1      -0.437  10.896  22.235  0.00  0.00    +0.000 A 
ATOM     13 CL   UNL     1      -1.286  12.143  23.063  0.00  0.00    +0.000 Cl
ATOM     14  C   UNL     1       0.037   9.791  22.941  0.00  0.00    +0.000 A 
ATOM     15  C   UNL     1       0.730   8.782  22.265  0.00  0.00    +0.000 A 
ENDBRANCH   6   9
ENDBRANCH   3   5
BRANCH   2  16
ATOM     16  C   UNL     1       2.694   3.264  19.428  0.00  0.00    +0.000 C 
BRANCH  16  17
ATOM     17  C   UNL     1       4.175   3.331  19.803  0.00  0.00    +0.000 C 
BRANCH  17  18
ATOM     18  C   UNL     1       5.023   3.822  18.631  0.00  0.00    +0.000 C 
BRANCH  18  19
ATOM     19  O   UNL     1       6.315   4.216  19.096  0.00  0.00    +0.000 OA
BRANCH  19  20
ATOM     20  C   UNL     1       6.751   5.424  18.613  0.00  0.00    +0.000 A 
ATOM     21  C   UNL     1       5.956   6.001  17.622  0.00  0.00    +0.000 A 
ATOM     22  C   UNL     1       6.315   7.225  17.050  0.00  0.00    +0.000 A 
ATOM     23  C   UNL     1       7.464   7.886  17.483  0.00  0.00    +0.000 A 
ATOM     24  C   UNL     1       8.247   7.329  18.489  0.00  0.00    +0.000 A 
ATOM     25  C   UNL     1       7.890   6.102  19.055  0.00  0.00    +0.000 A 
ENDBRANCH  19  20
ENDBRANCH  18  19
ENDBRANCH  17  18
ENDBRANCH  16  17
ENDBRANCH   2  16
TORSDOF 7
ENDMDL
MODEL 9
REMARK VINA RESULT:      -6.8      2.053      3.969
REMARK  Name = 
REMARK  7 active torsions:
REMARK  status: ('A' for Active; 'I' for Inactive)
REMARK    1  A    between atoms: C_2  and  C_3
REMARK    2  A    between atoms: C_3  and  C_4
REMARK    3  A    between atoms: C_4  and  C_5
REMARK    4  A    between atoms: C_5  and  O_6
REMARK    5  A    between atoms: O_6  and  C_7
REMARK    6  A    between atoms: N_13  and  N_14
REMARK    7  A    between atoms: C_15  and  C_17
REMARK                            x       y       z     vdW  Elec       q    Type
REMARK                         _______ _______ _______ _____ _____    ______ ____
ROOT
ATOM      1  O   UNL     1       0.727   4.550  20.397  0.00  0.00    +0.000 OA
ATOM      2  C   UNL     1       1.868   4.854  20.051  0.00  0.00    +0.000 C 
ATOM      3  N   UNL     1       2.415   6.095  20.293  0.00  0.00    +0.000 N 
ATOM      4  H   UNL     1       3.374   6.355  20.054  0.00  0.00    +0.000 HD
ENDROOT
BRANCH   3   5
ATOM      5  N   UNL     1       1.655   7.070  20.941  0.00  0.00    +0.000 N 
ATOM      6  C   UNL     1       1.426   8.257  20.271  0.00  0.00    +0.000 C 
ATOM      7  O   UNL     1       1.856   8.475  19.141  0.00  0.00    +0.000 OA
ATOM      8  H   UNL     1       1.172   6.785  21.791  0.00  0.00    +0.000 HD
BRANCH   6   9
ATOM      9  C   UNL     1       0.600   9.269  20.980  0.00  0.00    +0.000 A 
ATOM     10  C   UNL     1       0.147  10.425  20.332  0.00  0.00    +0.000 A 
ATOM     11  C   UNL     1      -0.634  11.354  21.024  0.00  0.00    +0.000 A 
ATOM     12  C   UNL     1      -0.967  11.125  22.360  0.00  0.00    +0.000 A 
ATOM     13 CL   UNL     1      -1.920  12.279  23.209  0.00  0.00    +0.000 Cl
ATOM     14  C   UNL     1      -0.538   9.967  23.007  0.00  0.00    +0.000 A 
ATOM     15  C   UNL     1       0.240   9.034  22.315  0.00  0.00    +0.000 A 
ENDBRANCH   6   9
ENDBRANCH   3   5
BRANCH   2  16
ATOM     16  C   UNL     1       2.816   3.915  19.327  0.00  0.00    +0.000 C 
BRANCH  16  17
ATOM     17  C   UNL     1       3.479   4.549  18.104  0.00  0.00    +0.000 C 
BRANCH  17  18
ATOM     18  C   UNL     1       4.650   3.703  17.606  0.00  0.00    +0.000 C 
BRANCH  18  19
ATOM     19  O   UNL     1       5.419   4.445  16.658  0.00  0.00    +0.000 OA
BRANCH  19  20
ATOM     20  C   UNL     1       6.268   5.371  17.212  0.00  0.00    +0.000 A 
ATOM     21  C   UNL     1       7.041   4.919  18.281  0.00  0.00    +0.000 A 
ATOM     22  C   UNL     1       7.929   5.783  18.927  0.00  0.00    +0.000 A 
ATOM     23  C   UNL     1       8.060   7.101  18.492  0.00  0.00    +0.000 A 
ATOM     24  C   UNL     1       7.310   7.551  17.410  0.00  0.00    +0.000 A 
ATOM     25  C   UNL     1       6.418   6.688  16.769  0.00  0.00    +0.000 A 
ENDBRANCH  19  20
ENDBRANCH  18  19
ENDBRANCH  17  18
ENDBRANCH  16  17
ENDBRANCH   2  16
TORSDOF 7
ENDMDL
