MODEL 1
REMARK VINA RESULT:      -7.4      0.000      0.000
REMARK  Name = 
REMARK  8 active torsions:
REMARK  status: ('A' for Active; 'I' for Inactive)
REMARK    1  A    between atoms: C_1  and  O_2
REMARK    2  A    between atoms: O_2  and  C_3
REMARK    3  A    between atoms: C_3  and  C_5
REMARK    4  A    between atoms: C_6  and  O_7
REMARK    5  A    between atoms: C_9  and  O_10
REMARK    6  A    between atoms: C_13  and  C_14
REMARK    7  A    between atoms: C_14  and  C_15
REMARK    8  A    between atoms: C_15  and  C_16
REMARK                            x       y       z     vdW  Elec       q    Type
REMARK                         _______ _______ _______ _____ _____    ______ ____
ROOT
ATOM      1  C   UNL     1       3.983   3.993  18.459  0.00  0.00    +0.000 A 
ATOM      2  C   UNL     1       3.526   2.657  18.486  0.00  0.00    +0.000 A 
ATOM      3  C   UNL     1       2.430   2.279  19.250  0.00  0.00    +0.000 A 
ATOM      4  C   UNL     1       1.761   3.239  20.000  0.00  0.00    +0.000 A 
ATOM      5  C   UNL     1       2.168   4.584  19.964  0.00  0.00    +0.000 A 
ATOM      6 CL   UNL     1       1.272   5.734  20.914  0.00  0.00    +0.000 Cl
ATOM      7  C   UNL     1       3.273   4.990  19.177  0.00  0.00    +0.000 A 
ENDROOT
BRANCH   1   8
ATOM      8  C   UNL     1       5.211   4.249  17.651  0.00  0.00    +0.000 C 
ATOM      9  O   UNL     1       5.196   4.261  16.424  0.00  0.00    +0.000 OA
BRANCH   8  11
ATOM     10  C   UNL     1       7.533   4.651  17.777  0.00  0.00    +0.000 C 
ATOM     11  O   UNL     1       6.308   4.312  18.430  0.00  0.00    +0.000 OA
ENDBRANCH   8  11
ENDBRANCH   1   8
BRANCH   2  12
ATOM     12  O   UNL     1       4.110   1.637  17.774  0.00  0.00    +0.000 OA
ATOM     13  H   UNL     1       4.467   1.993  16.930  0.00  0.00    +0.000 HD
ENDBRANCH   2  12
BRANCH   4  14
ATOM     14  O   UNL     1       0.690   2.869  20.768  0.00  0.00    +0.000 OA
ATOM     15  H   UNL     1      -0.130   2.985  20.260  0.00  0.00    +0.000 HD
ENDBRANCH   4  14
BRANCH   7  16
ATOM     16  C   UNL     1       3.628   6.464  19.086  0.00  0.00    +0.000 C 
BRANCH  16  17
ATOM     17  C   UNL     1       3.168   7.123  17.781  0.00  0.00    +0.000 C 
BRANCH  17  18
ATOM     18  C   UNL     1       2.364   8.376  18.067  0.00  0.00    +0.000 C 
ATOM     19  O   UNL     1       2.306   9.311  17.276  0.00  0.00    +0.000 OA
ATOM     20  N   UNL     1       1.722   8.330  19.289  0.00  0.00    +0.000 N 
ATOM     21  C   UNL     1       0.913   9.375  19.741  0.00  0.00    +0.000 A 
ATOM     22  C   UNL     1       0.002  10.007  18.903  0.00  0.00    +0.000 A 
ATOM     23  C   UNL     1      -0.731  11.080  19.400  0.00  0.00    +0.000 A 
ATOM     24  C   UNL     1      -0.511  11.499  20.705  0.00  0.00    +0.000 A 
ATOM     25  C   UNL     1       0.394  10.787  21.477  0.00  0.00    +0.000 A 
ATOM     26  N   UNL     1       1.081   9.708  21.037  0.00  0.00    +0.000 NA
ATOM     27  H   UNL     1       2.171   7.825  20.040  0.00  0.00    +0.000 HD
ENDBRANCH  17  18
ENDBRANCH  16  17
ENDBRANCH   7  16
TORSDOF 7
ENDMDL
MODEL 2
REMARK VINA RESULT:      -7.3      0.987      1.006
REMARK  Name = 
REMARK  8 active torsions:
REMARK  status: ('A' for Active; 'I' for Inactive)
REMARK    1  A    between atoms: C_1  and  O_2
REMARK    2  A    between atoms: O_2  and  C_3
REMARK    3  A    between atoms: C_3  and  C_5
REMARK    4  A    between atoms: C_6  and  O_7
REMARK    5  A    between atoms: C_9  and  O_10
REMARK    6  A    between atoms: C_13  and  C_14
REMARK    7  A    between atoms: C_14  and  C_15
REMARK    8  A    between atoms: C_15  and  C_16
REMARK                            x       y       z     vdW  Elec       q    Type
REMARK                         _______ _______ _______ _____ _____    ______ ____
ROOT
ATOM      1  C   UNL     1       4.025   3.718  19.039  0.00  0.00    +0.000 A 
ATOM      2  C   UNL     1       4.234   2.644  19.931  0.00  0.00    +0.000 A 
ATOM      3  C   UNL     1       3.349   2.378  20.968  0.00  0.00    +0.000 A 
ATOM      4  C   UNL     1       2.227   3.184  21.128  0.00  0.00    +0.000 A 
ATOM      5  C   UNL     1       1.973   4.238  20.232  0.00  0.00    +0.000 A 
ATOM      6 CL   UNL     1       0.539   5.193  20.483  0.00  0.00    +0.000 Cl
ATOM      7  C   UNL     1       2.855   4.511  19.159  0.00  0.00    +0.000 A 
ENDROOT
BRANCH   1   8
ATOM      8  C   UNL     1       5.087   3.932  18.011  0.00  0.00    +0.000 C 
ATOM      9  O   UNL     1       4.911   3.672  16.825  0.00  0.00    +0.000 OA
BRANCH   8  11
ATOM     10  C   UNL     1       7.244   4.838  17.705  0.00  0.00    +0.000 C 
ATOM     11  O   UNL     1       6.254   4.293  18.580  0.00  0.00    +0.000 OA
ENDBRANCH   8  11
ENDBRANCH   1   8
BRANCH   2  12
ATOM     12  O   UNL     1       5.303   1.784  19.853  0.00  0.00    +0.000 OA
ATOM     13  H   UNL     1       5.038   0.904  20.201  0.00  0.00    +0.000 HD
ENDBRANCH   2  12
BRANCH   4  14
ATOM     14  O   UNL     1       1.362   2.938  22.159  0.00  0.00    +0.000 OA
ATOM     15  H   UNL     1       1.269   1.979  22.282  0.00  0.00    +0.000 HD
ENDBRANCH   4  14
BRANCH   7  16
ATOM     16  C   UNL     1       2.501   5.595  18.155  0.00  0.00    +0.000 C 
BRANCH  16  17
ATOM     17  C   UNL     1       3.375   6.848  18.275  0.00  0.00    +0.000 C 
BRANCH  17  18
ATOM     18  C   UNL     1       2.524   8.101  18.252  0.00  0.00    +0.000 C 
ATOM     19  O   UNL     1       2.500   8.858  17.287  0.00  0.00    +0.000 OA
ATOM     20  N   UNL     1       1.797   8.274  19.413  0.00  0.00    +0.000 N 
ATOM     21  C   UNL     1       0.932   9.356  19.593  0.00  0.00    +0.000 A 
ATOM     22  C   UNL     1       0.069   9.775  18.587  0.00  0.00    +0.000 A 
ATOM     23  C   UNL     1      -0.723  10.897  18.810  0.00  0.00    +0.000 A 
ATOM     24  C   UNL     1      -0.607  11.574  20.016  0.00  0.00    +0.000 A 
ATOM     25  C   UNL     1       0.257  11.064  20.973  0.00  0.00    +0.000 A 
ATOM     26  N   UNL     1       0.999   9.946  20.803  0.00  0.00    +0.000 NA
ATOM     27  H   UNL     1       2.202   7.945  20.278  0.00  0.00    +0.000 HD
ENDBRANCH  17  18
ENDBRANCH  16  17
ENDBRANCH   7  16
TORSDOF 7
ENDMDL
MODEL 3
REMARK VINA RESULT:      -7.2      1.641      1.974
REMARK  Name = 
REMARK  8 active torsions:
REMARK  status: ('A' for Active; 'I' for Inactive)
REMARK    1  A    between atoms: C_1  and  O_2
REMARK    2  A    between atoms: O_2  and  C_3
REMARK    3  A    between atoms: C_3  and  C_5
REMARK    4  A    between atoms: C_6  and  O_7
REMARK    5  A    between atoms: C_9  and  O_10
REMARK    6  A    between atoms: C_13  and  C_14
REMARK    7  A    between atoms: C_14  and  C_15
REMARK    8  A    between atoms: C_15  and  C_16
REMARK                            x       y       z     vdW  Elec       q    Type
REMARK                         _______ _______ _______ _____ _____    ______ ____
ROOT
ATOM      1  C   UNL     1       4.264   4.498  18.414  0.00  0.00    +0.000 A 
ATOM      2  C   UNL     1       4.287   3.344  17.600  0.00  0.00    +0.000 A 
ATOM      3  C   UNL     1       3.259   2.410  17.634  0.00  0.00    +0.000 A 
ATOM      4  C   UNL     1       2.178   2.620  18.483  0.00  0.00    +0.000 A 
ATOM      5  C   UNL     1       2.110   3.779  19.278  0.00  0.00    +0.000 A 
ATOM      6 CL   UNL     1       0.718   3.983  20.303  0.00  0.00    +0.000 Cl
ATOM      7  C   UNL     1       3.140   4.749  19.242  0.00  0.00    +0.000 A 
ENDROOT
BRANCH   1   8
ATOM      8  C   UNL     1       5.463   5.383  18.328  0.00  0.00    +0.000 C 
ATOM      9  O   UNL     1       5.530   6.318  17.536  0.00  0.00    +0.000 OA
BRANCH   8  11
ATOM     10  C   UNL     1       7.612   5.774  19.221  0.00  0.00    +0.000 C 
ATOM     11  O   UNL     1       6.465   4.929  19.106  0.00  0.00    +0.000 OA
ENDBRANCH   8  11
ENDBRANCH   1   8
BRANCH   2  12
ATOM     12  O   UNL     1       5.301   3.050  16.721  0.00  0.00    +0.000 OA
ATOM     13  H   UNL     1       5.113   3.473  15.854  0.00  0.00    +0.000 HD
ENDBRANCH   2  12
BRANCH   4  14
ATOM     14  O   UNL     1       1.171   1.695  18.534  0.00  0.00    +0.000 OA
ATOM     15  H   UNL     1       0.859   1.605  19.449  0.00  0.00    +0.000 HD
ENDBRANCH   4  14
BRANCH   7  16
ATOM     16  C   UNL     1       2.990   6.033  20.040  0.00  0.00    +0.000 C 
BRANCH  16  17
ATOM     17  C   UNL     1       2.475   7.212  19.208  0.00  0.00    +0.000 C 
BRANCH  17  18
ATOM     18  C   UNL     1       1.575   8.103  20.039  0.00  0.00    +0.000 C 
ATOM     19  O   UNL     1       1.243   7.813  21.184  0.00  0.00    +0.000 OA
ATOM     20  N   UNL     1       1.193   9.249  19.370  0.00  0.00    +0.000 N 
ATOM     21  C   UNL     1       0.378  10.217  19.961  0.00  0.00    +0.000 A 
ATOM     22  C   UNL     1       0.580  10.641  21.269  0.00  0.00    +0.000 A 
ATOM     23  C   UNL     1      -0.304  11.564  21.818  0.00  0.00    +0.000 A 
ATOM     24  C   UNL     1      -1.371  12.012  21.051  0.00  0.00    +0.000 A 
ATOM     25  C   UNL     1      -1.474  11.558  19.745  0.00  0.00    +0.000 A 
ATOM     26  N   UNL     1      -0.599  10.702  19.169  0.00  0.00    +0.000 NA
ATOM     27  H   UNL     1       1.078   9.195  18.368  0.00  0.00    +0.000 HD
ENDBRANCH  17  18
ENDBRANCH  16  17
ENDBRANCH   7  16
TORSDOF 7
ENDMDL
MODEL 4
REMARK VINA RESULT:      -7.2      1.810      2.358
REMARK  Name = 
REMARK  8 active torsions:
REMARK  status: ('A' for Active; 'I' for Inactive)
REMARK    1  A    between atoms: C_1  and  O_2
REMARK    2  A    between atoms: O_2  and  C_3
REMARK    3  A    between atoms: C_3  and  C_5
REMARK    4  A    between atoms: C_6  and  O_7
REMARK    5  A    between atoms: C_9  and  O_10
REMARK    6  A    between atoms: C_13  and  C_14
REMARK    7  A    between atoms: C_14  and  C_15
REMARK    8  A    between atoms: C_15  and  C_16
REMARK                            x       y       z     vdW  Elec       q    Type
REMARK                         _______ _______ _______ _____ _____    ______ ____
ROOT
ATOM      1  C   UNL     1       4.314   5.036  17.140  0.00  0.00    +0.000 A 
ATOM      2  C   UNL     1       4.808   3.759  16.794  0.00  0.00    +0.000 A 
ATOM      3  C   UNL     1       4.181   2.597  17.225  0.00  0.00    +0.000 A 
ATOM      4  C   UNL     1       3.035   2.692  18.007  0.00  0.00    +0.000 A 
ATOM      5  C   UNL     1       2.498   3.950  18.335  0.00  0.00    +0.000 A 
ATOM      6 CL   UNL     1       1.052   3.991  19.302  0.00  0.00    +0.000 Cl
ATOM      7  C   UNL     1       3.115   5.144  17.890  0.00  0.00    +0.000 A 
ENDROOT
BRANCH   1   8
ATOM      8  C   UNL     1       5.122   6.200  16.668  0.00  0.00    +0.000 C 
ATOM      9  O   UNL     1       5.146   6.545  15.491  0.00  0.00    +0.000 OA
BRANCH   8  11
ATOM     10  C   UNL     1       7.287   6.824  17.367  0.00  0.00    +0.000 C 
ATOM     11  O   UNL     1       5.894   6.694  17.656  0.00  0.00    +0.000 OA
ENDBRANCH   8  11
ENDBRANCH   1   8
BRANCH   2  12
ATOM     12  O   UNL     1       5.924   3.557  16.019  0.00  0.00    +0.000 OA
ATOM     13  H   UNL     1       5.849   2.690  15.562  0.00  0.00    +0.000 HD
ENDBRANCH   2  12
BRANCH   4  14
ATOM     14  O   UNL     1       2.423   1.550  18.447  0.00  0.00    +0.000 OA
ATOM     15  H   UNL     1       2.085   1.049  17.687  0.00  0.00    +0.000 HD
ENDBRANCH   4  14
BRANCH   7  16
ATOM     16  C   UNL     1       2.457   6.482  18.182  0.00  0.00    +0.000 C 
BRANCH  16  17
ATOM     17  C   UNL     1       2.782   7.031  19.575  0.00  0.00    +0.000 C 
BRANCH  17  18
ATOM     18  C   UNL     1       1.710   7.999  20.034  0.00  0.00    +0.000 C 
ATOM     19  O   UNL     1       1.181   7.914  21.138  0.00  0.00    +0.000 OA
ATOM     20  N   UNL     1       1.418   8.960  19.087  0.00  0.00    +0.000 N 
ATOM     21  C   UNL     1       0.471   9.962  19.314  0.00  0.00    +0.000 A 
ATOM     22  C   UNL     1       0.409  10.647  20.522  0.00  0.00    +0.000 A 
ATOM     23  C   UNL     1      -0.596  11.591  20.704  0.00  0.00    +0.000 A 
ATOM     24  C   UNL     1      -1.516  11.800  19.686  0.00  0.00    +0.000 A 
ATOM     25  C   UNL     1      -1.356  11.094  18.504  0.00  0.00    +0.000 A 
ATOM     26  N   UNL     1      -0.357  10.209  18.280  0.00  0.00    +0.000 NA
ATOM     27  H   UNL     1       1.495   8.702  18.113  0.00  0.00    +0.000 HD
ENDBRANCH  17  18
ENDBRANCH  16  17
ENDBRANCH   7  16
TORSDOF 7
ENDMDL
MODEL 5
REMARK VINA RESULT:      -7.2      1.446      1.720
REMARK  Name = 
REMARK  8 active torsions:
REMARK  status: ('A' for Active; 'I' for Inactive)
REMARK    1  A    between atoms: C_1  and  O_2
REMARK    2  A    between atoms: O_2  and  C_3
REMARK    3  A    between atoms: C_3  and  C_5
REMARK    4  A    between atoms: C_6  and  O_7
REMARK    5  A    between atoms: C_9  and  O_10
REMARK    6  A    between atoms: C_13  and  C_14
REMARK    7  A    between atoms: C_14  and  C_15
REMARK    8  A    between atoms: C_15  and  C_16
REMARK                            x       y       z     vdW  Elec       q    Type
REMARK                         _______ _______ _______ _____ _____    ______ ____
ROOT
ATOM      1  C   UNL     1       3.986   3.698  19.030  0.00  0.00    +0.000 A 
ATOM      2  C   UNL     1       4.226   2.627  19.919  0.00  0.00    +0.000 A 
ATOM      3  C   UNL     1       3.340   2.322  20.945  0.00  0.00    +0.000 A 
ATOM      4  C   UNL     1       2.186   3.083  21.095  0.00  0.00    +0.000 A 
ATOM      5  C   UNL     1       1.902   4.132  20.202  0.00  0.00    +0.000 A 
ATOM      6 CL   UNL     1       0.430   5.029  20.440  0.00  0.00    +0.000 Cl
ATOM      7  C   UNL     1       2.786   4.445  19.141  0.00  0.00    +0.000 A 
ENDROOT
BRANCH   1   8
ATOM      8  C   UNL     1       5.052   3.958  18.018  0.00  0.00    +0.000 C 
ATOM      9  O   UNL     1       4.910   3.677  16.832  0.00  0.00    +0.000 OA
BRANCH   8  11
ATOM     10  C   UNL     1       7.298   4.621  17.731  0.00  0.00    +0.000 C 
ATOM     11  O   UNL     1       6.188   4.389  18.600  0.00  0.00    +0.000 OA
ENDBRANCH   8  11
ENDBRANCH   1   8
BRANCH   2  12
ATOM     12  O   UNL     1       5.328   1.809  19.850  0.00  0.00    +0.000 OA
ATOM     13  H   UNL     1       6.142   2.360  19.858  0.00  0.00    +0.000 HD
ENDBRANCH   2  12
BRANCH   4  14
ATOM     14  O   UNL     1       1.318   2.797  22.113  0.00  0.00    +0.000 OA
ATOM     15  H   UNL     1       1.201   3.584  22.671  0.00  0.00    +0.000 HD
ENDBRANCH   4  14
BRANCH   7  16
ATOM     16  C   UNL     1       2.403   5.520  18.138  0.00  0.00    +0.000 C 
BRANCH  16  17
ATOM     17  C   UNL     1       3.114   6.857  18.375  0.00  0.00    +0.000 C 
BRANCH  17  18
ATOM     18  C   UNL     1       2.177   7.856  19.023  0.00  0.00    +0.000 C 
ATOM     19  O   UNL     1       1.993   7.890  20.235  0.00  0.00    +0.000 OA
ATOM     20  N   UNL     1       1.580   8.699  18.106  0.00  0.00    +0.000 N 
ATOM     21  C   UNL     1       0.694   9.708  18.493  0.00  0.00    +0.000 A 
ATOM     22  C   UNL     1       0.952  10.525  19.587  0.00  0.00    +0.000 A 
ATOM     23  C   UNL     1      -0.000  11.470  19.954  0.00  0.00    +0.000 A 
ATOM     24  C   UNL     1      -1.184  11.549  19.233  0.00  0.00    +0.000 A 
ATOM     25  C   UNL     1      -1.339  10.715  18.137  0.00  0.00    +0.000 A 
ATOM     26  N   UNL     1      -0.408   9.824  17.726  0.00  0.00    +0.000 NA
ATOM     27  H   UNL     1       1.384   8.333  17.185  0.00  0.00    +0.000 HD
ENDBRANCH  17  18
ENDBRANCH  16  17
ENDBRANCH   7  16
TORSDOF 7
ENDMDL
MODEL 6
REMARK VINA RESULT:      -7.1      1.135      1.312
REMARK  Name = 
REMARK  8 active torsions:
REMARK  status: ('A' for Active; 'I' for Inactive)
REMARK    1  A    between atoms: C_1  and  O_2
REMARK    2  A    between atoms: O_2  and  C_3
REMARK    3  A    between atoms: C_3  and  C_5
REMARK    4  A    between atoms: C_6  and  O_7
REMARK    5  A    between atoms: C_9  and  O_10
REMARK    6  A    between atoms: C_13  and  C_14
REMARK    7  A    between atoms: C_14  and  C_15
REMARK    8  A    between atoms: C_15  and  C_16
REMARK                            x       y       z     vdW  Elec       q    Type
REMARK                         _______ _______ _______ _____ _____    ______ ____
ROOT
ATOM      1  C   UNL     1       4.351   4.798  17.736  0.00  0.00    +0.000 A 
ATOM      2  C   UNL     1       4.503   3.480  17.253  0.00  0.00    +0.000 A 
ATOM      3  C   UNL     1       3.625   2.467  17.617  0.00  0.00    +0.000 A 
ATOM      4  C   UNL     1       2.567   2.759  18.471  0.00  0.00    +0.000 A 
ATOM      5  C   UNL     1       2.368   4.070  18.938  0.00  0.00    +0.000 A 
ATOM      6 CL   UNL     1       1.012   4.364  19.989  0.00  0.00    +0.000 Cl
ATOM      7  C   UNL     1       3.243   5.118  18.563  0.00  0.00    +0.000 A 
ENDROOT
BRANCH   1   8
ATOM      8  C   UNL     1       5.402   5.773  17.320  0.00  0.00    +0.000 C 
ATOM      9  O   UNL     1       5.506   6.169  16.163  0.00  0.00    +0.000 OA
BRANCH   8  11
ATOM     10  C   UNL     1       7.548   5.400  18.228  0.00  0.00    +0.000 C 
ATOM     11  O   UNL     1       6.265   6.023  18.324  0.00  0.00    +0.000 OA
ENDBRANCH   8  11
ENDBRANCH   1   8
BRANCH   2  12
ATOM     12  O   UNL     1       5.506   3.091  16.398  0.00  0.00    +0.000 OA
ATOM     13  H   UNL     1       6.120   2.488  16.872  0.00  0.00    +0.000 HD
ENDBRANCH   2  12
BRANCH   4  14
ATOM     14  O   UNL     1       1.709   1.761  18.847  0.00  0.00    +0.000 OA
ATOM     15  H   UNL     1       0.821   2.130  18.983  0.00  0.00    +0.000 HD
ENDBRANCH   4  14
BRANCH   7  16
ATOM     16  C   UNL     1       2.945   6.540  19.008  0.00  0.00    +0.000 C 
BRANCH  16  17
ATOM     17  C   UNL     1       2.878   7.540  17.849  0.00  0.00    +0.000 C 
BRANCH  17  18
ATOM     18  C   UNL     1       2.037   8.743  18.226  0.00  0.00    +0.000 C 
ATOM     19  O   UNL     1       1.910   9.712  17.484  0.00  0.00    +0.000 OA
ATOM     20  N   UNL     1       1.445   8.612  19.467  0.00  0.00    +0.000 N 
ATOM     21  C   UNL     1       0.613   9.599  20.000  0.00  0.00    +0.000 A 
ATOM     22  C   UNL     1      -0.355  10.231  19.228  0.00  0.00    +0.000 A 
ATOM     23  C   UNL     1      -1.110  11.248  19.804  0.00  0.00    +0.000 A 
ATOM     24  C   UNL     1      -0.856  11.613  21.119  0.00  0.00    +0.000 A 
ATOM     25  C   UNL     1       0.106  10.904  21.821  0.00  0.00    +0.000 A 
ATOM     26  N   UNL     1       0.818   9.877  21.303  0.00  0.00    +0.000 NA
ATOM     27  H   UNL     1       1.943   8.091  20.175  0.00  0.00    +0.000 HD
ENDBRANCH  17  18
ENDBRANCH  16  17
ENDBRANCH   7  16
TORSDOF 7
ENDMDL
MODEL 7
REMARK VINA RESULT:      -7.1      1.643      2.016
REMARK  Name = 
REMARK  8 active torsions:
REMARK  status: ('A' for Active; 'I' for Inactive)
REMARK    1  A    between atoms: C_1  and  O_2
REMARK    2  A    between atoms: O_2  and  C_3
REMARK    3  A    between atoms: C_3  and  C_5
REMARK    4  A    between atoms: C_6  and  O_7
REMARK    5  A    between atoms: C_9  and  O_10
REMARK    6  A    between atoms: C_13  and  C_14
REMARK    7  A    between atoms: C_14  and  C_15
REMARK    8  A    between atoms: C_15  and  C_16
REMARK                            x       y       z     vdW  Elec       q    Type
REMARK                         _______ _______ _______ _____ _____    ______ ____
ROOT
ATOM      1  C   UNL     1       4.263   4.794  18.010  0.00  0.00    +0.000 A 
ATOM      2  C   UNL     1       4.381   3.552  17.350  0.00  0.00    +0.000 A 
ATOM      3  C   UNL     1       3.464   2.529  17.556  0.00  0.00    +0.000 A 
ATOM      4  C   UNL     1       2.400   2.736  18.425  0.00  0.00    +0.000 A 
ATOM      5  C   UNL     1       2.234   3.976  19.068  0.00  0.00    +0.000 A 
ATOM      6 CL   UNL     1       0.867   4.169  20.128  0.00  0.00    +0.000 Cl
ATOM      7  C   UNL     1       3.150   5.035  18.855  0.00  0.00    +0.000 A 
ENDROOT
BRANCH   1   8
ATOM      8  C   UNL     1       5.353   5.780  17.750  0.00  0.00    +0.000 C 
ATOM      9  O   UNL     1       5.438   6.399  16.693  0.00  0.00    +0.000 OA
BRANCH   8  11
ATOM     10  C   UNL     1       7.570   5.302  18.402  0.00  0.00    +0.000 C 
ATOM     11  O   UNL     1       6.266   5.776  18.741  0.00  0.00    +0.000 OA
ENDBRANCH   8  11
ENDBRANCH   1   8
BRANCH   2  12
ATOM     12  O   UNL     1       5.388   3.251  16.465  0.00  0.00    +0.000 OA
ATOM     13  H   UNL     1       5.008   3.139  15.565  0.00  0.00    +0.000 HD
ENDBRANCH   2  12
BRANCH   4  14
ATOM     14  O   UNL     1       1.503   1.726  18.645  0.00  0.00    +0.000 OA
ATOM     15  H   UNL     1       1.742   0.956  18.104  0.00  0.00    +0.000 HD
ENDBRANCH   4  14
BRANCH   7  16
ATOM     16  C   UNL     1       2.889   6.390  19.490  0.00  0.00    +0.000 C 
BRANCH  16  17
ATOM     17  C   UNL     1       2.509   7.475  18.476  0.00  0.00    +0.000 C 
BRANCH  17  18
ATOM     18  C   UNL     1       1.582   8.496  19.104  0.00  0.00    +0.000 C 
ATOM     19  O   UNL     1       1.453   8.602  20.320  0.00  0.00    +0.000 OA
ATOM     20  N   UNL     1       0.927   9.270  18.167  0.00  0.00    +0.000 N 
ATOM     21  C   UNL     1       0.039  10.285  18.532  0.00  0.00    +0.000 A 
ATOM     22  C   UNL     1       0.330  11.173  19.561  0.00  0.00    +0.000 A 
ATOM     23  C   UNL     1      -0.624  12.122  19.915  0.00  0.00    +0.000 A 
ATOM     24  C   UNL     1      -1.841  12.135  19.246  0.00  0.00    +0.000 A 
ATOM     25  C   UNL     1      -2.028  11.232  18.212  0.00  0.00    +0.000 A 
ATOM     26  N   UNL     1      -1.099  10.334  17.812  0.00  0.00    +0.000 NA
ATOM     27  H   UNL     1       0.697   8.844  17.280  0.00  0.00    +0.000 HD
ENDBRANCH  17  18
ENDBRANCH  16  17
ENDBRANCH   7  16
TORSDOF 7
ENDMDL
MODEL 8
REMARK VINA RESULT:      -7.0      1.392      1.807
REMARK  Name = 
REMARK  8 active torsions:
REMARK  status: ('A' for Active; 'I' for Inactive)
REMARK    1  A    between atoms: C_1  and  O_2
REMARK    2  A    between atoms: O_2  and  C_3
REMARK    3  A    between atoms: C_3  and  C_5
REMARK    4  A    between atoms: C_6  and  O_7
REMARK    5  A    between atoms: C_9  and  O_10
REMARK    6  A    between atoms: C_13  and  C_14
REMARK    7  A    between atoms: C_14  and  C_15
REMARK    8  A    between atoms: C_15  and  C_16
REMARK                            x       y       z     vdW  Elec       q    Type
REMARK                         _______ _______ _______ _____ _____    ______ ____
ROOT
ATOM      1  C   UNL     1       4.776   5.442  17.116  0.00  0.00    +0.000 A 
ATOM      2  C   UNL     1       4.878   4.041  16.973  0.00  0.00    +0.000 A 
ATOM      3  C   UNL     1       4.188   3.174  17.810  0.00  0.00    +0.000 A 
ATOM      4  C   UNL     1       3.372   3.696  18.807  0.00  0.00    +0.000 A 
ATOM      5  C   UNL     1       3.221   5.088  18.949  0.00  0.00    +0.000 A 
ATOM      6 CL   UNL     1       2.168   5.669  20.206  0.00  0.00    +0.000 Cl
ATOM      7  C   UNL     1       3.903   5.985  18.093  0.00  0.00    +0.000 A 
ENDROOT
BRANCH   1   8
ATOM      8  C   UNL     1       5.623   6.257  16.195  0.00  0.00    +0.000 C 
ATOM      9  O   UNL     1       5.155   6.847  15.227  0.00  0.00    +0.000 OA
BRANCH   8  11
ATOM     10  C   UNL     1       7.379   6.768  17.685  0.00  0.00    +0.000 C 
ATOM     11  O   UNL     1       6.932   6.129  16.488  0.00  0.00    +0.000 OA
ENDBRANCH   8  11
ENDBRANCH   1   8
BRANCH   2  12
ATOM     12  O   UNL     1       5.647   3.426  16.016  0.00  0.00    +0.000 OA
ATOM     13  H   UNL     1       5.152   2.663  15.642  0.00  0.00    +0.000 HD
ENDBRANCH   2  12
BRANCH   4  14
ATOM     14  O   UNL     1       2.703   2.846  19.645  0.00  0.00    +0.000 OA
ATOM     15  H   UNL     1       3.018   2.973  20.555  0.00  0.00    +0.000 HD
ENDBRANCH   4  14
BRANCH   7  16
ATOM     16  C   UNL     1       3.645   7.478  18.212  0.00  0.00    +0.000 C 
BRANCH  16  17
ATOM     17  C   UNL     1       2.390   7.941  17.463  0.00  0.00    +0.000 C 
BRANCH  17  18
ATOM     18  C   UNL     1       1.822   9.197  18.094  0.00  0.00    +0.000 C 
ATOM     19  O   UNL     1       2.059  10.316  17.651  0.00  0.00    +0.000 OA
ATOM     20  N   UNL     1       1.026   8.930  19.190  0.00  0.00    +0.000 N 
ATOM     21  C   UNL     1       0.388   9.944  19.908  0.00  0.00    +0.000 A 
ATOM     22  C   UNL     1      -0.257  10.996  19.269  0.00  0.00    +0.000 A 
ATOM     23  C   UNL     1      -0.820  12.004  20.043  0.00  0.00    +0.000 A 
ATOM     24  C   UNL     1      -0.698  11.941  21.425  0.00  0.00    +0.000 A 
ATOM     25  C   UNL     1      -0.066  10.837  21.975  0.00  0.00    +0.000 A 
ATOM     26  N   UNL     1       0.444   9.816  21.249  0.00  0.00    +0.000 NA
ATOM     27  H   UNL     1       1.260   8.129  19.760  0.00  0.00    +0.000 HD
ENDBRANCH  17  18
ENDBRANCH  16  17
ENDBRANCH   7  16
TORSDOF 7
ENDMDL
MODEL 9
REMARK VINA RESULT:      -6.9      3.732      6.864
REMARK  Name = 
REMARK  8 active torsions:
REMARK  status: ('A' for Active; 'I' for Inactive)
REMARK    1  A    between atoms: C_1  and  O_2
REMARK    2  A    between atoms: O_2  and  C_3
REMARK    3  A    between atoms: C_3  and  C_5
REMARK    4  A    between atoms: C_6  and  O_7
REMARK    5  A    between atoms: C_9  and  O_10
REMARK    6  A    between atoms: C_13  and  C_14
REMARK    7  A    between atoms: C_14  and  C_15
REMARK    8  A    between atoms: C_15  and  C_16
REMARK                            x       y       z     vdW  Elec       q    Type
REMARK                         _______ _______ _______ _____ _____    ______ ____
ROOT
ATOM      1  C   UNL     1       3.158   3.805  19.826  0.00  0.00    +0.000 A 
ATOM      2  C   UNL     1       2.434   3.905  21.033  0.00  0.00    +0.000 A 
ATOM      3  C   UNL     1       1.830   5.094  21.422  0.00  0.00    +0.000 A 
ATOM      4  C   UNL     1       1.933   6.210  20.598  0.00  0.00    +0.000 A 
ATOM      5  C   UNL     1       2.616   6.130  19.371  0.00  0.00    +0.000 A 
ATOM      6 CL   UNL     1       2.689   7.561  18.384  0.00  0.00    +0.000 Cl
ATOM      7  C   UNL     1       3.223   4.921  18.953  0.00  0.00    +0.000 A 
ENDROOT
BRANCH   1   8
ATOM      8  C   UNL     1       3.813   2.489  19.563  0.00  0.00    +0.000 C 
ATOM      9  O   UNL     1       4.823   2.131  20.160  0.00  0.00    +0.000 OA
BRANCH   8  11
ATOM     10  C   UNL     1       1.816   1.764  18.536  0.00  0.00    +0.000 C 
ATOM     11  O   UNL     1       3.242   1.856  18.520  0.00  0.00    +0.000 OA
ENDBRANCH   8  11
ENDBRANCH   1   8
BRANCH   2  12
ATOM     12  O   UNL     1       2.263   2.861  21.910  0.00  0.00    +0.000 OA
ATOM     13  H   UNL     1       1.506   2.309  21.614  0.00  0.00    +0.000 HD
ENDBRANCH   2  12
BRANCH   4  14
ATOM     14  O   UNL     1       1.355   7.388  20.984  0.00  0.00    +0.000 OA
ATOM     15  H   UNL     1       0.649   7.623  20.359  0.00  0.00    +0.000 HD
ENDBRANCH   4  14
BRANCH   7  16
ATOM     16  C   UNL     1       3.869   4.842  17.580  0.00  0.00    +0.000 C 
BRANCH  16  17
ATOM     17  C   UNL     1       5.300   5.392  17.547  0.00  0.00    +0.000 C 
BRANCH  17  18
ATOM     18  C   UNL     1       5.763   5.595  16.119  0.00  0.00    +0.000 C 
ATOM     19  O   UNL     1       5.848   6.708  15.610  0.00  0.00    +0.000 OA
ATOM     20  N   UNL     1       6.074   4.408  15.485  0.00  0.00    +0.000 N 
ATOM     21  C   UNL     1       6.539   4.370  14.168  0.00  0.00    +0.000 A 
ATOM     22  C   UNL     1       7.502   5.261  13.709  0.00  0.00    +0.000 A 
ATOM     23  C   UNL     1       7.878   5.208  12.371  0.00  0.00    +0.000 A 
ATOM     24  C   UNL     1       7.263   4.286  11.535  0.00  0.00    +0.000 A 
ATOM     25  C   UNL     1       6.338   3.416  12.089  0.00  0.00    +0.000 A 
ATOM     26  N   UNL     1       5.992   3.410  13.397  0.00  0.00    +0.000 NA
ATOM     27  H   UNL     1       5.550   3.584  15.742  0.00  0.00    +0.000 HD
ENDBRANCH  17  18
ENDBRANCH  16  17
ENDBRANCH   7  16
TORSDOF 7
ENDMDL
