MODEL 1
REMARK VINA RESULT:      -8.2      0.000      0.000
REMARK  Name = 
REMARK  12 active torsions:
REMARK  status: ('A' for Active; 'I' for Inactive)
REMARK    1  A    between atoms: C_1  and  O_2
REMARK    2  A    between atoms: O_2  and  C_3
REMARK    3  A    between atoms: C_3  and  C_5
REMARK    4  A    between atoms: N_12  and  C_13
REMARK    5  A    between atoms: C_13  and  C_14
REMARK    6  A    between atoms: C_21  and  C_22
REMARK    7  A    between atoms: C_22  and  C_23
REMARK    8  A    between atoms: N_25  and  C_26
REMARK    9  A    between atoms: C_26  and  C_27
REMARK   10  A    between atoms: C_27  and  C_28
REMARK   11  A    between atoms: C_28  and  C_29
REMARK   12  A    between atoms: C_28  and  C_30
REMARK                            x       y       z     vdW  Elec       q    Type
REMARK                         _______ _______ _______ _____ _____    ______ ____
ROOT
ATOM      1  C   UNL     1       6.110   5.163  18.244  0.00  0.00    +0.000 C 
ATOM      2  C   UNL     1       6.881   4.254  17.090  0.00  0.00    +0.000 C 
ATOM      3  C   UNL     1       6.298   3.672  15.678  0.00  0.00    +0.000 C 
ATOM      4  C   UNL     1       5.309   4.463  14.721  0.00  0.00    +0.000 C 
ATOM      5  C   UNL     1       5.206   5.978  14.899  0.00  0.00    +0.000 C 
ATOM      6  C   UNL     1       5.263   6.305  16.342  0.00  0.00    +0.000 C 
ATOM      7  C   UNL     1       5.072   5.318  17.242  0.00  0.00    +0.000 C 
ATOM      8  N   UNL     1       3.922   4.398  17.279  0.00  0.00    +0.000 N 
ATOM      9  C   UNL     1       2.859   5.158  17.782  0.00  0.00    +0.000 C 
ATOM     10  O   UNL     1       1.692   5.063  17.436  0.00  0.00    +0.000 OA
ATOM     11  C   UNL     1       3.415   6.082  18.880  0.00  0.00    +0.000 C 
ATOM     12  C   UNL     1       4.969   5.576  19.320  0.00  0.00    +0.000 C 
ENDROOT
BRANCH   1  13
ATOM     13  C   UNL     1       7.374   5.819  18.863  0.00  0.00    +0.000 C 
ATOM     14  O   UNL     1       7.684   5.686  20.052  0.00  0.00    +0.000 OA
BRANCH  13  16
ATOM     15  C   UNL     1       7.924   7.957  18.004  0.00  0.00    +0.000 C 
ATOM     16  O   UNL     1       8.125   6.534  17.972  0.00  0.00    +0.000 OA
ENDBRANCH  13  16
ENDBRANCH   1  13
BRANCH   8  17
ATOM     17  C   UNL     1       3.913   3.119  18.100  0.00  0.00    +0.000 C 
BRANCH  17  18
ATOM     18  C   UNL     1       2.647   2.743  18.835  0.00  0.00    +0.000 A 
ATOM     19  C   UNL     1       1.383   2.286  18.507  0.00  0.00    +0.000 A 
ATOM     20  C   UNL     1       0.605   2.294  19.704  0.00  0.00    +0.000 A 
ATOM     21  C   UNL     1       1.428   2.780  20.689  0.00  0.00    +0.000 A 
ATOM     22  O   UNL     1       2.660   3.047  20.182  0.00  0.00    +0.000 OA
ENDBRANCH  17  18
ENDBRANCH   8  17
BRANCH  11  23
ATOM     23  C   UNL     1       3.138   7.492  18.323  0.00  0.00    +0.000 C 
BRANCH  23  24
ATOM     24  C   UNL     1       2.014   8.286  18.964  0.00  0.00    +0.000 C 
ATOM     25  O   UNL     1       1.661   8.107  20.112  0.00  0.00    +0.000 OA
ATOM     26  N   UNL     1       1.467   9.207  18.108  0.00  0.00    +0.000 N 
ATOM     27  H   UNL     1       1.801   9.280  17.164  0.00  0.00    +0.000 HD
BRANCH  26  28
ATOM     28  C   UNL     1       0.331  10.038  18.489  0.00  0.00    +0.000 C 
BRANCH  28  29
ATOM     29  C   UNL     1      -0.921   9.762  17.654  0.00  0.00    +0.000 C 
BRANCH  29  30
ATOM     30  C   UNL     1      -2.045  10.815  17.747  0.00  0.00    +0.000 C 
ATOM     31  C   UNL     1      -3.446  10.214  17.614  0.00  0.00    +0.000 C 
ATOM     32  C   UNL     1      -1.940  11.557  19.084  0.00  0.00    +0.000 C 
ENDBRANCH  29  30
ENDBRANCH  28  29
ENDBRANCH  26  28
ENDBRANCH  23  24
ENDBRANCH  11  23
TORSDOF 9
ENDMDL
MODEL 2
REMARK VINA RESULT:      -8.1      1.477      1.858
REMARK  Name = 
REMARK  12 active torsions:
REMARK  status: ('A' for Active; 'I' for Inactive)
REMARK    1  A    between atoms: C_1  and  O_2
REMARK    2  A    between atoms: O_2  and  C_3
REMARK    3  A    between atoms: C_3  and  C_5
REMARK    4  A    between atoms: N_12  and  C_13
REMARK    5  A    between atoms: C_13  and  C_14
REMARK    6  A    between atoms: C_21  and  C_22
REMARK    7  A    between atoms: C_22  and  C_23
REMARK    8  A    between atoms: N_25  and  C_26
REMARK    9  A    between atoms: C_26  and  C_27
REMARK   10  A    between atoms: C_27  and  C_28
REMARK   11  A    between atoms: C_28  and  C_29
REMARK   12  A    between atoms: C_28  and  C_30
REMARK                            x       y       z     vdW  Elec       q    Type
REMARK                         _______ _______ _______ _____ _____    ______ ____
ROOT
ATOM      1  C   UNL     1       6.249   5.191  18.081  0.00  0.00    +0.000 C 
ATOM      2  C   UNL     1       6.938   4.325  16.845  0.00  0.00    +0.000 C 
ATOM      3  C   UNL     1       6.250   3.767  15.471  0.00  0.00    +0.000 C 
ATOM      4  C   UNL     1       5.172   4.562  14.620  0.00  0.00    +0.000 C 
ATOM      5  C   UNL     1       5.057   6.069  14.845  0.00  0.00    +0.000 C 
ATOM      6  C   UNL     1       5.228   6.362  16.287  0.00  0.00    +0.000 C 
ATOM      7  C   UNL     1       5.129   5.350  17.173  0.00  0.00    +0.000 C 
ATOM      8  N   UNL     1       4.002   4.407  17.281  0.00  0.00    +0.000 N 
ATOM      9  C   UNL     1       2.972   5.133  17.889  0.00  0.00    +0.000 C 
ATOM     10  O   UNL     1       1.782   5.025  17.639  0.00  0.00    +0.000 OA
ATOM     11  C   UNL     1       3.601   6.041  18.961  0.00  0.00    +0.000 C 
ATOM     12  C   UNL     1       5.195   5.555  19.258  0.00  0.00    +0.000 C 
ENDROOT
BRANCH   1  13
ATOM     13  C   UNL     1       7.549   5.856  18.611  0.00  0.00    +0.000 C 
ATOM     14  O   UNL     1       8.017   5.614  19.729  0.00  0.00    +0.000 OA
BRANCH  13  16
ATOM     15  C   UNL     1       7.983   8.109  18.021  0.00  0.00    +0.000 C 
ATOM     16  O   UNL     1       8.139   6.712  17.723  0.00  0.00    +0.000 OA
ENDBRANCH  13  16
ENDBRANCH   1  13
BRANCH   8  17
ATOM     17  C   UNL     1       4.084   3.108  18.066  0.00  0.00    +0.000 C 
BRANCH  17  18
ATOM     18  C   UNL     1       2.867   2.656  18.840  0.00  0.00    +0.000 A 
ATOM     19  C   UNL     1       1.613   2.151  18.550  0.00  0.00    +0.000 A 
ATOM     20  C   UNL     1       0.885   2.093  19.776  0.00  0.00    +0.000 A 
ATOM     21  C   UNL     1       1.725   2.590  20.741  0.00  0.00    +0.000 A 
ATOM     22  O   UNL     1       2.921   2.926  20.193  0.00  0.00    +0.000 OA
ENDBRANCH  17  18
ENDBRANCH   8  17
BRANCH  11  23
ATOM     23  C   UNL     1       3.254   7.459  18.466  0.00  0.00    +0.000 C 
BRANCH  23  24
ATOM     24  C   UNL     1       2.024   8.122  19.058  0.00  0.00    +0.000 C 
ATOM     25  O   UNL     1       1.372   8.949  18.453  0.00  0.00    +0.000 OA
ATOM     26  N   UNL     1       1.747   7.678  20.326  0.00  0.00    +0.000 N 
ATOM     27  H   UNL     1       2.348   7.006  20.768  0.00  0.00    +0.000 HD
BRANCH  26  28
ATOM     28  C   UNL     1       0.649   8.223  21.114  0.00  0.00    +0.000 C 
BRANCH  28  29
ATOM     29  C   UNL     1       1.079   9.368  22.034  0.00  0.00    +0.000 C 
BRANCH  29  30
ATOM     30  C   UNL     1       0.151  10.599  22.068  0.00  0.00    +0.000 C 
ATOM     31  C   UNL     1      -0.550  10.862  20.734  0.00  0.00    +0.000 C 
ATOM     32  C   UNL     1      -0.906  10.411  23.163  0.00  0.00    +0.000 C 
ENDBRANCH  29  30
ENDBRANCH  28  29
ENDBRANCH  26  28
ENDBRANCH  23  24
ENDBRANCH  11  23
TORSDOF 9
ENDMDL
MODEL 3
REMARK VINA RESULT:      -7.9      1.050      1.378
REMARK  Name = 
REMARK  12 active torsions:
REMARK  status: ('A' for Active; 'I' for Inactive)
REMARK    1  A    between atoms: C_1  and  O_2
REMARK    2  A    between atoms: O_2  and  C_3
REMARK    3  A    between atoms: C_3  and  C_5
REMARK    4  A    between atoms: N_12  and  C_13
REMARK    5  A    between atoms: C_13  and  C_14
REMARK    6  A    between atoms: C_21  and  C_22
REMARK    7  A    between atoms: C_22  and  C_23
REMARK    8  A    between atoms: N_25  and  C_26
REMARK    9  A    between atoms: C_26  and  C_27
REMARK   10  A    between atoms: C_27  and  C_28
REMARK   11  A    between atoms: C_28  and  C_29
REMARK   12  A    between atoms: C_28  and  C_30
REMARK                            x       y       z     vdW  Elec       q    Type
REMARK                         _______ _______ _______ _____ _____    ______ ____
ROOT
ATOM      1  C   UNL     1       6.116   5.124  18.256  0.00  0.00    +0.000 C 
ATOM      2  C   UNL     1       6.903   4.296  17.053  0.00  0.00    +0.000 C 
ATOM      3  C   UNL     1       6.327   3.774  15.615  0.00  0.00    +0.000 C 
ATOM      4  C   UNL     1       5.314   4.590  14.706  0.00  0.00    +0.000 C 
ATOM      5  C   UNL     1       5.174   6.090  14.963  0.00  0.00    +0.000 C 
ATOM      6  C   UNL     1       5.231   6.342  16.421  0.00  0.00    +0.000 C 
ATOM      7  C   UNL     1       5.069   5.305  17.269  0.00  0.00    +0.000 C 
ATOM      8  N   UNL     1       3.942   4.355  17.262  0.00  0.00    +0.000 N 
ATOM      9  C   UNL     1       2.864   5.061  17.809  0.00  0.00    +0.000 C 
ATOM     10  O   UNL     1       1.697   4.955  17.464  0.00  0.00    +0.000 OA
ATOM     11  C   UNL     1       3.403   5.940  18.951  0.00  0.00    +0.000 C 
ATOM     12  C   UNL     1       4.971   5.451  19.357  0.00  0.00    +0.000 C 
ENDROOT
BRANCH   1  13
ATOM     13  C   UNL     1       7.367   5.778  18.904  0.00  0.00    +0.000 C 
ATOM     14  O   UNL     1       7.644   5.653  20.102  0.00  0.00    +0.000 OA
BRANCH  13  16
ATOM     15  C   UNL     1       7.936   7.904  18.028  0.00  0.00    +0.000 C 
ATOM     16  O   UNL     1       8.145   6.482  18.027  0.00  0.00    +0.000 OA
ENDBRANCH  13  16
ENDBRANCH   1  13
BRANCH   8  17
ATOM     17  C   UNL     1       3.971   3.035  18.015  0.00  0.00    +0.000 C 
BRANCH  17  18
ATOM     18  C   UNL     1       2.749   2.633  18.809  0.00  0.00    +0.000 A 
ATOM     19  C   UNL     1       1.459   2.211  18.541  0.00  0.00    +0.000 A 
ATOM     20  C   UNL     1       0.762   2.160  19.785  0.00  0.00    +0.000 A 
ATOM     21  C   UNL     1       1.655   2.578  20.739  0.00  0.00    +0.000 A 
ATOM     22  O   UNL     1       2.855   2.859  20.168  0.00  0.00    +0.000 OA
ENDBRANCH  17  18
ENDBRANCH   8  17
BRANCH  11  23
ATOM     23  C   UNL     1       3.087   7.370  18.471  0.00  0.00    +0.000 C 
BRANCH  23  24
ATOM     24  C   UNL     1       2.014   8.137  19.222  0.00  0.00    +0.000 C 
ATOM     25  O   UNL     1       1.673   7.847  20.351  0.00  0.00    +0.000 OA
ATOM     26  N   UNL     1       1.497   9.173  18.487  0.00  0.00    +0.000 N 
ATOM     27  H   UNL     1       1.817   9.336  17.550  0.00  0.00    +0.000 HD
BRANCH  26  28
ATOM     28  C   UNL     1       0.409  10.006  18.984  0.00  0.00    +0.000 C 
BRANCH  28  29
ATOM     29  C   UNL     1       0.897  11.261  19.711  0.00  0.00    +0.000 C 
BRANCH  29  30
ATOM     30  C   UNL     1       0.145  11.633  21.006  0.00  0.00    +0.000 C 
ATOM     31  C   UNL     1      -1.067  12.534  20.760  0.00  0.00    +0.000 C 
ATOM     32  C   UNL     1      -0.314  10.353  21.714  0.00  0.00    +0.000 C 
ENDBRANCH  29  30
ENDBRANCH  28  29
ENDBRANCH  26  28
ENDBRANCH  23  24
ENDBRANCH  11  23
TORSDOF 9
ENDMDL
MODEL 4
REMARK VINA RESULT:      -7.8      2.621      6.948
REMARK  Name = 
REMARK  12 active torsions:
REMARK  status: ('A' for Active; 'I' for Inactive)
REMARK    1  A    between atoms: C_1  and  O_2
REMARK    2  A    between atoms: O_2  and  C_3
REMARK    3  A    between atoms: C_3  and  C_5
REMARK    4  A    between atoms: N_12  and  C_13
REMARK    5  A    between atoms: C_13  and  C_14
REMARK    6  A    between atoms: C_21  and  C_22
REMARK    7  A    between atoms: C_22  and  C_23
REMARK    8  A    between atoms: N_25  and  C_26
REMARK    9  A    between atoms: C_26  and  C_27
REMARK   10  A    between atoms: C_27  and  C_28
REMARK   11  A    between atoms: C_28  and  C_29
REMARK   12  A    between atoms: C_28  and  C_30
REMARK                            x       y       z     vdW  Elec       q    Type
REMARK                         _______ _______ _______ _____ _____    ______ ____
ROOT
ATOM      1  C   UNL     1       4.019   2.951  19.829  0.00  0.00    +0.000 C 
ATOM      2  C   UNL     1       2.591   2.575  20.586  0.00  0.00    +0.000 C 
ATOM      3  C   UNL     1       1.077   3.088  20.242  0.00  0.00    +0.000 C 
ATOM      4  C   UNL     1       0.511   3.291  18.773  0.00  0.00    +0.000 C 
ATOM      5  C   UNL     1       1.247   2.603  17.624  0.00  0.00    +0.000 C 
ATOM      6  C   UNL     1       2.706   2.665  17.873  0.00  0.00    +0.000 C 
ATOM      7  C   UNL     1       3.173   3.525  18.801  0.00  0.00    +0.000 C 
ATOM      8  N   UNL     1       2.887   4.970  18.856  0.00  0.00    +0.000 N 
ATOM      9  C   UNL     1       3.662   5.537  17.838  0.00  0.00    +0.000 C 
ATOM     10  O   UNL     1       3.333   6.480  17.135  0.00  0.00    +0.000 OA
ATOM     11  C   UNL     1       5.014   4.802  17.807  0.00  0.00    +0.000 C 
ATOM     12  C   UNL     1       5.196   3.880  19.214  0.00  0.00    +0.000 C 
ENDROOT
BRANCH   1  13
ATOM     13  C   UNL     1       4.810   1.682  20.250  0.00  0.00    +0.000 C 
ATOM     14  O   UNL     1       4.971   0.714  19.500  0.00  0.00    +0.000 OA
BRANCH  13  16
ATOM     15  C   UNL     1       5.874   0.512  22.013  0.00  0.00    +0.000 C 
ATOM     16  O   UNL     1       5.332   1.745  21.512  0.00  0.00    +0.000 OA
ENDBRANCH  13  16
ENDBRANCH   1  13
BRANCH   8  17
ATOM     17  C   UNL     1       3.167   5.820  20.085  0.00  0.00    +0.000 C 
BRANCH  17  18
ATOM     18  C   UNL     1       2.172   6.894  20.458  0.00  0.00    +0.000 A 
ATOM     19  C   UNL     1       1.098   7.025  21.321  0.00  0.00    +0.000 A 
ATOM     20  C   UNL     1       0.484   8.284  21.046  0.00  0.00    +0.000 A 
ATOM     21  C   UNL     1       1.201   8.840  20.016  0.00  0.00    +0.000 A 
ATOM     22  O   UNL     1       2.221   8.019  19.658  0.00  0.00    +0.000 OA
ENDBRANCH  17  18
ENDBRANCH   8  17
BRANCH  11  23
ATOM     23  C   UNL     1       5.035   4.168  16.402  0.00  0.00    +0.000 C 
BRANCH  23  24
ATOM     24  C   UNL     1       5.867   4.861  15.337  0.00  0.00    +0.000 C 
ATOM     25  O   UNL     1       6.150   6.040  15.394  0.00  0.00    +0.000 OA
ATOM     26  N   UNL     1       6.252   4.007  14.335  0.00  0.00    +0.000 N 
ATOM     27  H   UNL     1       5.960   3.047  14.349  0.00  0.00    +0.000 HD
BRANCH  26  28
ATOM     28  C   UNL     1       7.005   4.468  13.175  0.00  0.00    +0.000 C 
BRANCH  28  29
ATOM     29  C   UNL     1       6.809   3.583  11.942  0.00  0.00    +0.000 C 
BRANCH  29  30
ATOM     30  C   UNL     1       5.606   2.618  11.981  0.00  0.00    +0.000 C 
ATOM     31  C   UNL     1       4.330   3.222  11.392  0.00  0.00    +0.000 C 
ATOM     32  C   UNL     1       5.956   1.336  11.217  0.00  0.00    +0.000 C 
ENDBRANCH  29  30
ENDBRANCH  28  29
ENDBRANCH  26  28
ENDBRANCH  23  24
ENDBRANCH  11  23
TORSDOF 9
ENDMDL
MODEL 5
REMARK VINA RESULT:      -7.8      1.119      1.219
REMARK  Name = 
REMARK  12 active torsions:
REMARK  status: ('A' for Active; 'I' for Inactive)
REMARK    1  A    between atoms: C_1  and  O_2
REMARK    2  A    between atoms: O_2  and  C_3
REMARK    3  A    between atoms: C_3  and  C_5
REMARK    4  A    between atoms: N_12  and  C_13
REMARK    5  A    between atoms: C_13  and  C_14
REMARK    6  A    between atoms: C_21  and  C_22
REMARK    7  A    between atoms: C_22  and  C_23
REMARK    8  A    between atoms: N_25  and  C_26
REMARK    9  A    between atoms: C_26  and  C_27
REMARK   10  A    between atoms: C_27  and  C_28
REMARK   11  A    between atoms: C_28  and  C_29
REMARK   12  A    between atoms: C_28  and  C_30
REMARK                            x       y       z     vdW  Elec       q    Type
REMARK                         _______ _______ _______ _____ _____    ______ ____
ROOT
ATOM      1  C   UNL     1       6.264   5.970  17.871  0.00  0.00    +0.000 C 
ATOM      2  C   UNL     1       7.134   4.835  17.031  0.00  0.00    +0.000 C 
ATOM      3  C   UNL     1       6.607   3.723  15.955  0.00  0.00    +0.000 C 
ATOM      4  C   UNL     1       5.472   3.985  14.877  0.00  0.00    +0.000 C 
ATOM      5  C   UNL     1       5.131   5.436  14.540  0.00  0.00    +0.000 C 
ATOM      6  C   UNL     1       5.181   6.249  15.777  0.00  0.00    +0.000 C 
ATOM      7  C   UNL     1       5.182   5.619  16.971  0.00  0.00    +0.000 C 
ATOM      8  N   UNL     1       4.198   4.617  17.416  0.00  0.00    +0.000 N 
ATOM      9  C   UNL     1       3.043   5.347  17.722  0.00  0.00    +0.000 C 
ATOM     10  O   UNL     1       1.896   4.975  17.531  0.00  0.00    +0.000 OA
ATOM     11  C   UNL     1       3.478   6.663  18.390  0.00  0.00    +0.000 C 
ATOM     12  C   UNL     1       5.107   6.566  18.839  0.00  0.00    +0.000 C 
ENDROOT
BRANCH   1  13
ATOM     13  C   UNL     1       7.424   6.971  18.121  0.00  0.00    +0.000 C 
ATOM     14  O   UNL     1       8.353   6.739  18.902  0.00  0.00    +0.000 OA
BRANCH  13  16
ATOM     15  C   UNL     1       8.087   9.234  17.893  0.00  0.00    +0.000 C 
ATOM     16  O   UNL     1       7.339   8.119  17.382  0.00  0.00    +0.000 OA
ENDBRANCH  13  16
ENDBRANCH   1  13
BRANCH   8  17
ATOM     17  C   UNL     1       4.424   3.715  18.619  0.00  0.00    +0.000 C 
BRANCH  17  18
ATOM     18  C   UNL     1       3.218   3.214  19.379  0.00  0.00    +0.000 A 
ATOM     19  C   UNL     1       2.241   2.250  19.207  0.00  0.00    +0.000 A 
ATOM     20  C   UNL     1       1.286   2.423  20.253  0.00  0.00    +0.000 A 
ATOM     21  C   UNL     1       1.718   3.498  20.989  0.00  0.00    +0.000 A 
ATOM     22  O   UNL     1       2.881   3.978  20.478  0.00  0.00    +0.000 OA
ENDBRANCH  17  18
ENDBRANCH   8  17
BRANCH  11  23
ATOM     23  C   UNL     1       2.958   7.738  17.416  0.00  0.00    +0.000 C 
BRANCH  23  24
ATOM     24  C   UNL     1       2.290   8.961  18.019  0.00  0.00    +0.000 C 
ATOM     25  O   UNL     1       2.370  10.064  17.517  0.00  0.00    +0.000 OA
ATOM     26  N   UNL     1       1.599   8.668  19.168  0.00  0.00    +0.000 N 
ATOM     27  H   UNL     1       1.598   7.733  19.532  0.00  0.00    +0.000 HD
BRANCH  26  28
ATOM     28  C   UNL     1       0.933   9.700  19.953  0.00  0.00    +0.000 C 
BRANCH  28  29
ATOM     29  C   UNL     1      -0.558   9.828  19.633  0.00  0.00    +0.000 C 
BRANCH  29  30
ATOM     30  C   UNL     1      -0.913  10.563  18.324  0.00  0.00    +0.000 C 
ATOM     31  C   UNL     1      -2.136   9.977  17.617  0.00  0.00    +0.000 C 
ATOM     32  C   UNL     1      -1.166  12.045  18.624  0.00  0.00    +0.000 C 
ENDBRANCH  29  30
ENDBRANCH  28  29
ENDBRANCH  26  28
ENDBRANCH  23  24
ENDBRANCH  11  23
TORSDOF 9
ENDMDL
MODEL 6
REMARK VINA RESULT:      -7.5      3.705      9.357
REMARK  Name = 
REMARK  12 active torsions:
REMARK  status: ('A' for Active; 'I' for Inactive)
REMARK    1  A    between atoms: C_1  and  O_2
REMARK    2  A    between atoms: O_2  and  C_3
REMARK    3  A    between atoms: C_3  and  C_5
REMARK    4  A    between atoms: N_12  and  C_13
REMARK    5  A    between atoms: C_13  and  C_14
REMARK    6  A    between atoms: C_21  and  C_22
REMARK    7  A    between atoms: C_22  and  C_23
REMARK    8  A    between atoms: N_25  and  C_26
REMARK    9  A    between atoms: C_26  and  C_27
REMARK   10  A    between atoms: C_27  and  C_28
REMARK   11  A    between atoms: C_28  and  C_29
REMARK   12  A    between atoms: C_28  and  C_30
REMARK                            x       y       z     vdW  Elec       q    Type
REMARK                         _______ _______ _______ _____ _____    ______ ____
ROOT
ATOM      1  C   UNL     1      -1.258  11.232  19.250  0.00  0.00    +0.000 C 
ATOM      2  C   UNL     1      -1.512  12.864  19.407  0.00  0.00    +0.000 C 
ATOM      3  C   UNL     1      -0.649  13.963  20.255  0.00  0.00    +0.000 C 
ATOM      4  C   UNL     1       0.935  13.966  20.369  0.00  0.00    +0.000 C 
ATOM      5  C   UNL     1       1.725  13.171  19.331  0.00  0.00    +0.000 C 
ATOM      6  C   UNL     1       1.005  11.913  19.028  0.00  0.00    +0.000 C 
ATOM      7  C   UNL     1       0.028  11.504  19.863  0.00  0.00    +0.000 C 
ATOM      8  N   UNL     1       0.159  11.327  21.320  0.00  0.00    +0.000 N 
ATOM      9  C   UNL     1       0.890  10.144  21.482  0.00  0.00    +0.000 C 
ATOM     10  O   UNL     1       1.718   9.934  22.355  0.00  0.00    +0.000 OA
ATOM     11  C   UNL     1       0.420   9.146  20.409  0.00  0.00    +0.000 C 
ATOM     12  C   UNL     1      -1.020   9.695  19.709  0.00  0.00    +0.000 C 
ENDROOT
BRANCH   1  13
ATOM     13  C   UNL     1      -1.996  11.042  17.897  0.00  0.00    +0.000 C 
ATOM     14  O   UNL     1      -2.787  11.875  17.442  0.00  0.00    +0.000 OA
BRANCH  13  16
ATOM     15  C   UNL     1      -2.450   9.608  16.066  0.00  0.00    +0.000 C 
ATOM     16  O   UNL     1      -1.675   9.884  17.244  0.00  0.00    +0.000 OA
ENDBRANCH  13  16
ENDBRANCH   1  13
BRANCH   8  17
ATOM     17  C   UNL     1      -1.037  11.180  22.245  0.00  0.00    +0.000 C 
BRANCH  17  18
ATOM     18  C   UNL     1      -1.559  12.412  22.948  0.00  0.00    +0.000 A 
ATOM     19  C   UNL     1      -2.777  13.048  23.108  0.00  0.00    +0.000 A 
ATOM     20  C   UNL     1      -2.526  14.287  23.771  0.00  0.00    +0.000 A 
ATOM     21  C   UNL     1      -1.167  14.349  23.957  0.00  0.00    +0.000 A 
ATOM     22  O   UNL     1      -0.575  13.227  23.473  0.00  0.00    +0.000 OA
ENDBRANCH  17  18
ENDBRANCH   8  17
BRANCH  11  23
ATOM     23  C   UNL     1       1.696   8.901  19.578  0.00  0.00    +0.000 C 
BRANCH  23  24
ATOM     24  C   UNL     1       2.204   7.473  19.487  0.00  0.00    +0.000 C 
ATOM     25  O   UNL     1       2.849   7.069  18.541  0.00  0.00    +0.000 OA
ATOM     26  N   UNL     1       1.855   6.722  20.580  0.00  0.00    +0.000 N 
ATOM     27  H   UNL     1       1.301   7.123  21.313  0.00  0.00    +0.000 HD
BRANCH  26  28
ATOM     28  C   UNL     1       2.182   5.304  20.678  0.00  0.00    +0.000 C 
BRANCH  28  29
ATOM     29  C   UNL     1       0.965   4.393  20.501  0.00  0.00    +0.000 C 
BRANCH  29  30
ATOM     30  C   UNL     1       1.242   2.876  20.524  0.00  0.00    +0.000 C 
ATOM     31  C   UNL     1       1.833   2.352  19.213  0.00  0.00    +0.000 C 
ATOM     32  C   UNL     1       2.201   2.550  21.674  0.00  0.00    +0.000 C 
ENDBRANCH  29  30
ENDBRANCH  28  29
ENDBRANCH  26  28
ENDBRANCH  23  24
ENDBRANCH  11  23
TORSDOF 9
ENDMDL
MODEL 7
REMARK VINA RESULT:      -7.5      0.637      1.151
REMARK  Name = 
REMARK  12 active torsions:
REMARK  status: ('A' for Active; 'I' for Inactive)
REMARK    1  A    between atoms: C_1  and  O_2
REMARK    2  A    between atoms: O_2  and  C_3
REMARK    3  A    between atoms: C_3  and  C_5
REMARK    4  A    between atoms: N_12  and  C_13
REMARK    5  A    between atoms: C_13  and  C_14
REMARK    6  A    between atoms: C_21  and  C_22
REMARK    7  A    between atoms: C_22  and  C_23
REMARK    8  A    between atoms: N_25  and  C_26
REMARK    9  A    between atoms: C_26  and  C_27
REMARK   10  A    between atoms: C_27  and  C_28
REMARK   11  A    between atoms: C_28  and  C_29
REMARK   12  A    between atoms: C_28  and  C_30
REMARK                            x       y       z     vdW  Elec       q    Type
REMARK                         _______ _______ _______ _____ _____    ______ ____
ROOT
ATOM      1  C   UNL     1       6.090   5.287  18.221  0.00  0.00    +0.000 C 
ATOM      2  C   UNL     1       6.918   4.380  17.104  0.00  0.00    +0.000 C 
ATOM      3  C   UNL     1       6.383   3.736  15.701  0.00  0.00    +0.000 C 
ATOM      4  C   UNL     1       5.376   4.458  14.708  0.00  0.00    +0.000 C 
ATOM      5  C   UNL     1       5.206   5.971  14.842  0.00  0.00    +0.000 C 
ATOM      6  C   UNL     1       5.226   6.339  16.276  0.00  0.00    +0.000 C 
ATOM      7  C   UNL     1       5.063   5.370  17.200  0.00  0.00    +0.000 C 
ATOM      8  N   UNL     1       3.952   4.403  17.245  0.00  0.00    +0.000 N 
ATOM      9  C   UNL     1       2.850   5.130  17.711  0.00  0.00    +0.000 C 
ATOM     10  O   UNL     1       1.693   4.976  17.351  0.00  0.00    +0.000 OA
ATOM     11  C   UNL     1       3.349   6.107  18.791  0.00  0.00    +0.000 C 
ATOM     12  C   UNL     1       4.916   5.679  19.268  0.00  0.00    +0.000 C 
ENDROOT
BRANCH   1  13
ATOM     13  C   UNL     1       7.315   6.013  18.840  0.00  0.00    +0.000 C 
ATOM     14  O   UNL     1       8.031   6.788  18.197  0.00  0.00    +0.000 OA
BRANCH  13  16
ATOM     15  C   UNL     1       8.736   5.041  20.468  0.00  0.00    +0.000 C 
ATOM     16  O   UNL     1       7.515   5.736  20.164  0.00  0.00    +0.000 OA
ENDBRANCH  13  16
ENDBRANCH   1  13
BRANCH   8  17
ATOM     17  C   UNL     1       3.985   3.147  18.101  0.00  0.00    +0.000 C 
BRANCH  17  18
ATOM     18  C   UNL     1       2.850   2.906  19.069  0.00  0.00    +0.000 A 
ATOM     19  C   UNL     1       2.617   3.079  20.422  0.00  0.00    +0.000 A 
ATOM     20  C   UNL     1       1.358   2.476  20.717  0.00  0.00    +0.000 A 
ATOM     21  C   UNL     1       0.904   1.946  19.535  0.00  0.00    +0.000 A 
ATOM     22  O   UNL     1       1.787   2.203  18.536  0.00  0.00    +0.000 OA
ENDBRANCH  17  18
ENDBRANCH   8  17
BRANCH  11  23
ATOM     23  C   UNL     1       3.021   7.488  18.191  0.00  0.00    +0.000 C 
BRANCH  23  24
ATOM     24  C   UNL     1       1.958   8.317  18.890  0.00  0.00    +0.000 C 
ATOM     25  O   UNL     1       1.684   8.171  20.064  0.00  0.00    +0.000 OA
ATOM     26  N   UNL     1       1.368   9.227  18.051  0.00  0.00    +0.000 N 
ATOM     27  H   UNL     1       1.635   9.272  17.085  0.00  0.00    +0.000 HD
BRANCH  26  28
ATOM     28  C   UNL     1       0.275  10.086  18.491  0.00  0.00    +0.000 C 
BRANCH  28  29
ATOM     29  C   UNL     1      -1.014   9.876  17.692  0.00  0.00    +0.000 C 
BRANCH  29  30
ATOM     30  C   UNL     1      -1.963  11.089  17.601  0.00  0.00    +0.000 C 
ATOM     31  C   UNL     1      -3.439  10.709  17.733  0.00  0.00    +0.000 C 
ATOM     32  C   UNL     1      -1.603  12.101  18.694  0.00  0.00    +0.000 C 
ENDBRANCH  29  30
ENDBRANCH  28  29
ENDBRANCH  26  28
ENDBRANCH  23  24
ENDBRANCH  11  23
TORSDOF 9
ENDMDL
MODEL 8
REMARK VINA RESULT:      -7.5      1.213      1.731
REMARK  Name = 
REMARK  12 active torsions:
REMARK  status: ('A' for Active; 'I' for Inactive)
REMARK    1  A    between atoms: C_1  and  O_2
REMARK    2  A    between atoms: O_2  and  C_3
REMARK    3  A    between atoms: C_3  and  C_5
REMARK    4  A    between atoms: N_12  and  C_13
REMARK    5  A    between atoms: C_13  and  C_14
REMARK    6  A    between atoms: C_21  and  C_22
REMARK    7  A    between atoms: C_22  and  C_23
REMARK    8  A    between atoms: N_25  and  C_26
REMARK    9  A    between atoms: C_26  and  C_27
REMARK   10  A    between atoms: C_27  and  C_28
REMARK   11  A    between atoms: C_28  and  C_29
REMARK   12  A    between atoms: C_28  and  C_30
REMARK                            x       y       z     vdW  Elec       q    Type
REMARK                         _______ _______ _______ _____ _____    ______ ____
ROOT
ATOM      1  C   UNL     1       6.086   5.116  18.245  0.00  0.00    +0.000 C 
ATOM      2  C   UNL     1       6.879   4.306  17.033  0.00  0.00    +0.000 C 
ATOM      3  C   UNL     1       6.309   3.806  15.585  0.00  0.00    +0.000 C 
ATOM      4  C   UNL     1       5.299   4.634  14.683  0.00  0.00    +0.000 C 
ATOM      5  C   UNL     1       5.157   6.130  14.963  0.00  0.00    +0.000 C 
ATOM      6  C   UNL     1       5.208   6.360  16.425  0.00  0.00    +0.000 C 
ATOM      7  C   UNL     1       5.043   5.310  17.256  0.00  0.00    +0.000 C 
ATOM      8  N   UNL     1       3.917   4.361  17.230  0.00  0.00    +0.000 N 
ATOM      9  C   UNL     1       2.836   5.057  17.782  0.00  0.00    +0.000 C 
ATOM     10  O   UNL     1       1.671   4.956  17.431  0.00  0.00    +0.000 OA
ATOM     11  C   UNL     1       3.369   5.919  18.941  0.00  0.00    +0.000 C 
ATOM     12  C   UNL     1       4.936   5.425  19.346  0.00  0.00    +0.000 C 
ENDROOT
BRANCH   1  13
ATOM     13  C   UNL     1       7.334   5.760  18.908  0.00  0.00    +0.000 C 
ATOM     14  O   UNL     1       7.592   5.638  20.110  0.00  0.00    +0.000 OA
BRANCH  13  16
ATOM     15  C   UNL     1       7.971   7.880  18.065  0.00  0.00    +0.000 C 
ATOM     16  O   UNL     1       8.131   6.453  18.039  0.00  0.00    +0.000 OA
ENDBRANCH  13  16
ENDBRANCH   1  13
BRANCH   8  17
ATOM     17  C   UNL     1       3.943   3.029  17.963  0.00  0.00    +0.000 C 
BRANCH  17  18
ATOM     18  C   UNL     1       2.874   2.755  18.996  0.00  0.00    +0.000 A 
ATOM     19  C   UNL     1       2.761   2.802  20.374  0.00  0.00    +0.000 A 
ATOM     20  C   UNL     1       1.492   2.244  20.715  0.00  0.00    +0.000 A 
ATOM     21  C   UNL     1       0.913   1.865  19.530  0.00  0.00    +0.000 A 
ATOM     22  O   UNL     1       1.730   2.172  18.489  0.00  0.00    +0.000 OA
ENDBRANCH  17  18
ENDBRANCH   8  17
BRANCH  11  23
ATOM     23  C   UNL     1       3.055   7.356  18.480  0.00  0.00    +0.000 C 
BRANCH  23  24
ATOM     24  C   UNL     1       2.063   8.152  19.309  0.00  0.00    +0.000 C 
ATOM     25  O   UNL     1       1.706   7.801  20.416  0.00  0.00    +0.000 OA
ATOM     26  N   UNL     1       1.637   9.288  18.669  0.00  0.00    +0.000 N 
ATOM     27  H   UNL     1       1.963   9.499  17.744  0.00  0.00    +0.000 HD
BRANCH  26  28
ATOM     28  C   UNL     1       0.634  10.172  19.250  0.00  0.00    +0.000 C 
BRANCH  28  29
ATOM     29  C   UNL     1       0.458  11.476  18.470  0.00  0.00    +0.000 C 
BRANCH  29  30
ATOM     30  C   UNL     1       0.844  12.772  19.213  0.00  0.00    +0.000 C 
ATOM     31  C   UNL     1       1.428  12.517  20.604  0.00  0.00    +0.000 C 
ATOM     32  C   UNL     1       1.861  13.555  18.376  0.00  0.00    +0.000 C 
ENDBRANCH  29  30
ENDBRANCH  28  29
ENDBRANCH  26  28
ENDBRANCH  23  24
ENDBRANCH  11  23
TORSDOF 9
ENDMDL
MODEL 9
REMARK VINA RESULT:      -7.4      3.684      9.583
REMARK  Name = 
REMARK  12 active torsions:
REMARK  status: ('A' for Active; 'I' for Inactive)
REMARK    1  A    between atoms: C_1  and  O_2
REMARK    2  A    between atoms: O_2  and  C_3
REMARK    3  A    between atoms: C_3  and  C_5
REMARK    4  A    between atoms: N_12  and  C_13
REMARK    5  A    between atoms: C_13  and  C_14
REMARK    6  A    between atoms: C_21  and  C_22
REMARK    7  A    between atoms: C_22  and  C_23
REMARK    8  A    between atoms: N_25  and  C_26
REMARK    9  A    between atoms: C_26  and  C_27
REMARK   10  A    between atoms: C_27  and  C_28
REMARK   11  A    between atoms: C_28  and  C_29
REMARK   12  A    between atoms: C_28  and  C_30
REMARK                            x       y       z     vdW  Elec       q    Type
REMARK                         _______ _______ _______ _____ _____    ______ ____
ROOT
ATOM      1  C   UNL     1      -1.553  11.385  19.124  0.00  0.00    +0.000 C 
ATOM      2  C   UNL     1      -1.922  12.990  19.326  0.00  0.00    +0.000 C 
ATOM      3  C   UNL     1      -1.093  14.144  20.134  0.00  0.00    +0.000 C 
ATOM      4  C   UNL     1       0.489  14.270  20.146  0.00  0.00    +0.000 C 
ATOM      5  C   UNL     1       1.269  13.552  19.045  0.00  0.00    +0.000 C 
ATOM      6  C   UNL     1       0.630  12.245  18.767  0.00  0.00    +0.000 C 
ATOM      7  C   UNL     1      -0.254  11.751  19.657  0.00  0.00    +0.000 C 
ATOM      8  N   UNL     1      -0.014  11.567  21.099  0.00  0.00    +0.000 N 
ATOM      9  C   UNL     1       0.816  10.443  21.193  0.00  0.00    +0.000 C 
ATOM     10  O   UNL     1       1.714  10.288  22.007  0.00  0.00    +0.000 OA
ATOM     11  C   UNL     1       0.356   9.425  20.135  0.00  0.00    +0.000 C 
ATOM     12  C   UNL     1      -1.166   9.867  19.540  0.00  0.00    +0.000 C 
ENDROOT
BRANCH   1  13
ATOM     13  C   UNL     1      -2.362  11.154  17.819  0.00  0.00    +0.000 C 
ATOM     14  O   UNL     1      -1.945  10.459  16.886  0.00  0.00    +0.000 OA
BRANCH  13  16
ATOM     15  C   UNL     1      -4.422  11.439  16.684  0.00  0.00    +0.000 C 
ATOM     16  O   UNL     1      -3.584  11.767  17.804  0.00  0.00    +0.000 OA
ENDBRANCH  13  16
ENDBRANCH   1  13
BRANCH   8  17
ATOM     17  C   UNL     1      -1.132  11.315  22.098  0.00  0.00    +0.000 C 
BRANCH  17  18
ATOM     18  C   UNL     1      -1.617  12.471  22.942  0.00  0.00    +0.000 A 
ATOM     19  C   UNL     1      -2.833  13.019  23.307  0.00  0.00    +0.000 A 
ATOM     20  C   UNL     1      -2.559  14.232  24.008  0.00  0.00    +0.000 A 
ATOM     21  C   UNL     1      -1.193  14.370  24.010  0.00  0.00    +0.000 A 
ATOM     22  O   UNL     1      -0.615  13.315  23.379  0.00  0.00    +0.000 OA
ENDBRANCH  17  18
ENDBRANCH   8  17
BRANCH  11  23
ATOM     23  C   UNL     1       1.588   9.291  19.220  0.00  0.00    +0.000 C 
BRANCH  23  24
ATOM     24  C   UNL     1       2.155   7.898  19.014  0.00  0.00    +0.000 C 
ATOM     25  O   UNL     1       2.585   7.519  17.943  0.00  0.00    +0.000 OA
ATOM     26  N   UNL     1       2.125   7.145  20.160  0.00  0.00    +0.000 N 
ATOM     27  H   UNL     1       1.734   7.523  21.003  0.00  0.00    +0.000 HD
BRANCH  26  28
ATOM     28  C   UNL     1       2.560   5.753  20.181  0.00  0.00    +0.000 C 
BRANCH  28  29
ATOM     29  C   UNL     1       1.439   4.779  20.547  0.00  0.00    +0.000 C 
BRANCH  29  30
ATOM     30  C   UNL     1       1.761   3.279  20.382  0.00  0.00    +0.000 C 
ATOM     31  C   UNL     1       1.535   2.471  21.661  0.00  0.00    +0.000 C 
ATOM     32  C   UNL     1       0.900   2.693  19.257  0.00  0.00    +0.000 C 
ENDBRANCH  29  30
ENDBRANCH  28  29
ENDBRANCH  26  28
ENDBRANCH  23  24
ENDBRANCH  11  23
TORSDOF 9
ENDMDL
