MODEL 1
REMARK VINA RESULT:      -7.3      0.000      0.000
REMARK  Name = 
REMARK  6 active torsions:
REMARK  status: ('A' for Active; 'I' for Inactive)
REMARK    1  A    between atoms: C_1  and  O_2
REMARK    2  A    between atoms: O_2  and  C_3
REMARK    3  A    between atoms: C_6  and  C_7
REMARK    4  A    between atoms: C_7  and  O_9
REMARK    5  A    between atoms: O_9  and  C_10
REMARK    6  A    between atoms: C_10  and  N_11
REMARK                            x       y       z     vdW  Elec       q    Type
REMARK                         _______ _______ _______ _____ _____    ______ ____
ROOT
ATOM      1  O   UNL     1       4.495   5.413  19.542  0.00  0.00    +0.000 OA
ENDROOT
BRANCH   1   2
ATOM      2  C   UNL     1       3.165   5.446  19.771  0.00  0.00    +0.000 C 
ATOM      3  O   UNL     1       2.495   4.527  20.214  0.00  0.00    +0.000 OA
BRANCH   2   7
ATOM      4  C   UNL     1       1.431   9.265  18.834  0.00  0.00    +0.000 A 
ATOM      5  C   UNL     1       1.261   8.680  20.089  0.00  0.00    +0.000 A 
ATOM      6  C   UNL     1       1.842   7.445  20.380  0.00  0.00    +0.000 A 
ATOM      7  C   UNL     1       2.585   6.766  19.405  0.00  0.00    +0.000 A 
ATOM      8  C   UNL     1       2.745   7.345  18.139  0.00  0.00    +0.000 A 
ATOM      9  C   UNL     1       2.168   8.590  17.856  0.00  0.00    +0.000 A 
BRANCH   4  11
ATOM     10  C   UNL     1       1.654  11.607  18.622  0.00  0.00    +0.000 C 
ATOM     11  O   UNL     1       0.804  10.466  18.663  0.00  0.00    +0.000 OA
ENDBRANCH   4  11
ENDBRANCH   2   7
ENDBRANCH   1   2
BRANCH   1  12
ATOM     12  C   UNL     1       4.983   4.202  18.958  0.00  0.00    +0.000 C 
BRANCH  12  13
ATOM     13  N   UNL     1       5.654   4.526  17.708  0.00  0.00    +0.000 N 
ATOM     14  C   UNL     1       4.914   4.659  16.551  0.00  0.00    +0.000 A 
ATOM     15  C   UNL     1       5.489   4.912  15.373  0.00  0.00    +0.000 A 
ATOM     16  C   UNL     1       6.953   5.061  15.314  0.00  0.00    +0.000 A 
ATOM     17  O   UNL     1       7.529   5.235  14.250  0.00  0.00    +0.000 OA
ATOM     18  N   UNL     1       7.603   4.987  16.512  0.00  0.00    +0.000 N 
ATOM     19  C   UNL     1       7.030   4.700  17.724  0.00  0.00    +0.000 A 
ATOM     20  O   UNL     1       7.731   4.599  18.729  0.00  0.00    +0.000 OA
ATOM     21  H   UNL     1       8.606   5.084  16.498  0.00  0.00    +0.000 HD
ENDBRANCH  12  13
ENDBRANCH   1  12
TORSDOF 5
ENDMDL
MODEL 2
REMARK VINA RESULT:      -7.3      0.478      1.180
REMARK  Name = 
REMARK  6 active torsions:
REMARK  status: ('A' for Active; 'I' for Inactive)
REMARK    1  A    between atoms: C_1  and  O_2
REMARK    2  A    between atoms: O_2  and  C_3
REMARK    3  A    between atoms: C_6  and  C_7
REMARK    4  A    between atoms: C_7  and  O_9
REMARK    5  A    between atoms: O_9  and  C_10
REMARK    6  A    between atoms: C_10  and  N_11
REMARK                            x       y       z     vdW  Elec       q    Type
REMARK                         _______ _______ _______ _____ _____    ______ ____
ROOT
ATOM      1  O   UNL     1       4.448   5.576  19.458  0.00  0.00    +0.000 OA
ENDROOT
BRANCH   1   2
ATOM      2  C   UNL     1       3.121   5.534  19.698  0.00  0.00    +0.000 C 
ATOM      3  O   UNL     1       2.494   4.554  20.068  0.00  0.00    +0.000 OA
BRANCH   2   7
ATOM      4  C   UNL     1       1.325   9.343  18.845  0.00  0.00    +0.000 A 
ATOM      5  C   UNL     1       2.029   8.640  17.868  0.00  0.00    +0.000 A 
ATOM      6  C   UNL     1       2.596   7.397  18.159  0.00  0.00    +0.000 A 
ATOM      7  C   UNL     1       2.483   6.853  19.445  0.00  0.00    +0.000 A 
ATOM      8  C   UNL     1       1.788   7.566  20.431  0.00  0.00    +0.000 A 
ATOM      9  C   UNL     1       1.213   8.808  20.130  0.00  0.00    +0.000 A 
BRANCH   4  11
ATOM     10  C   UNL     1      -0.213  11.090  19.252  0.00  0.00    +0.000 C 
ATOM     11  O   UNL     1       0.830  10.553  18.446  0.00  0.00    +0.000 OA
ENDBRANCH   4  11
ENDBRANCH   2   7
ENDBRANCH   1   2
BRANCH   1  12
ATOM     12  C   UNL     1       5.017   4.362  18.959  0.00  0.00    +0.000 C 
BRANCH  12  13
ATOM     13  N   UNL     1       5.680   4.644  17.694  0.00  0.00    +0.000 N 
ATOM     14  C   UNL     1       4.922   4.879  16.565  0.00  0.00    +0.000 A 
ATOM     15  C   UNL     1       5.484   5.100  15.374  0.00  0.00    +0.000 A 
ATOM     16  C   UNL     1       6.953   5.099  15.271  0.00  0.00    +0.000 A 
ATOM     17  O   UNL     1       7.511   5.238  14.192  0.00  0.00    +0.000 OA
ATOM     18  N   UNL     1       7.628   4.931  16.445  0.00  0.00    +0.000 N 
ATOM     19  C   UNL     1       7.066   4.677  17.669  0.00  0.00    +0.000 A 
ATOM     20  O   UNL     1       7.783   4.481  18.649  0.00  0.00    +0.000 OA
ATOM     21  H   UNL     1       8.635   4.926  16.401  0.00  0.00    +0.000 HD
ENDBRANCH  12  13
ENDBRANCH   1  12
TORSDOF 5
ENDMDL
MODEL 3
REMARK VINA RESULT:      -7.2      2.536      4.460
REMARK  Name = 
REMARK  6 active torsions:
REMARK  status: ('A' for Active; 'I' for Inactive)
REMARK    1  A    between atoms: C_1  and  O_2
REMARK    2  A    between atoms: O_2  and  C_3
REMARK    3  A    between atoms: C_6  and  C_7
REMARK    4  A    between atoms: C_7  and  O_9
REMARK    5  A    between atoms: O_9  and  C_10
REMARK    6  A    between atoms: C_10  and  N_11
REMARK                            x       y       z     vdW  Elec       q    Type
REMARK                         _______ _______ _______ _____ _____    ______ ____
ROOT
ATOM      1  O   UNL     1       3.526   4.348  17.126  0.00  0.00    +0.000 OA
ENDROOT
BRANCH   1   2
ATOM      2  C   UNL     1       4.277   5.323  17.677  0.00  0.00    +0.000 C 
ATOM      3  O   UNL     1       5.494   5.319  17.772  0.00  0.00    +0.000 OA
BRANCH   2   7
ATOM      4  C   UNL     1       1.812   8.476  19.242  0.00  0.00    +0.000 A 
ATOM      5  C   UNL     1       2.056   7.316  19.976  0.00  0.00    +0.000 A 
ATOM      6  C   UNL     1       2.870   6.307  19.457  0.00  0.00    +0.000 A 
ATOM      7  C   UNL     1       3.433   6.439  18.181  0.00  0.00    +0.000 A 
ATOM      8  C   UNL     1       3.176   7.598  17.436  0.00  0.00    +0.000 A 
ATOM      9  C   UNL     1       2.366   8.612  17.966  0.00  0.00    +0.000 A 
BRANCH   4  11
ATOM     10  C   UNL     1       0.779   9.194  21.242  0.00  0.00    +0.000 C 
ATOM     11  O   UNL     1       0.989   9.384  19.847  0.00  0.00    +0.000 OA
ENDBRANCH   4  11
ENDBRANCH   2   7
ENDBRANCH   1   2
BRANCH   1  12
ATOM     12  C   UNL     1       3.790   3.028  17.609  0.00  0.00    +0.000 C 
BRANCH  12  13
ATOM     13  N   UNL     1       3.100   2.849  18.878  0.00  0.00    +0.000 N 
ATOM     14  C   UNL     1       1.721   2.893  18.915  0.00  0.00    +0.000 A 
ATOM     15  C   UNL     1       1.045   2.777  20.062  0.00  0.00    +0.000 A 
ATOM     16  C   UNL     1       1.796   2.590  21.314  0.00  0.00    +0.000 A 
ATOM     17  O   UNL     1       1.224   2.539  22.393  0.00  0.00    +0.000 OA
ATOM     18  N   UNL     1       3.151   2.486  21.181  0.00  0.00    +0.000 N 
ATOM     19  C   UNL     1       3.860   2.629  20.017  0.00  0.00    +0.000 A 
ATOM     20  O   UNL     1       5.088   2.575  20.032  0.00  0.00    +0.000 OA
ATOM     21  H   UNL     1       3.688   2.358  22.025  0.00  0.00    +0.000 HD
ENDBRANCH  12  13
ENDBRANCH   1  12
TORSDOF 5
ENDMDL
MODEL 4
REMARK VINA RESULT:      -7.2      2.456      4.473
REMARK  Name = 
REMARK  6 active torsions:
REMARK  status: ('A' for Active; 'I' for Inactive)
REMARK    1  A    between atoms: C_1  and  O_2
REMARK    2  A    between atoms: O_2  and  C_3
REMARK    3  A    between atoms: C_6  and  C_7
REMARK    4  A    between atoms: C_7  and  O_9
REMARK    5  A    between atoms: O_9  and  C_10
REMARK    6  A    between atoms: C_10  and  N_11
REMARK                            x       y       z     vdW  Elec       q    Type
REMARK                         _______ _______ _______ _____ _____    ______ ____
ROOT
ATOM      1  O   UNL     1       3.620   4.426  17.147  0.00  0.00    +0.000 OA
ENDROOT
BRANCH   1   2
ATOM      2  C   UNL     1       4.325   5.395  17.768  0.00  0.00    +0.000 C 
ATOM      3  O   UNL     1       5.539   5.424  17.894  0.00  0.00    +0.000 OA
BRANCH   2   7
ATOM      4  C   UNL     1       1.766   8.527  19.220  0.00  0.00    +0.000 A 
ATOM      5  C   UNL     1       2.369   8.608  17.965  0.00  0.00    +0.000 A 
ATOM      6  C   UNL     1       3.188   7.575  17.505  0.00  0.00    +0.000 A 
ATOM      7  C   UNL     1       3.431   6.454  18.309  0.00  0.00    +0.000 A 
ATOM      8  C   UNL     1       2.837   6.378  19.575  0.00  0.00    +0.000 A 
ATOM      9  C   UNL     1       2.008   7.413  20.028  0.00  0.00    +0.000 A 
BRANCH   4  11
ATOM     10  C   UNL     1       0.281  10.219  18.503  0.00  0.00    +0.000 C 
ATOM     11  O   UNL     1       0.999   9.604  19.567  0.00  0.00    +0.000 OA
ENDBRANCH   4  11
ENDBRANCH   2   7
ENDBRANCH   1   2
BRANCH   1  12
ATOM     12  C   UNL     1       3.869   3.097  17.612  0.00  0.00    +0.000 C 
BRANCH  12  13
ATOM     13  N   UNL     1       3.147   2.897  18.860  0.00  0.00    +0.000 N 
ATOM     14  C   UNL     1       1.768   2.946  18.864  0.00  0.00    +0.000 A 
ATOM     15  C   UNL     1       1.063   2.812  19.991  0.00  0.00    +0.000 A 
ATOM     16  C   UNL     1       1.782   2.597  21.257  0.00  0.00    +0.000 A 
ATOM     17  O   UNL     1       1.183   2.528  22.321  0.00  0.00    +0.000 OA
ATOM     18  N   UNL     1       3.139   2.489  21.156  0.00  0.00    +0.000 N 
ATOM     19  C   UNL     1       3.878   2.652  20.012  0.00  0.00    +0.000 A 
ATOM     20  O   UNL     1       5.105   2.592  20.057  0.00  0.00    +0.000 OA
ATOM     21  H   UNL     1       3.655   2.343  22.010  0.00  0.00    +0.000 HD
ENDBRANCH  12  13
ENDBRANCH   1  12
TORSDOF 5
ENDMDL
MODEL 5
REMARK VINA RESULT:      -7.1      2.066      3.120
REMARK  Name = 
REMARK  6 active torsions:
REMARK  status: ('A' for Active; 'I' for Inactive)
REMARK    1  A    between atoms: C_1  and  O_2
REMARK    2  A    between atoms: O_2  and  C_3
REMARK    3  A    between atoms: C_6  and  C_7
REMARK    4  A    between atoms: C_7  and  O_9
REMARK    5  A    between atoms: O_9  and  C_10
REMARK    6  A    between atoms: C_10  and  N_11
REMARK                            x       y       z     vdW  Elec       q    Type
REMARK                         _______ _______ _______ _____ _____    ______ ____
ROOT
ATOM      1  O   UNL     1       4.292   3.586  17.607  0.00  0.00    +0.000 OA
ENDROOT
BRANCH   1   2
ATOM      2  C   UNL     1       2.957   3.783  17.584  0.00  0.00    +0.000 C 
ATOM      3  O   UNL     1       2.156   3.163  16.904  0.00  0.00    +0.000 OA
BRANCH   2   7
ATOM      4  C   UNL     1       1.824   7.042  20.146  0.00  0.00    +0.000 A 
ATOM      5  C   UNL     1       2.208   7.261  18.823  0.00  0.00    +0.000 A 
ATOM      6  C   UNL     1       2.562   6.189  18.002  0.00  0.00    +0.000 A 
ATOM      7  C   UNL     1       2.556   4.881  18.504  0.00  0.00    +0.000 A 
ATOM      8  C   UNL     1       2.183   4.662  19.837  0.00  0.00    +0.000 A 
ATOM      9  C   UNL     1       1.820   5.741  20.654  0.00  0.00    +0.000 A 
BRANCH   4  11
ATOM     10  C   UNL     1       1.191   9.318  20.079  0.00  0.00    +0.000 C 
ATOM     11  O   UNL     1       1.515   8.169  20.855  0.00  0.00    +0.000 OA
ENDBRANCH   4  11
ENDBRANCH   2   7
ENDBRANCH   1   2
BRANCH   1  12
ATOM     12  C   UNL     1       5.009   4.140  16.501  0.00  0.00    +0.000 C 
BRANCH  12  13
ATOM     13  N   UNL     1       5.951   5.130  17.005  0.00  0.00    +0.000 N 
ATOM     14  C   UNL     1       6.820   4.787  18.019  0.00  0.00    +0.000 A 
ATOM     15  C   UNL     1       7.672   5.672  18.544  0.00  0.00    +0.000 A 
ATOM     16  C   UNL     1       7.684   7.046  18.015  0.00  0.00    +0.000 A 
ATOM     17  O   UNL     1       8.404   7.906  18.503  0.00  0.00    +0.000 OA
ATOM     18  N   UNL     1       6.845   7.283  16.965  0.00  0.00    +0.000 N 
ATOM     19  C   UNL     1       5.947   6.394  16.434  0.00  0.00    +0.000 A 
ATOM     20  O   UNL     1       5.196   6.743  15.525  0.00  0.00    +0.000 OA
ATOM     21  H   UNL     1       6.834   8.217  16.586  0.00  0.00    +0.000 HD
ENDBRANCH  12  13
ENDBRANCH   1  12
TORSDOF 5
ENDMDL
MODEL 6
REMARK VINA RESULT:      -7.1      2.725      4.510
REMARK  Name = 
REMARK  6 active torsions:
REMARK  status: ('A' for Active; 'I' for Inactive)
REMARK    1  A    between atoms: C_1  and  O_2
REMARK    2  A    between atoms: O_2  and  C_3
REMARK    3  A    between atoms: C_6  and  C_7
REMARK    4  A    between atoms: C_7  and  O_9
REMARK    5  A    between atoms: O_9  and  C_10
REMARK    6  A    between atoms: C_10  and  N_11
REMARK                            x       y       z     vdW  Elec       q    Type
REMARK                         _______ _______ _______ _____ _____    ______ ____
ROOT
ATOM      1  O   UNL     1       2.873   5.342  17.537  0.00  0.00    +0.000 OA
ENDROOT
BRANCH   1   2
ATOM      2  C   UNL     1       3.534   6.495  17.768  0.00  0.00    +0.000 C 
ATOM      3  O   UNL     1       4.699   6.720  17.480  0.00  0.00    +0.000 OA
BRANCH   2   7
ATOM      4  C   UNL     1       1.018   9.455  19.605  0.00  0.00    +0.000 A 
ATOM      5  C   UNL     1       1.445   9.587  18.284  0.00  0.00    +0.000 A 
ATOM      6  C   UNL     1       2.252   8.609  17.699  0.00  0.00    +0.000 A 
ATOM      7  C   UNL     1       2.662   7.494  18.442  0.00  0.00    +0.000 A 
ATOM      8  C   UNL     1       2.245   7.368  19.774  0.00  0.00    +0.000 A 
ATOM      9  C   UNL     1       1.427   8.348  20.352  0.00  0.00    +0.000 A 
BRANCH   4  11
ATOM     10  C   UNL     1       0.759  11.791  19.850  0.00  0.00    +0.000 C 
ATOM     11  O   UNL     1       0.245  10.482  20.070  0.00  0.00    +0.000 OA
ENDBRANCH   4  11
ENDBRANCH   2   7
ENDBRANCH   1   2
BRANCH   1  12
ATOM     12  C   UNL     1       3.565   4.153  17.928  0.00  0.00    +0.000 C 
BRANCH  12  13
ATOM     13  N   UNL     1       2.937   3.621  19.128  0.00  0.00    +0.000 N 
ATOM     14  C   UNL     1       1.587   3.818  19.334  0.00  0.00    +0.000 A 
ATOM     15  C   UNL     1       0.974   3.386  20.440  0.00  0.00    +0.000 A 
ATOM     16  C   UNL     1       1.764   2.675  21.458  0.00  0.00    +0.000 A 
ATOM     17  O   UNL     1       1.259   2.314  22.512  0.00  0.00    +0.000 OA
ATOM     18  N   UNL     1       3.075   2.459  21.145  0.00  0.00    +0.000 N 
ATOM     19  C   UNL     1       3.724   2.918  20.028  0.00  0.00    +0.000 A 
ATOM     20  O   UNL     1       4.927   2.712  19.885  0.00  0.00    +0.000 OA
ATOM     21  H   UNL     1       3.638   1.974  21.827  0.00  0.00    +0.000 HD
ENDBRANCH  12  13
ENDBRANCH   1  12
TORSDOF 5
ENDMDL
MODEL 7
REMARK VINA RESULT:      -7.0      3.533      5.990
REMARK  Name = 
REMARK  6 active torsions:
REMARK  status: ('A' for Active; 'I' for Inactive)
REMARK    1  A    between atoms: C_1  and  O_2
REMARK    2  A    between atoms: O_2  and  C_3
REMARK    3  A    between atoms: C_6  and  C_7
REMARK    4  A    between atoms: C_7  and  O_9
REMARK    5  A    between atoms: O_9  and  C_10
REMARK    6  A    between atoms: C_10  and  N_11
REMARK                            x       y       z     vdW  Elec       q    Type
REMARK                         _______ _______ _______ _____ _____    ______ ____
ROOT
ATOM      1  O   UNL     1       4.678   3.400  16.861  0.00  0.00    +0.000 OA
ENDROOT
BRANCH   1   2
ATOM      2  C   UNL     1       5.631   3.979  16.101  0.00  0.00    +0.000 C 
ATOM      3  O   UNL     1       5.853   3.733  14.926  0.00  0.00    +0.000 OA
BRANCH   2   7
ATOM      4  C   UNL     1       7.854   6.956  18.259  0.00  0.00    +0.000 A 
ATOM      5  C   UNL     1       7.126   7.284  17.116  0.00  0.00    +0.000 A 
ATOM      6  C   UNL     1       6.400   6.306  16.434  0.00  0.00    +0.000 A 
ATOM      7  C   UNL     1       6.412   4.977  16.879  0.00  0.00    +0.000 A 
ATOM      8  C   UNL     1       7.155   4.644  18.019  0.00  0.00    +0.000 A 
ATOM      9  C   UNL     1       7.874   5.632  18.705  0.00  0.00    +0.000 A 
BRANCH   4  11
ATOM     10  C   UNL     1       8.386   9.258  18.193  0.00  0.00    +0.000 C 
ATOM     11  O   UNL     1       8.536   7.994  18.831  0.00  0.00    +0.000 OA
ENDBRANCH   4  11
ENDBRANCH   2   7
ENDBRANCH   1   2
BRANCH   1  12
ATOM     12  C   UNL     1       3.598   4.256  17.243  0.00  0.00    +0.000 C 
BRANCH  12  13
ATOM     13  N   UNL     1       3.081   3.807  18.527  0.00  0.00    +0.000 N 
ATOM     14  C   UNL     1       2.298   2.672  18.587  0.00  0.00    +0.000 A 
ATOM     15  C   UNL     1       1.765   2.245  19.735  0.00  0.00    +0.000 A 
ATOM     16  C   UNL     1       2.029   3.006  20.967  0.00  0.00    +0.000 A 
ATOM     17  O   UNL     1       1.515   2.688  22.030  0.00  0.00    +0.000 OA
ATOM     18  N   UNL     1       2.870   4.073  20.834  0.00  0.00    +0.000 N 
ATOM     19  C   UNL     1       3.403   4.539  19.660  0.00  0.00    +0.000 A 
ATOM     20  O   UNL     1       4.101   5.551  19.658  0.00  0.00    +0.000 OA
ATOM     21  H   UNL     1       3.066   4.611  21.664  0.00  0.00    +0.000 HD
ENDBRANCH  12  13
ENDBRANCH   1  12
TORSDOF 5
ENDMDL
MODEL 8
REMARK VINA RESULT:      -6.9      1.980      2.824
REMARK  Name = 
REMARK  6 active torsions:
REMARK  status: ('A' for Active; 'I' for Inactive)
REMARK    1  A    between atoms: C_1  and  O_2
REMARK    2  A    between atoms: O_2  and  C_3
REMARK    3  A    between atoms: C_6  and  C_7
REMARK    4  A    between atoms: C_7  and  O_9
REMARK    5  A    between atoms: O_9  and  C_10
REMARK    6  A    between atoms: C_10  and  N_11
REMARK                            x       y       z     vdW  Elec       q    Type
REMARK                         _______ _______ _______ _____ _____    ______ ____
ROOT
ATOM      1  O   UNL     1       4.092   3.960  18.069  0.00  0.00    +0.000 OA
ENDROOT
BRANCH   1   2
ATOM      2  C   UNL     1       2.804   4.306  17.866  0.00  0.00    +0.000 C 
ATOM      3  O   UNL     1       1.991   3.676  17.208  0.00  0.00    +0.000 OA
BRANCH   2   7
ATOM      4  C   UNL     1       1.811   7.935  19.941  0.00  0.00    +0.000 A 
ATOM      5  C   UNL     1       1.716   6.693  20.569  0.00  0.00    +0.000 A 
ATOM      6  C   UNL     1       2.054   5.525  19.883  0.00  0.00    +0.000 A 
ATOM      7  C   UNL     1       2.472   5.586  18.547  0.00  0.00    +0.000 A 
ATOM      8  C   UNL     1       2.555   6.832  17.911  0.00  0.00    +0.000 A 
ATOM      9  C   UNL     1       2.224   8.002  18.608  0.00  0.00    +0.000 A 
BRANCH   4  11
ATOM     10  C   UNL     1       0.807   8.686  21.944  0.00  0.00    +0.000 C 
ATOM     11  O   UNL     1       1.439   9.003  20.709  0.00  0.00    +0.000 OA
ENDBRANCH   4  11
ENDBRANCH   2   7
ENDBRANCH   1   2
BRANCH   1  12
ATOM     12  C   UNL     1       4.961   4.158  16.950  0.00  0.00    +0.000 C 
BRANCH  12  13
ATOM     13  N   UNL     1       5.916   5.205  17.281  0.00  0.00    +0.000 N 
ATOM     14  C   UNL     1       6.748   5.047  18.371  0.00  0.00    +0.000 A 
ATOM     15  C   UNL     1       7.611   5.998  18.739  0.00  0.00    +0.000 A 
ATOM     16  C   UNL     1       7.676   7.242  17.954  0.00  0.00    +0.000 A 
ATOM     17  O   UNL     1       8.407   8.163  18.288  0.00  0.00    +0.000 OA
ATOM     18  N   UNL     1       6.873   7.288  16.852  0.00  0.00    +0.000 N 
ATOM     19  C   UNL     1       5.964   6.333  16.476  0.00  0.00    +0.000 A 
ATOM     20  O   UNL     1       5.248   6.515  15.493  0.00  0.00    +0.000 OA
ATOM     21  H   UNL     1       6.898   8.130  16.298  0.00  0.00    +0.000 HD
ENDBRANCH  12  13
ENDBRANCH   1  12
TORSDOF 5
ENDMDL
MODEL 9
REMARK VINA RESULT:      -6.9      3.823      6.199
REMARK  Name = 
REMARK  6 active torsions:
REMARK  status: ('A' for Active; 'I' for Inactive)
REMARK    1  A    between atoms: C_1  and  O_2
REMARK    2  A    between atoms: O_2  and  C_3
REMARK    3  A    between atoms: C_6  and  C_7
REMARK    4  A    between atoms: C_7  and  O_9
REMARK    5  A    between atoms: O_9  and  C_10
REMARK    6  A    between atoms: C_10  and  N_11
REMARK                            x       y       z     vdW  Elec       q    Type
REMARK                         _______ _______ _______ _____ _____    ______ ____
ROOT
ATOM      1  O   UNL     1       4.551   3.497  17.147  0.00  0.00    +0.000 OA
ENDROOT
BRANCH   1   2
ATOM      2  C   UNL     1       5.452   4.076  16.327  0.00  0.00    +0.000 C 
ATOM      3  O   UNL     1       5.591   3.837  15.138  0.00  0.00    +0.000 OA
BRANCH   2   7
ATOM      4  C   UNL     1       7.860   7.018  18.331  0.00  0.00    +0.000 A 
ATOM      5  C   UNL     1       7.251   7.292  17.106  0.00  0.00    +0.000 A 
ATOM      6  C   UNL     1       6.462   6.328  16.475  0.00  0.00    +0.000 A 
ATOM      7  C   UNL     1       6.291   5.064  17.055  0.00  0.00    +0.000 A 
ATOM      8  C   UNL     1       6.914   4.783  18.278  0.00  0.00    +0.000 A 
ATOM      9  C   UNL     1       7.697   5.758  18.912  0.00  0.00    +0.000 A 
BRANCH   4  11
ATOM     10  C   UNL     1       8.464   9.299  18.210  0.00  0.00    +0.000 C 
ATOM     11  O   UNL     1       8.619   8.032  18.842  0.00  0.00    +0.000 OA
ENDBRANCH   4  11
ENDBRANCH   2   7
ENDBRANCH   1   2
BRANCH   1  12
ATOM     12  C   UNL     1       3.372   4.267  17.400  0.00  0.00    +0.000 C 
BRANCH  12  13
ATOM     13  N   UNL     1       2.808   3.849  18.675  0.00  0.00    +0.000 N 
ATOM     14  C   UNL     1       2.993   4.636  19.793  0.00  0.00    +0.000 A 
ATOM     15  C   UNL     1       2.531   4.273  20.992  0.00  0.00    +0.000 A 
ATOM     16  C   UNL     1       1.798   3.003  21.117  0.00  0.00    +0.000 A 
ATOM     17  O   UNL     1       1.408   2.601  22.204  0.00  0.00    +0.000 OA
ATOM     18  N   UNL     1       1.596   2.320  19.953  0.00  0.00    +0.000 N 
ATOM     19  C   UNL     1       2.087   2.665  18.720  0.00  0.00    +0.000 A 
ATOM     20  O   UNL     1       1.889   1.935  17.750  0.00  0.00    +0.000 OA
ATOM     21  H   UNL     1       1.097   1.446  20.011  0.00  0.00    +0.000 HD
ENDBRANCH  12  13
ENDBRANCH   1  12
TORSDOF 5
ENDMDL
