MODEL 1
REMARK VINA RESULT:      -5.1      0.000      0.000
REMARK  Name = 
REMARK  10 active torsions:
REMARK  status: ('A' for Active; 'I' for Inactive)
REMARK    1  A    between atoms: C_2  and  C_3
REMARK    2  A    between atoms: C_3  and  O_5
REMARK    3  A    between atoms: O_5  and  C_6
REMARK    4  A    between atoms: C_6  and  C_7
REMARK    5  A    between atoms: C_7  and  C_8
REMARK    6  A    between atoms: C_7  and  C_10
REMARK    7  A    between atoms: C_8  and  C_9
REMARK    8  A    between atoms: C_10  and  C_11
REMARK    9  A    between atoms: C_11  and  C_12
REMARK   10  A    between atoms: C_12  and  C_13
REMARK                            x       y       z     vdW  Elec       q    Type
REMARK                         _______ _______ _______ _____ _____    ______ ____
ROOT
ATOM      1  C   UNL     1       3.744   3.874  17.808  0.00  0.00    +0.000 C 
ENDROOT
BRANCH   1   2
ATOM      2  C   UNL     1       4.462   3.792  19.178  0.00  0.00    +0.000 C 
ATOM      3  C   UNL     1       4.567   2.387  19.756  0.00  0.00    +0.000 C 
ENDBRANCH   1   2
BRANCH   1   4
ATOM      4  C   UNL     1       4.608   4.637  16.774  0.00  0.00    +0.000 C 
BRANCH   4   5
ATOM      5  O   UNL     1       5.868   4.000  16.508  0.00  0.00    +0.000 OA
BRANCH   5   6
ATOM      6  C   UNL     1       6.956   4.804  16.480  0.00  0.00    +0.000 C 
ATOM      7  O   UNL     1       7.292   5.546  15.570  0.00  0.00    +0.000 OA
BRANCH   6   9
ATOM      8  C   UNL     1       7.687   5.722  18.631  0.00  0.00    +0.000 C 
ATOM      9  C   UNL     1       7.644   4.685  17.785  0.00  0.00    +0.000 C 
ENDBRANCH   6   9
ENDBRANCH   5   6
ENDBRANCH   4   5
ENDBRANCH   1   4
BRANCH   1  10
ATOM     10  C   UNL     1       2.337   4.501  18.025  0.00  0.00    +0.000 C 
BRANCH  10  11
ATOM     11  C   UNL     1       1.324   3.565  18.689  0.00  0.00    +0.000 C 
BRANCH  11  12
ATOM     12  C   UNL     1       0.909   4.001  20.091  0.00  0.00    +0.000 C 
ATOM     13  C   UNL     1       1.257   2.906  21.093  0.00  0.00    +0.000 C 
ENDBRANCH  11  12
ENDBRANCH  10  11
ENDBRANCH   1  10
TORSDOF 8
ENDMDL
MODEL 2
REMARK VINA RESULT:      -5.1      2.088      2.891
REMARK  Name = 
REMARK  10 active torsions:
REMARK  status: ('A' for Active; 'I' for Inactive)
REMARK    1  A    between atoms: C_2  and  C_3
REMARK    2  A    between atoms: C_3  and  O_5
REMARK    3  A    between atoms: O_5  and  C_6
REMARK    4  A    between atoms: C_6  and  C_7
REMARK    5  A    between atoms: C_7  and  C_8
REMARK    6  A    between atoms: C_7  and  C_10
REMARK    7  A    between atoms: C_8  and  C_9
REMARK    8  A    between atoms: C_10  and  C_11
REMARK    9  A    between atoms: C_11  and  C_12
REMARK   10  A    between atoms: C_12  and  C_13
REMARK                            x       y       z     vdW  Elec       q    Type
REMARK                         _______ _______ _______ _____ _____    ______ ____
ROOT
ATOM      1  C   UNL     1       3.350   5.712  18.553  0.00  0.00    +0.000 C 
ENDROOT
BRANCH   1   2
ATOM      2  C   UNL     1       3.693   6.991  17.750  0.00  0.00    +0.000 C 
ATOM      3  C   UNL     1       2.666   8.109  17.868  0.00  0.00    +0.000 C 
ENDBRANCH   1   2
BRANCH   1   4
ATOM      4  C   UNL     1       4.545   5.270  19.432  0.00  0.00    +0.000 C 
BRANCH   4   5
ATOM      5  O   UNL     1       5.697   4.878  18.666  0.00  0.00    +0.000 OA
BRANCH   5   6
ATOM      6  C   UNL     1       6.863   5.493  18.974  0.00  0.00    +0.000 C 
ATOM      7  O   UNL     1       7.430   5.483  20.055  0.00  0.00    +0.000 OA
BRANCH   6   9
ATOM      8  C   UNL     1       7.609   7.448  17.700  0.00  0.00    +0.000 C 
ATOM      9  C   UNL     1       7.380   6.130  17.742  0.00  0.00    +0.000 C 
ENDBRANCH   6   9
ENDBRANCH   5   6
ENDBRANCH   4   5
ENDBRANCH   1   4
BRANCH   1  10
ATOM     10  C   UNL     1       2.874   4.616  17.556  0.00  0.00    +0.000 C 
BRANCH  10  11
ATOM     11  C   UNL     1       1.489   4.041  17.863  0.00  0.00    +0.000 C 
BRANCH  11  12
ATOM     12  C   UNL     1       1.519   2.813  18.769  0.00  0.00    +0.000 C 
ATOM     13  C   UNL     1       0.988   3.181  20.150  0.00  0.00    +0.000 C 
ENDBRANCH  11  12
ENDBRANCH  10  11
ENDBRANCH   1  10
TORSDOF 8
ENDMDL
MODEL 3
REMARK VINA RESULT:      -5.1      1.685      2.487
REMARK  Name = 
REMARK  10 active torsions:
REMARK  status: ('A' for Active; 'I' for Inactive)
REMARK    1  A    between atoms: C_2  and  C_3
REMARK    2  A    between atoms: C_3  and  O_5
REMARK    3  A    between atoms: O_5  and  C_6
REMARK    4  A    between atoms: C_6  and  C_7
REMARK    5  A    between atoms: C_7  and  C_8
REMARK    6  A    between atoms: C_7  and  C_10
REMARK    7  A    between atoms: C_8  and  C_9
REMARK    8  A    between atoms: C_10  and  C_11
REMARK    9  A    between atoms: C_11  and  C_12
REMARK   10  A    between atoms: C_12  and  C_13
REMARK                            x       y       z     vdW  Elec       q    Type
REMARK                         _______ _______ _______ _____ _____    ______ ____
ROOT
ATOM      1  C   UNL     1       3.869   5.884  18.023  0.00  0.00    +0.000 C 
ENDROOT
BRANCH   1   2
ATOM      2  C   UNL     1       2.715   6.802  18.494  0.00  0.00    +0.000 C 
ATOM      3  C   UNL     1       2.677   8.168  17.820  0.00  0.00    +0.000 C 
ENDBRANCH   1   2
BRANCH   1   4
ATOM      4  C   UNL     1       4.703   6.565  16.909  0.00  0.00    +0.000 C 
BRANCH   4   5
ATOM      5  O   UNL     1       6.048   6.866  17.313  0.00  0.00    +0.000 OA
BRANCH   5   6
ATOM      6  C   UNL     1       7.014   6.030  16.865  0.00  0.00    +0.000 C 
ATOM      7  O   UNL     1       7.467   5.978  15.732  0.00  0.00    +0.000 OA
BRANCH   6   9
ATOM      8  C   UNL     1       7.714   5.796  19.202  0.00  0.00    +0.000 C 
ATOM      9  C   UNL     1       7.487   5.224  18.013  0.00  0.00    +0.000 C 
ENDBRANCH   6   9
ENDBRANCH   5   6
ENDBRANCH   4   5
ENDBRANCH   1   4
BRANCH   1  10
ATOM     10  C   UNL     1       3.267   4.514  17.596  0.00  0.00    +0.000 C 
BRANCH  10  11
ATOM     11  C   UNL     1       1.745   4.424  17.729  0.00  0.00    +0.000 C 
BRANCH  11  12
ATOM     12  C   UNL     1       1.269   3.260  18.595  0.00  0.00    +0.000 C 
ATOM     13  C   UNL     1       1.001   3.751  20.013  0.00  0.00    +0.000 C 
ENDBRANCH  11  12
ENDBRANCH  10  11
ENDBRANCH   1  10
TORSDOF 8
ENDMDL
MODEL 4
REMARK VINA RESULT:      -5.1      1.833      2.534
REMARK  Name = 
REMARK  10 active torsions:
REMARK  status: ('A' for Active; 'I' for Inactive)
REMARK    1  A    between atoms: C_2  and  C_3
REMARK    2  A    between atoms: C_3  and  O_5
REMARK    3  A    between atoms: O_5  and  C_6
REMARK    4  A    between atoms: C_6  and  C_7
REMARK    5  A    between atoms: C_7  and  C_8
REMARK    6  A    between atoms: C_7  and  C_10
REMARK    7  A    between atoms: C_8  and  C_9
REMARK    8  A    between atoms: C_10  and  C_11
REMARK    9  A    between atoms: C_11  and  C_12
REMARK   10  A    between atoms: C_12  and  C_13
REMARK                            x       y       z     vdW  Elec       q    Type
REMARK                         _______ _______ _______ _____ _____    ______ ____
ROOT
ATOM      1  C   UNL     1       3.859   5.072  17.712  0.00  0.00    +0.000 C 
ENDROOT
BRANCH   1   2
ATOM      2  C   UNL     1       4.396   3.871  16.897  0.00  0.00    +0.000 C 
ATOM      3  C   UNL     1       5.149   4.251  15.629  0.00  0.00    +0.000 C 
ENDBRANCH   1   2
BRANCH   1   4
ATOM      4  C   UNL     1       4.669   5.264  19.018  0.00  0.00    +0.000 C 
BRANCH   4   5
ATOM      5  O   UNL     1       5.933   4.582  19.006  0.00  0.00    +0.000 OA
BRANCH   5   6
ATOM      6  C   UNL     1       7.031   5.343  19.222  0.00  0.00    +0.000 C 
ATOM      7  O   UNL     1       7.603   5.513  20.287  0.00  0.00    +0.000 OA
BRANCH   6   9
ATOM      8  C   UNL     1       7.515   7.208  17.708  0.00  0.00    +0.000 C 
ATOM      9  C   UNL     1       7.472   5.886  17.918  0.00  0.00    +0.000 C 
ENDBRANCH   6   9
ENDBRANCH   5   6
ENDBRANCH   4   5
ENDBRANCH   1   4
BRANCH   1  10
ATOM     10  C   UNL     1       2.335   4.865  17.952  0.00  0.00    +0.000 C 
BRANCH  10  11
ATOM     11  C   UNL     1       1.936   4.764  19.426  0.00  0.00    +0.000 C 
BRANCH  11  12
ATOM     12  C   UNL     1       1.592   3.347  19.877  0.00  0.00    +0.000 C 
ATOM     13  C   UNL     1       0.878   2.609  18.750  0.00  0.00    +0.000 C 
ENDBRANCH  11  12
ENDBRANCH  10  11
ENDBRANCH   1  10
TORSDOF 8
ENDMDL
MODEL 5
REMARK VINA RESULT:      -5.1      1.530      1.871
REMARK  Name = 
REMARK  10 active torsions:
REMARK  status: ('A' for Active; 'I' for Inactive)
REMARK    1  A    between atoms: C_2  and  C_3
REMARK    2  A    between atoms: C_3  and  O_5
REMARK    3  A    between atoms: O_5  and  C_6
REMARK    4  A    between atoms: C_6  and  C_7
REMARK    5  A    between atoms: C_7  and  C_8
REMARK    6  A    between atoms: C_7  and  C_10
REMARK    7  A    between atoms: C_8  and  C_9
REMARK    8  A    between atoms: C_10  and  C_11
REMARK    9  A    between atoms: C_11  and  C_12
REMARK   10  A    between atoms: C_12  and  C_13
REMARK                            x       y       z     vdW  Elec       q    Type
REMARK                         _______ _______ _______ _____ _____    ______ ____
ROOT
ATOM      1  C   UNL     1       3.855   4.619  18.661  0.00  0.00    +0.000 C 
ENDROOT
BRANCH   1   2
ATOM      2  C   UNL     1       4.053   3.206  18.061  0.00  0.00    +0.000 C 
ATOM      3  C   UNL     1       2.792   2.584  17.474  0.00  0.00    +0.000 C 
ENDBRANCH   1   2
BRANCH   1   4
ATOM      4  C   UNL     1       5.185   5.413  18.663  0.00  0.00    +0.000 C 
BRANCH   4   5
ATOM      5  O   UNL     1       6.347   4.571  18.736  0.00  0.00    +0.000 OA
BRANCH   5   6
ATOM      6  C   UNL     1       7.441   4.992  18.059  0.00  0.00    +0.000 C 
ATOM      7  O   UNL     1       8.055   4.372  17.206  0.00  0.00    +0.000 OA
BRANCH   6   9
ATOM      8  C   UNL     1       7.695   7.386  17.600  0.00  0.00    +0.000 C 
ATOM      9  C   UNL     1       7.731   6.380  18.483  0.00  0.00    +0.000 C 
ENDBRANCH   6   9
ENDBRANCH   5   6
ENDBRANCH   4   5
ENDBRANCH   1   4
BRANCH   1  10
ATOM     10  C   UNL     1       3.219   4.472  20.074  0.00  0.00    +0.000 C 
BRANCH  10  11
ATOM     11  C   UNL     1       1.709   4.721  20.115  0.00  0.00    +0.000 C 
BRANCH  11  12
ATOM     12  C   UNL     1       0.898   3.518  20.589  0.00  0.00    +0.000 C 
ATOM     13  C   UNL     1       1.760   2.640  21.490  0.00  0.00    +0.000 C 
ENDBRANCH  11  12
ENDBRANCH  10  11
ENDBRANCH   1  10
TORSDOF 8
ENDMDL
MODEL 6
REMARK VINA RESULT:      -5.1      1.494      1.901
REMARK  Name = 
REMARK  10 active torsions:
REMARK  status: ('A' for Active; 'I' for Inactive)
REMARK    1  A    between atoms: C_2  and  C_3
REMARK    2  A    between atoms: C_3  and  O_5
REMARK    3  A    between atoms: O_5  and  C_6
REMARK    4  A    between atoms: C_6  and  C_7
REMARK    5  A    between atoms: C_7  and  C_8
REMARK    6  A    between atoms: C_7  and  C_10
REMARK    7  A    between atoms: C_8  and  C_9
REMARK    8  A    between atoms: C_10  and  C_11
REMARK    9  A    between atoms: C_11  and  C_12
REMARK   10  A    between atoms: C_12  and  C_13
REMARK                            x       y       z     vdW  Elec       q    Type
REMARK                         _______ _______ _______ _____ _____    ______ ____
ROOT
ATOM      1  C   UNL     1       4.334   4.084  17.920  0.00  0.00    +0.000 C 
ENDROOT
BRANCH   1   2
ATOM      2  C   UNL     1       3.819   2.676  18.306  0.00  0.00    +0.000 C 
ATOM      3  C   UNL     1       2.514   2.272  17.633  0.00  0.00    +0.000 C 
ENDBRANCH   1   2
BRANCH   1   4
ATOM      4  C   UNL     1       5.394   4.585  18.932  0.00  0.00    +0.000 C 
BRANCH   4   5
ATOM      5  O   UNL     1       6.720   4.111  18.645  0.00  0.00    +0.000 OA
BRANCH   5   6
ATOM      6  C   UNL     1       7.454   4.857  17.787  0.00  0.00    +0.000 C 
ATOM      7  O   UNL     1       7.910   4.498  16.712  0.00  0.00    +0.000 OA
BRANCH   6   9
ATOM      8  C   UNL     1       7.508   7.295  17.542  0.00  0.00    +0.000 C 
ATOM      9  C   UNL     1       7.556   6.224  18.344  0.00  0.00    +0.000 C 
ENDBRANCH   6   9
ENDBRANCH   5   6
ENDBRANCH   4   5
ENDBRANCH   1   4
BRANCH   1  10
ATOM     10  C   UNL     1       3.112   5.036  17.780  0.00  0.00    +0.000 C 
BRANCH  10  11
ATOM     11  C   UNL     1       2.763   5.808  19.055  0.00  0.00    +0.000 C 
BRANCH  11  12
ATOM     12  C   UNL     1       1.669   5.152  19.893  0.00  0.00    +0.000 C 
ATOM     13  C   UNL     1       2.289   4.494  21.121  0.00  0.00    +0.000 C 
ENDBRANCH  11  12
ENDBRANCH  10  11
ENDBRANCH   1  10
TORSDOF 8
ENDMDL
MODEL 7
REMARK VINA RESULT:      -5.0      1.492      2.301
REMARK  Name = 
REMARK  10 active torsions:
REMARK  status: ('A' for Active; 'I' for Inactive)
REMARK    1  A    between atoms: C_2  and  C_3
REMARK    2  A    between atoms: C_3  and  O_5
REMARK    3  A    between atoms: O_5  and  C_6
REMARK    4  A    between atoms: C_6  and  C_7
REMARK    5  A    between atoms: C_7  and  C_8
REMARK    6  A    between atoms: C_7  and  C_10
REMARK    7  A    between atoms: C_8  and  C_9
REMARK    8  A    between atoms: C_10  and  C_11
REMARK    9  A    between atoms: C_11  and  C_12
REMARK   10  A    between atoms: C_12  and  C_13
REMARK                            x       y       z     vdW  Elec       q    Type
REMARK                         _______ _______ _______ _____ _____    ______ ____
ROOT
ATOM      1  C   UNL     1       4.302   3.447  17.728  0.00  0.00    +0.000 C 
ENDROOT
BRANCH   1   2
ATOM      2  C   UNL     1       4.523   3.859  19.204  0.00  0.00    +0.000 C 
ATOM      3  C   UNL     1       4.252   5.329  19.500  0.00  0.00    +0.000 C 
ENDBRANCH   1   2
BRANCH   1   4
ATOM      4  C   UNL     1       4.793   4.554  16.763  0.00  0.00    +0.000 C 
BRANCH   4   5
ATOM      5  O   UNL     1       6.225   4.617  16.655  0.00  0.00    +0.000 OA
BRANCH   5   6
ATOM      6  C   UNL     1       6.731   4.740  15.406  0.00  0.00    +0.000 C 
ATOM      7  O   UNL     1       7.643   5.473  15.056  0.00  0.00    +0.000 OA
BRANCH   6   9
ATOM      8  C   UNL     1       6.189   3.809  13.205  0.00  0.00    +0.000 C 
ATOM      9  C   UNL     1       6.031   3.771  14.534  0.00  0.00    +0.000 C 
ENDBRANCH   6   9
ENDBRANCH   5   6
ENDBRANCH   4   5
ENDBRANCH   1   4
BRANCH   1  10
ATOM     10  C   UNL     1       2.802   3.079  17.538  0.00  0.00    +0.000 C 
BRANCH  10  11
ATOM     11  C   UNL     1       2.204   2.254  18.680  0.00  0.00    +0.000 C 
BRANCH  11  12
ATOM     12  C   UNL     1       0.849   2.763  19.164  0.00  0.00    +0.000 C 
ATOM     13  C   UNL     1       1.004   3.410  20.536  0.00  0.00    +0.000 C 
ENDBRANCH  11  12
ENDBRANCH  10  11
ENDBRANCH   1  10
TORSDOF 8
ENDMDL
MODEL 8
REMARK VINA RESULT:      -5.0      1.668      2.175
REMARK  Name = 
REMARK  10 active torsions:
REMARK  status: ('A' for Active; 'I' for Inactive)
REMARK    1  A    between atoms: C_2  and  C_3
REMARK    2  A    between atoms: C_3  and  O_5
REMARK    3  A    between atoms: O_5  and  C_6
REMARK    4  A    between atoms: C_6  and  C_7
REMARK    5  A    between atoms: C_7  and  C_8
REMARK    6  A    between atoms: C_7  and  C_10
REMARK    7  A    between atoms: C_8  and  C_9
REMARK    8  A    between atoms: C_10  and  C_11
REMARK    9  A    between atoms: C_11  and  C_12
REMARK   10  A    between atoms: C_12  and  C_13
REMARK                            x       y       z     vdW  Elec       q    Type
REMARK                         _______ _______ _______ _____ _____    ______ ____
ROOT
ATOM      1  C   UNL     1       3.651   5.506  18.681  0.00  0.00    +0.000 C 
ENDROOT
BRANCH   1   2
ATOM      2  C   UNL     1       2.956   4.668  17.580  0.00  0.00    +0.000 C 
ATOM      3  C   UNL     1       3.231   3.172  17.653  0.00  0.00    +0.000 C 
ENDBRANCH   1   2
BRANCH   1   4
ATOM      4  C   UNL     1       5.178   5.583  18.441  0.00  0.00    +0.000 C 
BRANCH   4   5
ATOM      5  O   UNL     1       5.526   6.259  17.221  0.00  0.00    +0.000 OA
BRANCH   5   6
ATOM      6  C   UNL     1       6.655   5.843  16.602  0.00  0.00    +0.000 C 
ATOM      7  O   UNL     1       7.640   6.518  16.348  0.00  0.00    +0.000 OA
BRANCH   6   9
ATOM      8  C   UNL     1       6.057   3.947  15.169  0.00  0.00    +0.000 C 
ATOM      9  C   UNL     1       6.523   4.392  16.342  0.00  0.00    +0.000 C 
ENDBRANCH   6   9
ENDBRANCH   5   6
ENDBRANCH   4   5
ENDBRANCH   1   4
BRANCH   1  10
ATOM     10  C   UNL     1       3.270   4.910  20.068  0.00  0.00    +0.000 C 
BRANCH  10  11
ATOM     11  C   UNL     1       1.810   5.129  20.470  0.00  0.00    +0.000 C 
BRANCH  11  12
ATOM     12  C   UNL     1       1.013   3.837  20.627  0.00  0.00    +0.000 C 
ATOM     13  C   UNL     1       1.792   2.857  21.497  0.00  0.00    +0.000 C 
ENDBRANCH  11  12
ENDBRANCH  10  11
ENDBRANCH   1  10
TORSDOF 8
ENDMDL
MODEL 9
REMARK VINA RESULT:      -4.9      1.425      2.543
REMARK  Name = 
REMARK  10 active torsions:
REMARK  status: ('A' for Active; 'I' for Inactive)
REMARK    1  A    between atoms: C_2  and  C_3
REMARK    2  A    between atoms: C_3  and  O_5
REMARK    3  A    between atoms: O_5  and  C_6
REMARK    4  A    between atoms: C_6  and  C_7
REMARK    5  A    between atoms: C_7  and  C_8
REMARK    6  A    between atoms: C_7  and  C_10
REMARK    7  A    between atoms: C_8  and  C_9
REMARK    8  A    between atoms: C_10  and  C_11
REMARK    9  A    between atoms: C_11  and  C_12
REMARK   10  A    between atoms: C_12  and  C_13
REMARK                            x       y       z     vdW  Elec       q    Type
REMARK                         _______ _______ _______ _____ _____    ______ ____
ROOT
ATOM      1  C   UNL     1       3.891   4.840  19.224  0.00  0.00    +0.000 C 
ENDROOT
BRANCH   1   2
ATOM      2  C   UNL     1       2.766   5.539  18.423  0.00  0.00    +0.000 C 
ATOM      3  C   UNL     1       1.828   4.590  17.688  0.00  0.00    +0.000 C 
ENDBRANCH   1   2
BRANCH   1   4
ATOM      4  C   UNL     1       5.287   5.321  18.758  0.00  0.00    +0.000 C 
BRANCH   4   5
ATOM      5  O   UNL     1       6.178   4.243  18.430  0.00  0.00    +0.000 OA
BRANCH   5   6
ATOM      6  C   UNL     1       6.999   4.439  17.372  0.00  0.00    +0.000 C 
ATOM      7  O   UNL     1       8.208   4.271  17.346  0.00  0.00    +0.000 OA
BRANCH   6   9
ATOM      8  C   UNL     1       5.966   3.981  15.198  0.00  0.00    +0.000 C 
ATOM      9  C   UNL     1       6.164   4.830  16.215  0.00  0.00    +0.000 C 
ENDBRANCH   6   9
ENDBRANCH   5   6
ENDBRANCH   4   5
ENDBRANCH   1   4
BRANCH   1  10
ATOM     10  C   UNL     1       3.696   3.300  19.110  0.00  0.00    +0.000 C 
BRANCH  10  11
ATOM     11  C   UNL     1       3.728   2.558  20.448  0.00  0.00    +0.000 C 
BRANCH  11  12
ATOM     12  C   UNL     1       2.671   3.034  21.442  0.00  0.00    +0.000 C 
ATOM     13  C   UNL     1       1.280   2.764  20.880  0.00  0.00    +0.000 C 
ENDBRANCH  11  12
ENDBRANCH  10  11
ENDBRANCH   1  10
TORSDOF 8
ENDMDL
