MODEL 1
REMARK VINA RESULT:      -7.9      0.000      0.000
REMARK  Name = 
REMARK  8 active torsions:
REMARK  status: ('A' for Active; 'I' for Inactive)
REMARK    1  A    between atoms: C_1  and  O_2
REMARK    2  A    between atoms: O_2  and  C_3
REMARK    3  A    between atoms: C_8  and  O_9
REMARK    4  A    between atoms: O_9  and  C_10
REMARK    5  A    between atoms: N_12  and  C_13
REMARK    6  A    between atoms: C_13  and  C_14
REMARK    7  A    between atoms: N_16  and  C_17
REMARK    8  A    between atoms: C_20  and  C_21
REMARK                            x       y       z     vdW  Elec       q    Type
REMARK                         _______ _______ _______ _____ _____    ______ ____
ROOT
ATOM      1  C   UNL     1       7.182   4.989  14.568  0.00  0.00    +0.000 A 
ATOM      2  C   UNL     1       7.106   5.572  15.840  0.00  0.00    +0.000 A 
ATOM      3  C   UNL     1       6.122   5.172  16.740  0.00  0.00    +0.000 A 
ATOM      4  C   UNL     1       5.191   4.194  16.370  0.00  0.00    +0.000 A 
ATOM      5  C   UNL     1       5.265   3.605  15.099  0.00  0.00    +0.000 A 
ATOM      6  C   UNL     1       6.268   3.982  14.196  0.00  0.00    +0.000 A 
ATOM      7  C   UNL     1       4.089   3.868  17.350  0.00  0.00    +0.000 C 
ATOM      8  N   UNL     1       4.565   3.691  18.746  0.00  0.00    +0.000 NA
ATOM      9  C   UNL     1       5.699   4.581  19.098  0.00  0.00    +0.000 C 
ATOM     10  C   UNL     1       5.999   5.735  18.126  0.00  0.00    +0.000 C 
ENDROOT
BRANCH   1  12
ATOM     11  C   UNL     1       7.953   5.804  12.470  0.00  0.00    +0.000 C 
ATOM     12  O   UNL     1       8.232   5.465  13.823  0.00  0.00    +0.000 OA
ENDBRANCH   1  12
BRANCH   6  13
ATOM     13  O   UNL     1       6.429   3.401  12.967  0.00  0.00    +0.000 OA
ATOM     14  C   UNL     1       5.289   3.252  12.132  0.00  0.00    +0.000 C 
ENDBRANCH   6  13
BRANCH   8  15
ATOM     15  C   UNL     1       3.452   3.912  19.703  0.00  0.00    +0.000 C 
BRANCH  15  16
ATOM     16  C   UNL     1       2.521   5.047  19.285  0.00  0.00    +0.000 C 
ATOM     17  O   UNL     1       1.565   4.806  18.550  0.00  0.00    +0.000 OA
ATOM     18  N   UNL     1       2.910   6.294  19.741  0.00  0.00    +0.000 N 
ATOM     19  H   UNL     1       3.806   6.326  20.221  0.00  0.00    +0.000 HD
BRANCH  18  20
ATOM     20  C   UNL     1       2.211   7.503  19.548  0.00  0.00    +0.000 A 
ATOM     21  C   UNL     1       1.489   8.123  20.570  0.00  0.00    +0.000 A 
ATOM     22  C   UNL     1       0.736   9.271  20.322  0.00  0.00    +0.000 A 
ATOM     23  C   UNL     1       0.698   9.827  19.044  0.00  0.00    +0.000 A 
ATOM     24  C   UNL     1      -0.194  10.997  18.758  0.00  0.00    +0.000 C 
ATOM     25  C   UNL     1       1.473   9.249  18.030  0.00  0.00    +0.000 A 
ATOM     26  C   UNL     1       2.235   8.101  18.283  0.00  0.00    +0.000 A 
ENDBRANCH  18  20
ENDBRANCH  15  16
ENDBRANCH   8  15
TORSDOF 5
ENDMDL
MODEL 2
REMARK VINA RESULT:      -7.5      4.637      7.410
REMARK  Name = 
REMARK  8 active torsions:
REMARK  status: ('A' for Active; 'I' for Inactive)
REMARK    1  A    between atoms: C_1  and  O_2
REMARK    2  A    between atoms: O_2  and  C_3
REMARK    3  A    between atoms: C_8  and  O_9
REMARK    4  A    between atoms: O_9  and  C_10
REMARK    5  A    between atoms: N_12  and  C_13
REMARK    6  A    between atoms: C_13  and  C_14
REMARK    7  A    between atoms: N_16  and  C_17
REMARK    8  A    between atoms: C_20  and  C_21
REMARK                            x       y       z     vdW  Elec       q    Type
REMARK                         _______ _______ _______ _____ _____    ______ ____
ROOT
ATOM      1  C   UNL     1       2.559   3.122  18.782  0.00  0.00    +0.000 A 
ATOM      2  C   UNL     1       3.412   3.266  17.680  0.00  0.00    +0.000 A 
ATOM      3  C   UNL     1       4.249   4.374  17.579  0.00  0.00    +0.000 A 
ATOM      4  C   UNL     1       4.228   5.360  18.572  0.00  0.00    +0.000 A 
ATOM      5  C   UNL     1       3.378   5.217  19.679  0.00  0.00    +0.000 A 
ATOM      6  C   UNL     1       2.551   4.093  19.803  0.00  0.00    +0.000 A 
ATOM      7  C   UNL     1       5.086   6.586  18.363  0.00  0.00    +0.000 C 
ATOM      8  N   UNL     1       6.465   6.278  17.906  0.00  0.00    +0.000 NA
ATOM      9  C   UNL     1       6.537   5.098  17.008  0.00  0.00    +0.000 C 
ATOM     10  C   UNL     1       5.205   4.580  16.440  0.00  0.00    +0.000 C 
ENDROOT
BRANCH   1  12
ATOM     11  C   UNL     1       0.419   2.084  18.713  0.00  0.00    +0.000 C 
ATOM     12  O   UNL     1       1.834   1.956  18.748  0.00  0.00    +0.000 OA
ENDBRANCH   1  12
BRANCH   6  13
ATOM     13  O   UNL     1       1.747   3.868  20.888  0.00  0.00    +0.000 OA
ATOM     14  C   UNL     1       2.200   2.977  21.897  0.00  0.00    +0.000 C 
ENDBRANCH   6  13
BRANCH   8  15
ATOM     15  C   UNL     1       7.057   7.454  17.221  0.00  0.00    +0.000 C 
BRANCH  15  16
ATOM     16  C   UNL     1       8.109   8.170  18.064  0.00  0.00    +0.000 C 
ATOM     17  O   UNL     1       8.737   7.539  18.913  0.00  0.00    +0.000 OA
ATOM     18  N   UNL     1       8.200   9.529  17.820  0.00  0.00    +0.000 N 
ATOM     19  H   UNL     1       7.505   9.908  17.181  0.00  0.00    +0.000 HD
BRANCH  18  20
ATOM     20  C   UNL     1       9.116  10.419  18.416  0.00  0.00    +0.000 A 
ATOM     21  C   UNL     1       9.129  10.674  19.789  0.00  0.00    +0.000 A 
ATOM     22  C   UNL     1       9.990  11.626  20.333  0.00  0.00    +0.000 A 
ATOM     23  C   UNL     1      10.864  12.339  19.513  0.00  0.00    +0.000 A 
ATOM     24  C   UNL     1      11.712  13.435  20.086  0.00  0.00    +0.000 C 
ATOM     25  C   UNL     1      10.903  12.041  18.145  0.00  0.00    +0.000 A 
ATOM     26  C   UNL     1      10.044  11.077  17.601  0.00  0.00    +0.000 A 
ENDBRANCH  18  20
ENDBRANCH  15  16
ENDBRANCH   8  15
TORSDOF 5
ENDMDL
MODEL 3
REMARK VINA RESULT:      -7.3      4.701      7.107
REMARK  Name = 
REMARK  8 active torsions:
REMARK  status: ('A' for Active; 'I' for Inactive)
REMARK    1  A    between atoms: C_1  and  O_2
REMARK    2  A    between atoms: O_2  and  C_3
REMARK    3  A    between atoms: C_8  and  O_9
REMARK    4  A    between atoms: O_9  and  C_10
REMARK    5  A    between atoms: N_12  and  C_13
REMARK    6  A    between atoms: C_13  and  C_14
REMARK    7  A    between atoms: N_16  and  C_17
REMARK    8  A    between atoms: C_20  and  C_21
REMARK                            x       y       z     vdW  Elec       q    Type
REMARK                         _______ _______ _______ _____ _____    ______ ____
ROOT
ATOM      1  C   UNL     1       2.488   3.635  17.811  0.00  0.00    +0.000 A 
ATOM      2  C   UNL     1       3.589   3.608  16.945  0.00  0.00    +0.000 A 
ATOM      3  C   UNL     1       4.507   4.655  16.942  0.00  0.00    +0.000 A 
ATOM      4  C   UNL     1       4.324   5.750  17.794  0.00  0.00    +0.000 A 
ATOM      5  C   UNL     1       3.224   5.779  18.666  0.00  0.00    +0.000 A 
ATOM      6  C   UNL     1       2.309   4.718  18.695  0.00  0.00    +0.000 A 
ATOM      7  C   UNL     1       5.297   6.899  17.681  0.00  0.00    +0.000 C 
ATOM      8  N   UNL     1       6.718   6.473  17.612  0.00  0.00    +0.000 NA
ATOM      9  C   UNL     1       6.914   5.194  16.884  0.00  0.00    +0.000 C 
ATOM     10  C   UNL     1       5.722   4.679  16.060  0.00  0.00    +0.000 C 
ENDROOT
BRANCH   1  12
ATOM     11  C   UNL     1       1.854   1.542  18.749  0.00  0.00    +0.000 C 
ATOM     12  O   UNL     1       1.706   2.510  17.718  0.00  0.00    +0.000 OA
ENDBRANCH   1  12
BRANCH   6  13
ATOM     13  O   UNL     1       1.253   4.661  19.564  0.00  0.00    +0.000 OA
ATOM     14  C   UNL     1       1.387   5.277  20.837  0.00  0.00    +0.000 C 
ENDBRANCH   6  13
BRANCH   8  15
ATOM     15  C   UNL     1       7.545   7.531  16.979  0.00  0.00    +0.000 C 
BRANCH  15  16
ATOM     16  C   UNL     1       8.286   8.397  17.993  0.00  0.00    +0.000 C 
ATOM     17  O   UNL     1       8.756   7.879  19.004  0.00  0.00    +0.000 OA
ATOM     18  N   UNL     1       8.289   9.747  17.688  0.00  0.00    +0.000 N 
ATOM     19  H   UNL     1       7.730  10.016  16.881  0.00  0.00    +0.000 HD
BRANCH  18  20
ATOM     20  C   UNL     1       8.940  10.762  18.420  0.00  0.00    +0.000 A 
ATOM     21  C   UNL     1       9.523  10.529  19.667  0.00  0.00    +0.000 A 
ATOM     22  C   UNL     1      10.080  11.574  20.403  0.00  0.00    +0.000 A 
ATOM     23  C   UNL     1      10.073  12.874  19.901  0.00  0.00    +0.000 A 
ATOM     24  C   UNL     1      10.578  14.010  20.740  0.00  0.00    +0.000 C 
ATOM     25  C   UNL     1       9.550  13.103  18.622  0.00  0.00    +0.000 A 
ATOM     26  C   UNL     1       8.998  12.051  17.879  0.00  0.00    +0.000 A 
ENDBRANCH  18  20
ENDBRANCH  15  16
ENDBRANCH   8  15
TORSDOF 5
ENDMDL
MODEL 4
REMARK VINA RESULT:      -7.3      1.307      2.614
REMARK  Name = 
REMARK  8 active torsions:
REMARK  status: ('A' for Active; 'I' for Inactive)
REMARK    1  A    between atoms: C_1  and  O_2
REMARK    2  A    between atoms: O_2  and  C_3
REMARK    3  A    between atoms: C_8  and  O_9
REMARK    4  A    between atoms: O_9  and  C_10
REMARK    5  A    between atoms: N_12  and  C_13
REMARK    6  A    between atoms: C_13  and  C_14
REMARK    7  A    between atoms: N_16  and  C_17
REMARK    8  A    between atoms: C_20  and  C_21
REMARK                            x       y       z     vdW  Elec       q    Type
REMARK                         _______ _______ _______ _____ _____    ______ ____
ROOT
ATOM      1  C   UNL     1       6.280   4.067  14.262  0.00  0.00    +0.000 A 
ATOM      2  C   UNL     1       5.146   3.554  14.904  0.00  0.00    +0.000 A 
ATOM      3  C   UNL     1       4.812   3.979  16.187  0.00  0.00    +0.000 A 
ATOM      4  C   UNL     1       5.619   4.912  16.848  0.00  0.00    +0.000 A 
ATOM      5  C   UNL     1       6.754   5.431  16.207  0.00  0.00    +0.000 A 
ATOM      6  C   UNL     1       7.084   5.029  14.906  0.00  0.00    +0.000 A 
ATOM      7  C   UNL     1       5.262   5.266  18.273  0.00  0.00    +0.000 C 
ATOM      8  N   UNL     1       3.815   5.531  18.477  0.00  0.00    +0.000 NA
ATOM      9  C   UNL     1       2.937   4.690  17.625  0.00  0.00    +0.000 C 
ATOM     10  C   UNL     1       3.598   3.491  16.924  0.00  0.00    +0.000 C 
ENDROOT
BRANCH   1  12
ATOM     11  C   UNL     1       5.258   3.252  12.273  0.00  0.00    +0.000 C 
ATOM     12  O   UNL     1       6.443   3.576  12.990  0.00  0.00    +0.000 OA
ENDBRANCH   1  12
BRANCH   6  13
ATOM     13  O   UNL     1       8.142   5.544  14.206  0.00  0.00    +0.000 OA
ATOM     14  C   UNL     1       8.025   5.677  12.797  0.00  0.00    +0.000 C 
ENDBRANCH   6  13
BRANCH   8  15
ATOM     15  C   UNL     1       3.450   5.337  19.902  0.00  0.00    +0.000 C 
BRANCH  15  16
ATOM     16  C   UNL     1       2.212   6.130  20.315  0.00  0.00    +0.000 C 
ATOM     17  O   UNL     1       1.185   5.530  20.629  0.00  0.00    +0.000 OA
ATOM     18  N   UNL     1       2.362   7.502  20.219  0.00  0.00    +0.000 N 
ATOM     19  H   UNL     1       3.236   7.820  19.807  0.00  0.00    +0.000 HD
BRANCH  18  20
ATOM     20  C   UNL     1       1.402   8.468  20.583  0.00  0.00    +0.000 A 
ATOM     21  C   UNL     1       0.837   9.348  19.659  0.00  0.00    +0.000 A 
ATOM     22  C   UNL     1      -0.043  10.350  20.068  0.00  0.00    +0.000 A 
ATOM     23  C   UNL     1      -0.382  10.486  21.413  0.00  0.00    +0.000 A 
ATOM     24  C   UNL     1      -1.244  11.628  21.862  0.00  0.00    +0.000 C 
ATOM     25  C   UNL     1       0.130   9.565  22.337  0.00  0.00    +0.000 A 
ATOM     26  C   UNL     1       1.006   8.553  21.923  0.00  0.00    +0.000 A 
ENDBRANCH  18  20
ENDBRANCH  15  16
ENDBRANCH   8  15
TORSDOF 5
ENDMDL
MODEL 5
REMARK VINA RESULT:      -7.3      3.743      5.926
REMARK  Name = 
REMARK  8 active torsions:
REMARK  status: ('A' for Active; 'I' for Inactive)
REMARK    1  A    between atoms: C_1  and  O_2
REMARK    2  A    between atoms: O_2  and  C_3
REMARK    3  A    between atoms: C_8  and  O_9
REMARK    4  A    between atoms: O_9  and  C_10
REMARK    5  A    between atoms: N_12  and  C_13
REMARK    6  A    between atoms: C_13  and  C_14
REMARK    7  A    between atoms: N_16  and  C_17
REMARK    8  A    between atoms: C_20  and  C_21
REMARK                            x       y       z     vdW  Elec       q    Type
REMARK                         _______ _______ _______ _____ _____    ______ ____
ROOT
ATOM      1  C   UNL     1       4.483   5.312  18.021  0.00  0.00    +0.000 A 
ATOM      2  C   UNL     1       3.746   6.477  17.771  0.00  0.00    +0.000 A 
ATOM      3  C   UNL     1       2.765   6.895  18.666  0.00  0.00    +0.000 A 
ATOM      4  C   UNL     1       2.497   6.141  19.814  0.00  0.00    +0.000 A 
ATOM      5  C   UNL     1       3.235   4.975  20.071  0.00  0.00    +0.000 A 
ATOM      6  C   UNL     1       4.243   4.561  19.189  0.00  0.00    +0.000 A 
ATOM      7  C   UNL     1       1.359   6.589  20.700  0.00  0.00    +0.000 C 
ATOM      8  N   UNL     1       1.354   8.048  20.973  0.00  0.00    +0.000 NA
ATOM      9  C   UNL     1       1.835   8.862  19.829  0.00  0.00    +0.000 C 
ATOM     10  C   UNL     1       1.956   8.145  18.473  0.00  0.00    +0.000 C 
ENDROOT
BRANCH   1  12
ATOM     11  C   UNL     1       5.042   4.259  15.962  0.00  0.00    +0.000 C 
ATOM     12  O   UNL     1       5.437   5.066  17.065  0.00  0.00    +0.000 OA
ENDBRANCH   1  12
BRANCH   6  13
ATOM     13  O   UNL     1       5.037   3.468  19.416  0.00  0.00    +0.000 OA
ATOM     14  C   UNL     1       4.457   2.322  20.022  0.00  0.00    +0.000 C 
ENDBRANCH   6  13
BRANCH   8  15
ATOM     15  C   UNL     1      -0.007   8.498  21.357  0.00  0.00    +0.000 C 
BRANCH  15  16
ATOM     16  C   UNL     1      -0.002   9.782  22.182  0.00  0.00    +0.000 C 
ATOM     17  O   UNL     1       0.575   9.802  23.269  0.00  0.00    +0.000 OA
ATOM     18  N   UNL     1      -0.740  10.813  21.628  0.00  0.00    +0.000 N 
ATOM     19  H   UNL     1      -1.267  10.574  20.791  0.00  0.00    +0.000 HD
BRANCH  18  20
ATOM     20  C   UNL     1      -0.865  12.117  22.149  0.00  0.00    +0.000 A 
ATOM     21  C   UNL     1      -0.007  13.155  21.782  0.00  0.00    +0.000 A 
ATOM     22  C   UNL     1      -0.102  14.410  22.382  0.00  0.00    +0.000 A 
ATOM     23  C   UNL     1      -1.066  14.654  23.359  0.00  0.00    +0.000 A 
ATOM     24  C   UNL     1      -1.097  15.970  24.077  0.00  0.00    +0.000 C 
ATOM     25  C   UNL     1      -1.973  13.637  23.685  0.00  0.00    +0.000 A 
ATOM     26  C   UNL     1      -1.882  12.380  23.073  0.00  0.00    +0.000 A 
ENDBRANCH  18  20
ENDBRANCH  15  16
ENDBRANCH   8  15
TORSDOF 5
ENDMDL
MODEL 6
REMARK VINA RESULT:      -7.1      3.475      6.752
REMARK  Name = 
REMARK  8 active torsions:
REMARK  status: ('A' for Active; 'I' for Inactive)
REMARK    1  A    between atoms: C_1  and  O_2
REMARK    2  A    between atoms: O_2  and  C_3
REMARK    3  A    between atoms: C_8  and  O_9
REMARK    4  A    between atoms: O_9  and  C_10
REMARK    5  A    between atoms: N_12  and  C_13
REMARK    6  A    between atoms: C_13  and  C_14
REMARK    7  A    between atoms: N_16  and  C_17
REMARK    8  A    between atoms: C_20  and  C_21
REMARK                            x       y       z     vdW  Elec       q    Type
REMARK                         _______ _______ _______ _____ _____    ______ ____
ROOT
ATOM      1  C   UNL     1       2.582   4.641  19.962  0.00  0.00    +0.000 A 
ATOM      2  C   UNL     1       2.184   5.701  20.787  0.00  0.00    +0.000 A 
ATOM      3  C   UNL     1       1.990   6.972  20.254  0.00  0.00    +0.000 A 
ATOM      4  C   UNL     1       2.208   7.202  18.890  0.00  0.00    +0.000 A 
ATOM      5  C   UNL     1       2.604   6.142  18.060  0.00  0.00    +0.000 A 
ATOM      6  C   UNL     1       2.777   4.853  18.582  0.00  0.00    +0.000 A 
ATOM      7  C   UNL     1       2.075   8.619  18.386  0.00  0.00    +0.000 C 
ATOM      8  N   UNL     1       0.864   9.318  18.885  0.00  0.00    +0.000 NA
ATOM      9  C   UNL     1       0.490   8.931  20.269  0.00  0.00    +0.000 C 
ATOM     10  C   UNL     1       1.539   8.146  21.074  0.00  0.00    +0.000 C 
ENDROOT
BRANCH   1  12
ATOM     11  C   UNL     1       1.481   2.893  21.143  0.00  0.00    +0.000 C 
ATOM     12  O   UNL     1       2.687   3.449  20.635  0.00  0.00    +0.000 OA
ENDBRANCH   1  12
BRANCH   6  13
ATOM     13  O   UNL     1       3.101   3.768  17.812  0.00  0.00    +0.000 OA
ATOM     14  C   UNL     1       4.337   3.778  17.112  0.00  0.00    +0.000 C 
ENDBRANCH   6  13
BRANCH   8  15
ATOM     15  C   UNL     1       1.053  10.789  18.821  0.00  0.00    +0.000 C 
BRANCH  15  16
ATOM     16  C   UNL     1      -0.264  11.560  18.783  0.00  0.00    +0.000 C 
ATOM     17  O   UNL     1      -0.305  12.710  19.215  0.00  0.00    +0.000 OA
ATOM     18  N   UNL     1      -1.337  10.823  18.312  0.00  0.00    +0.000 N 
ATOM     19  H   UNL     1      -1.148   9.840  18.129  0.00  0.00    +0.000 HD
BRANCH  18  20
ATOM     20  C   UNL     1      -2.651  11.299  18.124  0.00  0.00    +0.000 A 
ATOM     21  C   UNL     1      -3.399  11.861  19.160  0.00  0.00    +0.000 A 
ATOM     22  C   UNL     1      -4.727  12.239  18.962  0.00  0.00    +0.000 A 
ATOM     23  C   UNL     1      -5.331  12.070  17.717  0.00  0.00    +0.000 A 
ATOM     24  C   UNL     1      -6.786  12.381  17.536  0.00  0.00    +0.000 C 
ATOM     25  C   UNL     1      -4.565  11.569  16.655  0.00  0.00    +0.000 A 
ATOM     26  C   UNL     1      -3.229  11.198  16.854  0.00  0.00    +0.000 A 
ENDBRANCH  18  20
ENDBRANCH  15  16
ENDBRANCH   8  15
TORSDOF 5
ENDMDL
MODEL 7
REMARK VINA RESULT:      -7.1      3.953      6.140
REMARK  Name = 
REMARK  8 active torsions:
REMARK  status: ('A' for Active; 'I' for Inactive)
REMARK    1  A    between atoms: C_1  and  O_2
REMARK    2  A    between atoms: O_2  and  C_3
REMARK    3  A    between atoms: C_8  and  O_9
REMARK    4  A    between atoms: O_9  and  C_10
REMARK    5  A    between atoms: N_12  and  C_13
REMARK    6  A    between atoms: C_13  and  C_14
REMARK    7  A    between atoms: N_16  and  C_17
REMARK    8  A    between atoms: C_20  and  C_21
REMARK                            x       y       z     vdW  Elec       q    Type
REMARK                         _______ _______ _______ _____ _____    ______ ____
ROOT
ATOM      1  C   UNL     1       4.300   5.776  18.074  0.00  0.00    +0.000 A 
ATOM      2  C   UNL     1       3.510   6.912  17.856  0.00  0.00    +0.000 A 
ATOM      3  C   UNL     1       2.522   7.267  18.770  0.00  0.00    +0.000 A 
ATOM      4  C   UNL     1       2.301   6.479  19.905  0.00  0.00    +0.000 A 
ATOM      5  C   UNL     1       3.093   5.342  20.129  0.00  0.00    +0.000 A 
ATOM      6  C   UNL     1       4.108   4.991  19.229  0.00  0.00    +0.000 A 
ATOM      7  C   UNL     1       1.154   6.857  20.811  0.00  0.00    +0.000 C 
ATOM      8  N   UNL     1       1.087   8.309  21.115  0.00  0.00    +0.000 NA
ATOM      9  C   UNL     1       1.519   9.167  19.983  0.00  0.00    +0.000 C 
ATOM     10  C   UNL     1       1.657   8.484  18.612  0.00  0.00    +0.000 C 
ENDROOT
BRANCH   1  12
ATOM     11  C   UNL     1       5.138   6.394  15.934  0.00  0.00    +0.000 C 
ATOM     12  O   UNL     1       5.254   5.592  17.103  0.00  0.00    +0.000 OA
ENDBRANCH   1  12
BRANCH   6  13
ATOM     13  O   UNL     1       4.951   3.931  19.424  0.00  0.00    +0.000 OA
ATOM     14  C   UNL     1       4.411   2.618  19.391  0.00  0.00    +0.000 C 
ENDBRANCH   6  13
BRANCH   8  15
ATOM     15  C   UNL     1      -0.288   8.690  21.523  0.00  0.00    +0.000 C 
BRANCH  15  16
ATOM     16  C   UNL     1      -0.326   9.926  22.417  0.00  0.00    +0.000 C 
ATOM     17  O   UNL     1       0.279   9.918  23.488  0.00  0.00    +0.000 OA
ATOM     18  N   UNL     1      -1.131  10.945  21.940  0.00  0.00    +0.000 N 
ATOM     19  H   UNL     1      -1.668  10.724  21.104  0.00  0.00    +0.000 HD
BRANCH  18  20
ATOM     20  C   UNL     1      -1.308  12.211  22.534  0.00  0.00    +0.000 A 
ATOM     21  C   UNL     1      -2.405  12.512  23.343  0.00  0.00    +0.000 A 
ATOM     22  C   UNL     1      -2.595  13.800  23.843  0.00  0.00    +0.000 A 
ATOM     23  C   UNL     1      -1.684  14.813  23.550  0.00  0.00    +0.000 A 
ATOM     24  C   UNL     1      -1.946  16.218  24.001  0.00  0.00    +0.000 C 
ATOM     25  C   UNL     1      -0.545  14.501  22.794  0.00  0.00    +0.000 A 
ATOM     26  C   UNL     1      -0.351  13.205  22.301  0.00  0.00    +0.000 A 
ENDBRANCH  18  20
ENDBRANCH  15  16
ENDBRANCH   8  15
TORSDOF 5
ENDMDL
MODEL 8
REMARK VINA RESULT:      -7.1      4.006      7.069
REMARK  Name = 
REMARK  8 active torsions:
REMARK  status: ('A' for Active; 'I' for Inactive)
REMARK    1  A    between atoms: C_1  and  O_2
REMARK    2  A    between atoms: O_2  and  C_3
REMARK    3  A    between atoms: C_8  and  O_9
REMARK    4  A    between atoms: O_9  and  C_10
REMARK    5  A    between atoms: N_12  and  C_13
REMARK    6  A    between atoms: C_13  and  C_14
REMARK    7  A    between atoms: N_16  and  C_17
REMARK    8  A    between atoms: C_20  and  C_21
REMARK                            x       y       z     vdW  Elec       q    Type
REMARK                         _______ _______ _______ _____ _____    ______ ____
ROOT
ATOM      1  C   UNL     1       2.568   5.070  20.013  0.00  0.00    +0.000 A 
ATOM      2  C   UNL     1       2.069   6.084  20.841  0.00  0.00    +0.000 A 
ATOM      3  C   UNL     1       1.834   7.357  20.330  0.00  0.00    +0.000 A 
ATOM      4  C   UNL     1       2.111   7.635  18.986  0.00  0.00    +0.000 A 
ATOM      5  C   UNL     1       2.607   6.622  18.153  0.00  0.00    +0.000 A 
ATOM      6  C   UNL     1       2.823   5.330  18.651  0.00  0.00    +0.000 A 
ATOM      7  C   UNL     1       1.927   9.057  18.510  0.00  0.00    +0.000 C 
ATOM      8  N   UNL     1       0.654   9.676  18.960  0.00  0.00    +0.000 NA
ATOM      9  C   UNL     1       0.229   9.232  20.312  0.00  0.00    +0.000 C 
ATOM     10  C   UNL     1       1.276   8.482  21.153  0.00  0.00    +0.000 C 
ENDROOT
BRANCH   1  12
ATOM     11  C   UNL     1       1.503   3.176  20.982  0.00  0.00    +0.000 C 
ATOM     12  O   UNL     1       2.703   3.867  20.661  0.00  0.00    +0.000 OA
ENDBRANCH   1  12
BRANCH   6  13
ATOM     13  O   UNL     1       3.247   4.286  17.874  0.00  0.00    +0.000 OA
ATOM     14  C   UNL     1       2.272   3.439  17.284  0.00  0.00    +0.000 C 
ENDBRANCH   6  13
BRANCH   8  15
ATOM     15  C   UNL     1       0.765  11.156  18.942  0.00  0.00    +0.000 C 
BRANCH  15  16
ATOM     16  C   UNL     1      -0.549  11.850  18.594  0.00  0.00    +0.000 C 
ATOM     17  O   UNL     1      -0.567  13.069  18.435  0.00  0.00    +0.000 OA
ATOM     18  N   UNL     1      -1.644  11.004  18.563  0.00  0.00    +0.000 N 
ATOM     19  H   UNL     1      -1.467  10.046  18.858  0.00  0.00    +0.000 HD
BRANCH  18  20
ATOM     20  C   UNL     1      -2.963  11.366  18.221  0.00  0.00    +0.000 A 
ATOM     21  C   UNL     1      -3.484  11.175  16.940  0.00  0.00    +0.000 A 
ATOM     22  C   UNL     1      -4.762  11.626  16.612  0.00  0.00    +0.000 A 
ATOM     23  C   UNL     1      -5.550  12.271  17.564  0.00  0.00    +0.000 A 
ATOM     24  C   UNL     1      -6.880  12.846  17.179  0.00  0.00    +0.000 C 
ATOM     25  C   UNL     1      -5.059  12.406  18.870  0.00  0.00    +0.000 A 
ATOM     26  C   UNL     1      -3.778  11.944  19.200  0.00  0.00    +0.000 A 
ENDBRANCH  18  20
ENDBRANCH  15  16
ENDBRANCH   8  15
TORSDOF 5
ENDMDL
MODEL 9
REMARK VINA RESULT:      -7.1      4.139      9.495
REMARK  Name = 
REMARK  8 active torsions:
REMARK  status: ('A' for Active; 'I' for Inactive)
REMARK    1  A    between atoms: C_1  and  O_2
REMARK    2  A    between atoms: O_2  and  C_3
REMARK    3  A    between atoms: C_8  and  O_9
REMARK    4  A    between atoms: O_9  and  C_10
REMARK    5  A    between atoms: N_12  and  C_13
REMARK    6  A    between atoms: C_13  and  C_14
REMARK    7  A    between atoms: N_16  and  C_17
REMARK    8  A    between atoms: C_20  and  C_21
REMARK                            x       y       z     vdW  Elec       q    Type
REMARK                         _______ _______ _______ _____ _____    ______ ____
ROOT
ATOM      1  C   UNL     1      -4.375  11.557  16.972  0.00  0.00    +0.000 A 
ATOM      2  C   UNL     1      -3.719  11.707  18.200  0.00  0.00    +0.000 A 
ATOM      3  C   UNL     1      -2.496  11.082  18.425  0.00  0.00    +0.000 A 
ATOM      4  C   UNL     1      -1.923  10.285  17.428  0.00  0.00    +0.000 A 
ATOM      5  C   UNL     1      -2.575  10.135  16.195  0.00  0.00    +0.000 A 
ATOM      6  C   UNL     1      -3.794  10.781  15.949  0.00  0.00    +0.000 A 
ATOM      7  C   UNL     1      -0.643   9.555  17.760  0.00  0.00    +0.000 C 
ATOM      8  N   UNL     1       0.364  10.401  18.450  0.00  0.00    +0.000 NA
ATOM      9  C   UNL     1      -0.237  11.403  19.366  0.00  0.00    +0.000 C 
ATOM     10  C   UNL     1      -1.726  11.221  19.707  0.00  0.00    +0.000 C 
ENDROOT
BRANCH   1  12
ATOM     11  C   UNL     1      -6.567  11.919  17.825  0.00  0.00    +0.000 C 
ATOM     12  O   UNL     1      -5.546  12.271  16.900  0.00  0.00    +0.000 OA
ENDBRANCH   1  12
BRANCH   6  13
ATOM     13  O   UNL     1      -4.446  10.722  14.747  0.00  0.00    +0.000 OA
ATOM     14  C   UNL     1      -3.849   9.993  13.685  0.00  0.00    +0.000 C 
ENDBRANCH   6  13
BRANCH   8  15
ATOM     15  C   UNL     1       1.319   9.553  19.208  0.00  0.00    +0.000 C 
BRANCH  15  16
ATOM     16  C   UNL     1       2.287   8.792  18.307  0.00  0.00    +0.000 C 
ATOM     17  O   UNL     1       2.827   9.375  17.368  0.00  0.00    +0.000 OA
ATOM     18  N   UNL     1       2.406   7.448  18.614  0.00  0.00    +0.000 N 
ATOM     19  H   UNL     1       1.778   7.105  19.337  0.00  0.00    +0.000 HD
BRANCH  18  20
ATOM     20  C   UNL     1       3.265   6.526  17.981  0.00  0.00    +0.000 A 
ATOM     21  C   UNL     1       4.459   6.911  17.369  0.00  0.00    +0.000 A 
ATOM     22  C   UNL     1       5.240   5.988  16.675  0.00  0.00    +0.000 A 
ATOM     23  C   UNL     1       4.845   4.654  16.587  0.00  0.00    +0.000 A 
ATOM     24  C   UNL     1       5.631   3.687  15.753  0.00  0.00    +0.000 C 
ATOM     25  C   UNL     1       3.682   4.246  17.254  0.00  0.00    +0.000 A 
ATOM     26  C   UNL     1       2.904   5.174  17.959  0.00  0.00    +0.000 A 
ENDBRANCH  18  20
ENDBRANCH  15  16
ENDBRANCH   8  15
TORSDOF 5
ENDMDL
