MODEL 1
REMARK VINA RESULT:      -8.1      0.000      0.000
REMARK  Name = 
REMARK  10 active torsions:
REMARK  status: ('A' for Active; 'I' for Inactive)
REMARK    1  A    between atoms: C_1  and  O_2
REMARK    2  A    between atoms: O_2  and  C_3
REMARK    3  A    between atoms: C_6  and  N_7
REMARK    4  A    between atoms: N_7  and  C_8
REMARK    5  A    between atoms: N_7  and  S_20
REMARK    6  A    between atoms: C_8  and  C_9
REMARK    7  A    between atoms: N_11  and  C_12
REMARK    8  A    between atoms: C_12  and  C_13
REMARK    9  A    between atoms: C_13  and  C_14
REMARK   10  A    between atoms: S_20  and  C_21
REMARK                            x       y       z     vdW  Elec       q    Type
REMARK                         _______ _______ _______ _____ _____    ______ ____
ROOT
ATOM      1  N   UNL     1       5.954   5.085  17.062  0.00  0.00    +0.000 N 
ENDROOT
BRANCH   1   5
ATOM      2  C   UNL     1       2.204   4.185  18.805  0.00  0.00    +0.000 A 
ATOM      3  C   UNL     1       2.479   5.489  18.379  0.00  0.00    +0.000 A 
ATOM      4  C   UNL     1       3.687   5.797  17.736  0.00  0.00    +0.000 A 
ATOM      5  C   UNL     1       4.634   4.795  17.530  0.00  0.00    +0.000 A 
ATOM      6  C   UNL     1       4.337   3.482  17.901  0.00  0.00    +0.000 A 
ATOM      7  C   UNL     1       3.133   3.178  18.548  0.00  0.00    +0.000 A 
BRANCH   2   9
ATOM      8  C   UNL     1       0.992   3.002  20.477  0.00  0.00    +0.000 C 
ATOM      9  O   UNL     1       1.035   4.036  19.500  0.00  0.00    +0.000 OA
ENDBRANCH   2   9
ENDBRANCH   1   5
BRANCH   1  10
ATOM     10  S   UNL     1       6.162   5.535  15.453  0.00  0.00    +0.000 S 
ATOM     11  C   UNL     1       5.512   4.115  14.598  0.00  0.00    +0.000 C 
ATOM     12  O   UNL     1       5.249   6.631  15.184  0.00  0.00    +0.000 OA
ATOM     13  O   UNL     1       7.574   5.652  15.154  0.00  0.00    +0.000 OA
ENDBRANCH   1  10
BRANCH   1  14
ATOM     14  C   UNL     1       7.138   4.644  17.820  0.00  0.00    +0.000 C 
BRANCH  14  15
ATOM     15  C   UNL     1       7.637   5.773  18.713  0.00  0.00    +0.000 C 
ATOM     16  O   UNL     1       7.720   5.637  19.937  0.00  0.00    +0.000 OA
ATOM     17  N   UNL     1       7.980   6.962  18.083  0.00  0.00    +0.000 N 
ATOM     18  H   UNL     1       7.708   7.095  17.109  0.00  0.00    +0.000 HD
BRANCH  17  19
ATOM     19  C   UNL     1       8.486   8.078  18.875  0.00  0.00    +0.000 C 
BRANCH  19  20
ATOM     20  C   UNL     1       8.403   9.455  18.198  0.00  0.00    +0.000 C 
BRANCH  20  21
ATOM     21  C   UNL     1       9.380  10.470  18.786  0.00  0.00    +0.000 C 
ATOM     22  C   UNL     1       9.415  10.753  20.102  0.00  0.00    +0.000 C 
ATOM     23  C   UNL     1      10.335  11.772  20.723  0.00  0.00    +0.000 C 
ATOM     24  C   UNL     1      10.971  12.707  19.696  0.00  0.00    +0.000 C 
ATOM     25  C   UNL     1      11.472  11.922  18.492  0.00  0.00    +0.000 C 
ATOM     26  C   UNL     1      10.332  11.145  17.820  0.00  0.00    +0.000 C 
ENDBRANCH  20  21
ENDBRANCH  19  20
ENDBRANCH  17  19
ENDBRANCH  14  15
ENDBRANCH   1  14
TORSDOF 8
ENDMDL
MODEL 2
REMARK VINA RESULT:      -8.0      4.615      6.485
REMARK  Name = 
REMARK  10 active torsions:
REMARK  status: ('A' for Active; 'I' for Inactive)
REMARK    1  A    between atoms: C_1  and  O_2
REMARK    2  A    between atoms: O_2  and  C_3
REMARK    3  A    between atoms: C_6  and  N_7
REMARK    4  A    between atoms: N_7  and  C_8
REMARK    5  A    between atoms: N_7  and  S_20
REMARK    6  A    between atoms: C_8  and  C_9
REMARK    7  A    between atoms: N_11  and  C_12
REMARK    8  A    between atoms: C_12  and  C_13
REMARK    9  A    between atoms: C_13  and  C_14
REMARK   10  A    between atoms: S_20  and  C_21
REMARK                            x       y       z     vdW  Elec       q    Type
REMARK                         _______ _______ _______ _____ _____    ______ ____
ROOT
ATOM      1  N   UNL     1       3.014   4.513  18.945  0.00  0.00    +0.000 N 
ENDROOT
BRANCH   1   5
ATOM      2  C   UNL     1       1.707   8.512  19.408  0.00  0.00    +0.000 A 
ATOM      3  C   UNL     1       1.586   7.612  20.472  0.00  0.00    +0.000 A 
ATOM      4  C   UNL     1       2.075   6.301  20.366  0.00  0.00    +0.000 A 
ATOM      5  C   UNL     1       2.676   5.883  19.181  0.00  0.00    +0.000 A 
ATOM      6  C   UNL     1       2.852   6.797  18.140  0.00  0.00    +0.000 A 
ATOM      7  C   UNL     1       2.358   8.103  18.245  0.00  0.00    +0.000 A 
BRANCH   2   9
ATOM      8  C   UNL     1       0.879  10.122  20.952  0.00  0.00    +0.000 C 
ATOM      9  O   UNL     1       1.108   9.726  19.604  0.00  0.00    +0.000 OA
ENDBRANCH   2   9
ENDBRANCH   1   5
BRANCH   1  10
ATOM     10  S   UNL     1       1.820   3.473  18.373  0.00  0.00    +0.000 S 
ATOM     11  C   UNL     1       2.787   2.072  17.851  0.00  0.00    +0.000 C 
ATOM     12  O   UNL     1       1.040   3.032  19.515  0.00  0.00    +0.000 OA
ATOM     13  O   UNL     1       1.178   4.053  17.212  0.00  0.00    +0.000 OA
ENDBRANCH   1  10
BRANCH   1  14
ATOM     14  C   UNL     1       4.230   3.923  19.531  0.00  0.00    +0.000 C 
BRANCH  14  15
ATOM     15  C   UNL     1       5.469   4.520  18.875  0.00  0.00    +0.000 C 
ATOM     16  O   UNL     1       6.099   5.438  19.406  0.00  0.00    +0.000 OA
ATOM     17  N   UNL     1       5.842   3.987  17.648  0.00  0.00    +0.000 N 
ATOM     18  H   UNL     1       5.186   3.379  17.159  0.00  0.00    +0.000 HD
BRANCH  17  19
ATOM     19  C   UNL     1       7.032   4.497  16.974  0.00  0.00    +0.000 C 
BRANCH  19  20
ATOM     20  C   UNL     1       6.767   5.528  15.866  0.00  0.00    +0.000 C 
BRANCH  20  21
ATOM     21  C   UNL     1       6.609   4.896  14.485  0.00  0.00    +0.000 C 
ATOM     22  C   UNL     1       5.532   4.160  14.152  0.00  0.00    +0.000 C 
ATOM     23  C   UNL     1       5.348   3.488  12.817  0.00  0.00    +0.000 C 
ATOM     24  C   UNL     1       6.638   3.415  12.002  0.00  0.00    +0.000 C 
ATOM     25  C   UNL     1       7.377   4.746  12.044  0.00  0.00    +0.000 C 
ATOM     26  C   UNL     1       7.719   5.147  13.485  0.00  0.00    +0.000 C 
ENDBRANCH  20  21
ENDBRANCH  19  20
ENDBRANCH  17  19
ENDBRANCH  14  15
ENDBRANCH   1  14
TORSDOF 8
ENDMDL
MODEL 3
REMARK VINA RESULT:      -7.8      1.217      1.775
REMARK  Name = 
REMARK  10 active torsions:
REMARK  status: ('A' for Active; 'I' for Inactive)
REMARK    1  A    between atoms: C_1  and  O_2
REMARK    2  A    between atoms: O_2  and  C_3
REMARK    3  A    between atoms: C_6  and  N_7
REMARK    4  A    between atoms: N_7  and  C_8
REMARK    5  A    between atoms: N_7  and  S_20
REMARK    6  A    between atoms: C_8  and  C_9
REMARK    7  A    between atoms: N_11  and  C_12
REMARK    8  A    between atoms: C_12  and  C_13
REMARK    9  A    between atoms: C_13  and  C_14
REMARK   10  A    between atoms: S_20  and  C_21
REMARK                            x       y       z     vdW  Elec       q    Type
REMARK                         _______ _______ _______ _____ _____    ______ ____
ROOT
ATOM      1  N   UNL     1       6.168   5.631  17.319  0.00  0.00    +0.000 N 
ENDROOT
BRANCH   1   5
ATOM      2  C   UNL     1       2.719   3.907  19.065  0.00  0.00    +0.000 A 
ATOM      3  C   UNL     1       3.987   3.432  19.414  0.00  0.00    +0.000 A 
ATOM      4  C   UNL     1       5.147   4.032  18.902  0.00  0.00    +0.000 A 
ATOM      5  C   UNL     1       5.037   5.108  18.023  0.00  0.00    +0.000 A 
ATOM      6  C   UNL     1       3.774   5.622  17.720  0.00  0.00    +0.000 A 
ATOM      7  C   UNL     1       2.617   5.017  18.228  0.00  0.00    +0.000 A 
BRANCH   2   9
ATOM      8  C   UNL     1       1.251   3.467  20.886  0.00  0.00    +0.000 C 
ATOM      9  O   UNL     1       1.671   3.178  19.557  0.00  0.00    +0.000 OA
ENDBRANCH   2   9
ENDBRANCH   1   5
BRANCH   1  10
ATOM     10  S   UNL     1       6.310   5.321  15.671  0.00  0.00    +0.000 S 
ATOM     11  C   UNL     1       5.750   3.633  15.574  0.00  0.00    +0.000 C 
ATOM     12  O   UNL     1       5.313   6.125  14.986  0.00  0.00    +0.000 OA
ATOM     13  O   UNL     1       7.703   5.371  15.280  0.00  0.00    +0.000 OA
ENDBRANCH   1  10
BRANCH   1  14
ATOM     14  C   UNL     1       7.363   6.089  18.047  0.00  0.00    +0.000 C 
BRANCH  14  15
ATOM     15  C   UNL     1       7.571   7.582  17.824  0.00  0.00    +0.000 C 
ATOM     16  O   UNL     1       6.936   8.198  16.964  0.00  0.00    +0.000 OA
ATOM     17  N   UNL     1       8.516   8.207  18.627  0.00  0.00    +0.000 N 
ATOM     18  H   UNL     1       9.152   7.628  19.175  0.00  0.00    +0.000 HD
BRANCH  17  19
ATOM     19  C   UNL     1       8.750   9.640  18.481  0.00  0.00    +0.000 C 
BRANCH  19  20
ATOM     20  C   UNL     1       9.473  10.310  19.659  0.00  0.00    +0.000 C 
BRANCH  20  21
ATOM     21  C   UNL     1      10.463  11.387  19.221  0.00  0.00    +0.000 C 
ATOM     22  C   UNL     1      11.357  11.928  20.070  0.00  0.00    +0.000 C 
ATOM     23  C   UNL     1      12.328  13.016  19.693  0.00  0.00    +0.000 C 
ATOM     24  C   UNL     1      11.976  13.701  18.373  0.00  0.00    +0.000 C 
ATOM     25  C   UNL     1      11.602  12.670  17.317  0.00  0.00    +0.000 C 
ATOM     26  C   UNL     1      10.410  11.817  17.769  0.00  0.00    +0.000 C 
ENDBRANCH  20  21
ENDBRANCH  19  20
ENDBRANCH  17  19
ENDBRANCH  14  15
ENDBRANCH   1  14
TORSDOF 8
ENDMDL
MODEL 4
REMARK VINA RESULT:      -7.6      0.940      1.339
REMARK  Name = 
REMARK  10 active torsions:
REMARK  status: ('A' for Active; 'I' for Inactive)
REMARK    1  A    between atoms: C_1  and  O_2
REMARK    2  A    between atoms: O_2  and  C_3
REMARK    3  A    between atoms: C_6  and  N_7
REMARK    4  A    between atoms: N_7  and  C_8
REMARK    5  A    between atoms: N_7  and  S_20
REMARK    6  A    between atoms: C_8  and  C_9
REMARK    7  A    between atoms: N_11  and  C_12
REMARK    8  A    between atoms: C_12  and  C_13
REMARK    9  A    between atoms: C_13  and  C_14
REMARK   10  A    between atoms: S_20  and  C_21
REMARK                            x       y       z     vdW  Elec       q    Type
REMARK                         _______ _______ _______ _____ _____    ______ ____
ROOT
ATOM      1  N   UNL     1       5.648   4.901  16.885  0.00  0.00    +0.000 N 
ENDROOT
BRANCH   1   5
ATOM      2  C   UNL     1       2.138   3.743  18.946  0.00  0.00    +0.000 A 
ATOM      3  C   UNL     1       2.442   5.100  18.798  0.00  0.00    +0.000 A 
ATOM      4  C   UNL     1       3.562   5.510  18.060  0.00  0.00    +0.000 A 
ATOM      5  C   UNL     1       4.392   4.555  17.478  0.00  0.00    +0.000 A 
ATOM      6  C   UNL     1       4.057   3.203  17.573  0.00  0.00    +0.000 A 
ATOM      7  C   UNL     1       2.941   2.795  18.315  0.00  0.00    +0.000 A 
BRANCH   2   9
ATOM      8  C   UNL     1       1.372   3.111  21.109  0.00  0.00    +0.000 C 
ATOM      9  O   UNL     1       1.075   3.473  19.765  0.00  0.00    +0.000 OA
ENDBRANCH   2   9
ENDBRANCH   1   5
BRANCH   1  10
ATOM     10  S   UNL     1       5.685   5.323  15.255  0.00  0.00    +0.000 S 
ATOM     11  C   UNL     1       7.376   4.961  14.831  0.00  0.00    +0.000 C 
ATOM     12  O   UNL     1       4.866   4.363  14.536  0.00  0.00    +0.000 OA
ATOM     13  O   UNL     1       5.463   6.746  15.111  0.00  0.00    +0.000 OA
ENDBRANCH   1  10
BRANCH   1  14
ATOM     14  C   UNL     1       6.917   4.540  17.540  0.00  0.00    +0.000 C 
BRANCH  14  15
ATOM     15  C   UNL     1       7.432   5.715  18.363  0.00  0.00    +0.000 C 
ATOM     16  O   UNL     1       7.660   5.604  19.571  0.00  0.00    +0.000 OA
ATOM     17  N   UNL     1       7.621   6.914  17.689  0.00  0.00    +0.000 N 
ATOM     18  H   UNL     1       7.233   7.013  16.750  0.00  0.00    +0.000 HD
BRANCH  17  19
ATOM     19  C   UNL     1       8.132   8.074  18.411  0.00  0.00    +0.000 C 
BRANCH  19  20
ATOM     20  C   UNL     1       8.125   9.394  17.624  0.00  0.00    +0.000 C 
BRANCH  20  21
ATOM     21  C   UNL     1       8.832  10.531  18.356  0.00  0.00    +0.000 C 
ATOM     22  C   UNL     1       8.809  11.799  17.902  0.00  0.00    +0.000 C 
ATOM     23  C   UNL     1       9.521  12.947  18.569  0.00  0.00    +0.000 C 
ATOM     24  C   UNL     1      10.555  12.494  19.597  0.00  0.00    +0.000 C 
ATOM     25  C   UNL     1       9.989  11.387  20.476  0.00  0.00    +0.000 C 
ATOM     26  C   UNL     1       9.556  10.177  19.639  0.00  0.00    +0.000 C 
ENDBRANCH  20  21
ENDBRANCH  19  20
ENDBRANCH  17  19
ENDBRANCH  14  15
ENDBRANCH   1  14
TORSDOF 8
ENDMDL
MODEL 5
REMARK VINA RESULT:      -7.5      1.772      2.260
REMARK  Name = 
REMARK  10 active torsions:
REMARK  status: ('A' for Active; 'I' for Inactive)
REMARK    1  A    between atoms: C_1  and  O_2
REMARK    2  A    between atoms: O_2  and  C_3
REMARK    3  A    between atoms: C_6  and  N_7
REMARK    4  A    between atoms: N_7  and  C_8
REMARK    5  A    between atoms: N_7  and  S_20
REMARK    6  A    between atoms: C_8  and  C_9
REMARK    7  A    between atoms: N_11  and  C_12
REMARK    8  A    between atoms: C_12  and  C_13
REMARK    9  A    between atoms: C_13  and  C_14
REMARK   10  A    between atoms: S_20  and  C_21
REMARK                            x       y       z     vdW  Elec       q    Type
REMARK                         _______ _______ _______ _____ _____    ______ ____
ROOT
ATOM      1  N   UNL     1       6.145   5.549  17.678  0.00  0.00    +0.000 N 
ENDROOT
BRANCH   1   5
ATOM      2  C   UNL     1       2.474   6.072  19.718  0.00  0.00    +0.000 A 
ATOM      3  C   UNL     1       2.743   6.817  18.566  0.00  0.00    +0.000 A 
ATOM      4  C   UNL     1       3.921   6.612  17.833  0.00  0.00    +0.000 A 
ATOM      5  C   UNL     1       4.846   5.664  18.266  0.00  0.00    +0.000 A 
ATOM      6  C   UNL     1       4.553   4.876  19.381  0.00  0.00    +0.000 A 
ATOM      7  C   UNL     1       3.378   5.086  20.114  0.00  0.00    +0.000 A 
BRANCH   2   9
ATOM      8  C   UNL     1       1.337   7.709  21.018  0.00  0.00    +0.000 C 
ATOM      9  O   UNL     1       1.339   6.431  20.391  0.00  0.00    +0.000 OA
ENDBRANCH   2   9
ENDBRANCH   1   5
BRANCH   1  10
ATOM     10  S   UNL     1       6.362   4.481  16.395  0.00  0.00    +0.000 S 
ATOM     11  C   UNL     1       5.901   5.493  15.005  0.00  0.00    +0.000 C 
ATOM     12  O   UNL     1       7.786   4.231  16.268  0.00  0.00    +0.000 OA
ATOM     13  O   UNL     1       5.421   3.385  16.504  0.00  0.00    +0.000 OA
ENDBRANCH   1  10
BRANCH   1  14
ATOM     14  C   UNL     1       7.340   6.036  18.388  0.00  0.00    +0.000 C 
BRANCH  14  15
ATOM     15  C   UNL     1       7.653   7.466  17.965  0.00  0.00    +0.000 C 
ATOM     16  O   UNL     1       7.110   7.980  16.983  0.00  0.00    +0.000 OA
ATOM     17  N   UNL     1       8.585   8.154  18.731  0.00  0.00    +0.000 N 
ATOM     18  H   UNL     1       9.150   7.630  19.400  0.00  0.00    +0.000 HD
BRANCH  17  19
ATOM     19  C   UNL     1       8.915   9.535  18.395  0.00  0.00    +0.000 C 
BRANCH  19  20
ATOM     20  C   UNL     1       9.414  10.395  19.566  0.00  0.00    +0.000 C 
BRANCH  20  21
ATOM     21  C   UNL     1      10.417  11.463  19.141  0.00  0.00    +0.000 C 
ATOM     22  C   UNL     1      11.346  11.951  19.984  0.00  0.00    +0.000 C 
ATOM     23  C   UNL     1      12.333  13.030  19.621  0.00  0.00    +0.000 C 
ATOM     24  C   UNL     1      11.963  13.772  18.337  0.00  0.00    +0.000 C 
ATOM     25  C   UNL     1      11.536  12.790  17.255  0.00  0.00    +0.000 C 
ATOM     26  C   UNL     1      10.336  11.948  17.707  0.00  0.00    +0.000 C 
ENDBRANCH  20  21
ENDBRANCH  19  20
ENDBRANCH  17  19
ENDBRANCH  14  15
ENDBRANCH   1  14
TORSDOF 8
ENDMDL
MODEL 6
REMARK VINA RESULT:      -7.5      3.655      7.584
REMARK  Name = 
REMARK  10 active torsions:
REMARK  status: ('A' for Active; 'I' for Inactive)
REMARK    1  A    between atoms: C_1  and  O_2
REMARK    2  A    between atoms: O_2  and  C_3
REMARK    3  A    between atoms: C_6  and  N_7
REMARK    4  A    between atoms: N_7  and  C_8
REMARK    5  A    between atoms: N_7  and  S_20
REMARK    6  A    between atoms: C_8  and  C_9
REMARK    7  A    between atoms: N_11  and  C_12
REMARK    8  A    between atoms: C_12  and  C_13
REMARK    9  A    between atoms: C_13  and  C_14
REMARK   10  A    between atoms: S_20  and  C_21
REMARK                            x       y       z     vdW  Elec       q    Type
REMARK                         _______ _______ _______ _____ _____    ______ ____
ROOT
ATOM      1  N   UNL     1       6.819   5.767  16.757  0.00  0.00    +0.000 N 
ENDROOT
BRANCH   1   5
ATOM      2  C   UNL     1       6.286   3.775  13.062  0.00  0.00    +0.000 A 
ATOM      3  C   UNL     1       5.334   3.627  14.076  0.00  0.00    +0.000 A 
ATOM      4  C   UNL     1       5.453   4.331  15.283  0.00  0.00    +0.000 A 
ATOM      5  C   UNL     1       6.541   5.179  15.483  0.00  0.00    +0.000 A 
ATOM      6  C   UNL     1       7.459   5.374  14.449  0.00  0.00    +0.000 A 
ATOM      7  C   UNL     1       7.342   4.666  13.247  0.00  0.00    +0.000 A 
BRANCH   2   9
ATOM      8  C   UNL     1       4.777   2.835  11.480  0.00  0.00    +0.000 C 
ATOM      9  O   UNL     1       6.105   2.965  11.974  0.00  0.00    +0.000 OA
ENDBRANCH   2   9
ENDBRANCH   1   5
BRANCH   1  10
ATOM     10  S   UNL     1       7.298   4.766  18.023  0.00  0.00    +0.000 S 
ATOM     11  C   UNL     1       7.853   5.954  19.228  0.00  0.00    +0.000 C 
ATOM     12  O   UNL     1       6.103   4.151  18.572  0.00  0.00    +0.000 OA
ATOM     13  O   UNL     1       8.428   3.960  17.611  0.00  0.00    +0.000 OA
ENDBRANCH   1  10
BRANCH   1  14
ATOM     14  C   UNL     1       6.345   7.123  17.083  0.00  0.00    +0.000 C 
BRANCH  14  15
ATOM     15  C   UNL     1       4.822   7.148  17.125  0.00  0.00    +0.000 C 
ATOM     16  O   UNL     1       4.159   7.588  16.182  0.00  0.00    +0.000 OA
ATOM     17  N   UNL     1       4.222   6.661  18.279  0.00  0.00    +0.000 N 
ATOM     18  H   UNL     1       4.804   6.499  19.101  0.00  0.00    +0.000 HD
BRANCH  17  19
ATOM     19  C   UNL     1       2.766   6.636  18.378  0.00  0.00    +0.000 C 
BRANCH  19  20
ATOM     20  C   UNL     1       2.208   6.346  19.780  0.00  0.00    +0.000 C 
BRANCH  20  21
ATOM     21  C   UNL     1       1.909   4.867  20.011  0.00  0.00    +0.000 C 
ATOM     22  C   UNL     1       2.027   4.292  21.223  0.00  0.00    +0.000 C 
ATOM     23  C   UNL     1       1.777   2.831  21.493  0.00  0.00    +0.000 C 
ATOM     24  C   UNL     1       1.726   1.988  20.220  0.00  0.00    +0.000 C 
ATOM     25  C   UNL     1       0.889   2.678  19.152  0.00  0.00    +0.000 C 
ATOM     26  C   UNL     1       1.452   4.063  18.810  0.00  0.00    +0.000 C 
ENDBRANCH  20  21
ENDBRANCH  19  20
ENDBRANCH  17  19
ENDBRANCH  14  15
ENDBRANCH   1  14
TORSDOF 8
ENDMDL
MODEL 7
REMARK VINA RESULT:      -7.4      4.568      6.403
REMARK  Name = 
REMARK  10 active torsions:
REMARK  status: ('A' for Active; 'I' for Inactive)
REMARK    1  A    between atoms: C_1  and  O_2
REMARK    2  A    between atoms: O_2  and  C_3
REMARK    3  A    between atoms: C_6  and  N_7
REMARK    4  A    between atoms: N_7  and  C_8
REMARK    5  A    between atoms: N_7  and  S_20
REMARK    6  A    between atoms: C_8  and  C_9
REMARK    7  A    between atoms: N_11  and  C_12
REMARK    8  A    between atoms: C_12  and  C_13
REMARK    9  A    between atoms: C_13  and  C_14
REMARK   10  A    between atoms: S_20  and  C_21
REMARK                            x       y       z     vdW  Elec       q    Type
REMARK                         _______ _______ _______ _____ _____    ______ ____
ROOT
ATOM      1  N   UNL     1       3.033   4.468  18.940  0.00  0.00    +0.000 N 
ENDROOT
BRANCH   1   5
ATOM      2  C   UNL     1       1.639   8.390  19.707  0.00  0.00    +0.000 A 
ATOM      3  C   UNL     1       2.197   8.080  18.462  0.00  0.00    +0.000 A 
ATOM      4  C   UNL     1       2.602   6.772  18.160  0.00  0.00    +0.000 A 
ATOM      5  C   UNL     1       2.461   5.768  19.116  0.00  0.00    +0.000 A 
ATOM      6  C   UNL     1       1.850   6.062  20.337  0.00  0.00    +0.000 A 
ATOM      7  C   UNL     1       1.451   7.370  20.639  0.00  0.00    +0.000 A 
BRANCH   2   9
ATOM      8  C   UNL     1       0.713  10.064  21.122  0.00  0.00    +0.000 C 
ATOM      9  O   UNL     1       1.372   9.717  19.910  0.00  0.00    +0.000 OA
ENDBRANCH   2   9
ENDBRANCH   1   5
BRANCH   1  10
ATOM     10  S   UNL     1       2.134   3.291  18.141  0.00  0.00    +0.000 S 
ATOM     11  C   UNL     1       1.244   2.543  19.490  0.00  0.00    +0.000 C 
ATOM     12  O   UNL     1       1.146   3.972  17.324  0.00  0.00    +0.000 OA
ATOM     13  O   UNL     1       3.022   2.302  17.565  0.00  0.00    +0.000 OA
ENDBRANCH   1  10
BRANCH   1  14
ATOM     14  C   UNL     1       4.187   4.036  19.747  0.00  0.00    +0.000 C 
BRANCH  14  15
ATOM     15  C   UNL     1       5.484   4.495  19.091  0.00  0.00    +0.000 C 
ATOM     16  O   UNL     1       6.311   5.173  19.707  0.00  0.00    +0.000 OA
ATOM     17  N   UNL     1       5.680   4.122  17.768  0.00  0.00    +0.000 N 
ATOM     18  H   UNL     1       4.891   3.742  17.246  0.00  0.00    +0.000 HD
BRANCH  17  19
ATOM     19  C   UNL     1       6.910   4.510  17.086  0.00  0.00    +0.000 C 
BRANCH  19  20
ATOM     20  C   UNL     1       6.745   5.575  15.989  0.00  0.00    +0.000 C 
BRANCH  20  21
ATOM     21  C   UNL     1       6.755   4.989  14.580  0.00  0.00    +0.000 C 
ATOM     22  C   UNL     1       7.719   5.286  13.687  0.00  0.00    +0.000 C 
ATOM     23  C   UNL     1       7.751   4.761  12.275  0.00  0.00    +0.000 C 
ATOM     24  C   UNL     1       6.422   4.154  11.831  0.00  0.00    +0.000 C 
ATOM     25  C   UNL     1       5.850   3.257  12.921  0.00  0.00    +0.000 C 
ATOM     26  C   UNL     1       5.633   4.035  14.225  0.00  0.00    +0.000 C 
ENDBRANCH  20  21
ENDBRANCH  19  20
ENDBRANCH  17  19
ENDBRANCH  14  15
ENDBRANCH   1  14
TORSDOF 8
ENDMDL
MODEL 8
REMARK VINA RESULT:      -7.3      4.727      6.712
REMARK  Name = 
REMARK  10 active torsions:
REMARK  status: ('A' for Active; 'I' for Inactive)
REMARK    1  A    between atoms: C_1  and  O_2
REMARK    2  A    between atoms: O_2  and  C_3
REMARK    3  A    between atoms: C_6  and  N_7
REMARK    4  A    between atoms: N_7  and  C_8
REMARK    5  A    between atoms: N_7  and  S_20
REMARK    6  A    between atoms: C_8  and  C_9
REMARK    7  A    between atoms: N_11  and  C_12
REMARK    8  A    between atoms: C_12  and  C_13
REMARK    9  A    between atoms: C_13  and  C_14
REMARK   10  A    between atoms: S_20  and  C_21
REMARK                            x       y       z     vdW  Elec       q    Type
REMARK                         _______ _______ _______ _____ _____    ______ ____
ROOT
ATOM      1  N   UNL     1       3.039   4.409  19.555  0.00  0.00    +0.000 N 
ENDROOT
BRANCH   1   5
ATOM      2  C   UNL     1       1.754   8.416  19.104  0.00  0.00    +0.000 A 
ATOM      3  C   UNL     1       1.709   7.807  20.363  0.00  0.00    +0.000 A 
ATOM      4  C   UNL     1       2.194   6.505  20.551  0.00  0.00    +0.000 A 
ATOM      5  C   UNL     1       2.714   5.799  19.468  0.00  0.00    +0.000 A 
ATOM      6  C   UNL     1       2.815   6.425  18.224  0.00  0.00    +0.000 A 
ATOM      7  C   UNL     1       2.325   7.724  18.037  0.00  0.00    +0.000 A 
BRANCH   2   9
ATOM      8  C   UNL     1       0.469  10.098  20.191  0.00  0.00    +0.000 C 
ATOM      9  O   UNL     1       1.166   9.649  19.034  0.00  0.00    +0.000 OA
ENDBRANCH   2   9
ENDBRANCH   1   5
BRANCH   1  10
ATOM     10  S   UNL     1       1.815   3.313  19.920  0.00  0.00    +0.000 S 
ATOM     11  C   UNL     1       2.263   2.813  21.569  0.00  0.00    +0.000 C 
ATOM     12  O   UNL     1       0.577   4.062  20.039  0.00  0.00    +0.000 OA
ATOM     13  O   UNL     1       1.908   2.163  19.045  0.00  0.00    +0.000 OA
ENDBRANCH   1  10
BRANCH   1  14
ATOM     14  C   UNL     1       4.437   3.968  19.707  0.00  0.00    +0.000 C 
BRANCH  14  15
ATOM     15  C   UNL     1       5.111   3.887  18.343  0.00  0.00    +0.000 C 
ATOM     16  O   UNL     1       4.539   3.384  17.372  0.00  0.00    +0.000 OA
ATOM     17  N   UNL     1       6.400   4.395  18.253  0.00  0.00    +0.000 N 
ATOM     18  H   UNL     1       6.901   4.612  19.115  0.00  0.00    +0.000 HD
BRANCH  17  19
ATOM     19  C   UNL     1       7.097   4.368  16.972  0.00  0.00    +0.000 C 
BRANCH  19  20
ATOM     20  C   UNL     1       6.621   5.407  15.944  0.00  0.00    +0.000 C 
BRANCH  20  21
ATOM     21  C   UNL     1       6.567   4.859  14.520  0.00  0.00    +0.000 C 
ATOM     22  C   UNL     1       5.548   4.093  14.085  0.00  0.00    +0.000 C 
ATOM     23  C   UNL     1       5.468   3.501  12.702  0.00  0.00    +0.000 C 
ATOM     24  C   UNL     1       6.800   3.544  11.955  0.00  0.00    +0.000 C 
ATOM     25  C   UNL     1       7.464   4.904  12.120  0.00  0.00    +0.000 C 
ATOM     26  C   UNL     1       7.712   5.227  13.599  0.00  0.00    +0.000 C 
ENDBRANCH  20  21
ENDBRANCH  19  20
ENDBRANCH  17  19
ENDBRANCH  14  15
ENDBRANCH   1  14
TORSDOF 8
ENDMDL
MODEL 9
REMARK VINA RESULT:      -7.3      4.386      7.119
REMARK  Name = 
REMARK  10 active torsions:
REMARK  status: ('A' for Active; 'I' for Inactive)
REMARK    1  A    between atoms: C_1  and  O_2
REMARK    2  A    between atoms: O_2  and  C_3
REMARK    3  A    between atoms: C_6  and  N_7
REMARK    4  A    between atoms: N_7  and  C_8
REMARK    5  A    between atoms: N_7  and  S_20
REMARK    6  A    between atoms: C_8  and  C_9
REMARK    7  A    between atoms: N_11  and  C_12
REMARK    8  A    between atoms: C_12  and  C_13
REMARK    9  A    between atoms: C_13  and  C_14
REMARK   10  A    between atoms: S_20  and  C_21
REMARK                            x       y       z     vdW  Elec       q    Type
REMARK                         _______ _______ _______ _____ _____    ______ ____
ROOT
ATOM      1  N   UNL     1       3.740   3.999  18.491  0.00  0.00    +0.000 N 
ENDROOT
BRANCH   1   5
ATOM      2  C   UNL     1       6.823   4.939  15.749  0.00  0.00    +0.000 A 
ATOM      3  C   UNL     1       6.874   5.442  17.052  0.00  0.00    +0.000 A 
ATOM      4  C   UNL     1       5.901   5.089  17.999  0.00  0.00    +0.000 A 
ATOM      5  C   UNL     1       4.861   4.236  17.635  0.00  0.00    +0.000 A 
ATOM      6  C   UNL     1       4.842   3.685  16.352  0.00  0.00    +0.000 A 
ATOM      7  C   UNL     1       5.811   4.043  15.406  0.00  0.00    +0.000 A 
BRANCH   2   9
ATOM      8  C   UNL     1       7.625   5.127  13.516  0.00  0.00    +0.000 C 
ATOM      9  O   UNL     1       7.775   5.432  14.898  0.00  0.00    +0.000 OA
ENDBRANCH   2   9
ENDBRANCH   1   5
BRANCH   1  10
ATOM     10  S   UNL     1       3.703   2.583  19.402  0.00  0.00    +0.000 S 
ATOM     11  C   UNL     1       2.491   2.988  20.642  0.00  0.00    +0.000 C 
ATOM     12  O   UNL     1       3.114   1.546  18.575  0.00  0.00    +0.000 OA
ATOM     13  O   UNL     1       4.982   2.382  20.050  0.00  0.00    +0.000 OA
ENDBRANCH   1  10
BRANCH   1  14
ATOM     14  C   UNL     1       2.483   4.747  18.315  0.00  0.00    +0.000 C 
BRANCH  14  15
ATOM     15  C   UNL     1       2.657   6.181  18.799  0.00  0.00    +0.000 C 
ATOM     16  O   UNL     1       3.139   6.433  19.907  0.00  0.00    +0.000 OA
ATOM     17  N   UNL     1       2.235   7.185  17.938  0.00  0.00    +0.000 N 
ATOM     18  H   UNL     1       1.664   6.930  17.131  0.00  0.00    +0.000 HD
BRANCH  17  19
ATOM     19  C   UNL     1       2.391   8.582  18.329  0.00  0.00    +0.000 C 
BRANCH  19  20
ATOM     20  C   UNL     1       1.084   9.384  18.438  0.00  0.00    +0.000 C 
BRANCH  20  21
ATOM     21  C   UNL     1       0.692   9.696  19.880  0.00  0.00    +0.000 C 
ATOM     22  C   UNL     1       1.089   8.929  20.913  0.00  0.00    +0.000 C 
ATOM     23  C   UNL     1       0.698   9.177  22.347  0.00  0.00    +0.000 C 
ATOM     24  C   UNL     1      -0.468  10.153  22.489  0.00  0.00    +0.000 C 
ATOM     25  C   UNL     1      -0.276  11.356  21.576  0.00  0.00    +0.000 C 
ATOM     26  C   UNL     1      -0.161  10.928  20.108  0.00  0.00    +0.000 C 
ENDBRANCH  20  21
ENDBRANCH  19  20
ENDBRANCH  17  19
ENDBRANCH  14  15
ENDBRANCH   1  14
TORSDOF 8
ENDMDL
