MODEL 1
REMARK VINA RESULT:      -6.6      0.000      0.000
REMARK  Name = 
REMARK  6 active torsions:
REMARK  status: ('A' for Active; 'I' for Inactive)
REMARK    1  A    between atoms: C_2  and  O_3
REMARK    2  A    between atoms: C_2  and  C_4
REMARK    3  A    between atoms: C_4  and  C_5
REMARK    4  A    between atoms: C_5  and  N_6
REMARK    5  A    between atoms: C_7  and  C_9
REMARK    6  A    between atoms: C_12  and  N_13
REMARK                            x       y       z     vdW  Elec       q    Type
REMARK                         _______ _______ _______ _____ _____    ______ ____
ROOT
ATOM      1  N   UNL     1       3.253   4.249  19.427  0.00  0.00    +0.000 N 
ATOM      2  C   UNL     1       4.465   3.631  19.204  0.00  0.00    +0.000 C 
ATOM      3  O   UNL     1       4.973   2.857  20.008  0.00  0.00    +0.000 OA
ATOM      4  H   UNL     1       2.955   5.018  18.840  0.00  0.00    +0.000 HD
ENDROOT
BRANCH   2   5
ATOM      5  C   UNL     1       5.191   3.991  17.951  0.00  0.00    +0.000 A 
ATOM      6  C   UNL     1       4.515   3.829  16.732  0.00  0.00    +0.000 A 
ATOM      7  C   UNL     1       5.149   4.118  15.519  0.00  0.00    +0.000 A 
ATOM      8  C   UNL     1       6.468   4.586  15.528  0.00  0.00    +0.000 A 
ATOM      9  C   UNL     1       7.146   4.779  16.741  0.00  0.00    +0.000 A 
ATOM     10  C   UNL     1       6.503   4.484  17.951  0.00  0.00    +0.000 A 
BRANCH   8  11
ATOM     11  N   UNL     1       7.147   4.875  14.258  0.00  0.00    +0.000 N 
ATOM     12  O   UNL     1       8.101   5.664  14.280  0.00  0.00    +0.000 OA
ATOM     13  O   UNL     1       6.718   4.316  13.237  0.00  0.00    +0.000 OA
ENDBRANCH   8  11
ENDBRANCH   2   5
BRANCH   1  14
ATOM     14  C   UNL     1       2.510   4.044  20.659  0.00  0.00    +0.000 C 
BRANCH  14  15
ATOM     15  C   UNL     1       1.197   3.298  20.442  0.00  0.00    +0.000 C 
BRANCH  15  17
ATOM     16  O   UNL     1       0.694   3.289  18.072  0.00  0.00    +0.000 OA
ATOM     17  C   UNL     1       1.124   2.709  19.057  0.00  0.00    +0.000 C 
BRANCH  17  18
ATOM     18  O   UNL     1       1.616   1.450  18.992  0.00  0.00    +0.000 OA
ATOM     19  H   UNL     1       0.932   0.753  18.994  0.00  0.00    +0.000 HD
ENDBRANCH  17  18
ENDBRANCH  15  17
ENDBRANCH  14  15
ENDBRANCH   1  14
TORSDOF 6
ENDMDL
MODEL 2
REMARK VINA RESULT:      -6.5      1.870      2.636
REMARK  Name = 
REMARK  6 active torsions:
REMARK  status: ('A' for Active; 'I' for Inactive)
REMARK    1  A    between atoms: C_2  and  O_3
REMARK    2  A    between atoms: C_2  and  C_4
REMARK    3  A    between atoms: C_4  and  C_5
REMARK    4  A    between atoms: C_5  and  N_6
REMARK    5  A    between atoms: C_7  and  C_9
REMARK    6  A    between atoms: C_12  and  N_13
REMARK                            x       y       z     vdW  Elec       q    Type
REMARK                         _______ _______ _______ _____ _____    ______ ____
ROOT
ATOM      1  N   UNL     1       2.402   2.981  18.817  0.00  0.00    +0.000 N 
ATOM      2  C   UNL     1       2.294   3.968  17.860  0.00  0.00    +0.000 C 
ATOM      3  O   UNL     1       1.215   4.343  17.414  0.00  0.00    +0.000 OA
ATOM      4  H   UNL     1       3.303   2.565  19.023  0.00  0.00    +0.000 HD
ENDROOT
BRANCH   2   5
ATOM      5  C   UNL     1       3.564   4.536  17.321  0.00  0.00    +0.000 A 
ATOM      6  C   UNL     1       4.478   3.651  16.729  0.00  0.00    +0.000 A 
ATOM      7  C   UNL     1       5.701   4.114  16.232  0.00  0.00    +0.000 A 
ATOM      8  C   UNL     1       6.006   5.478  16.318  0.00  0.00    +0.000 A 
ATOM      9  C   UNL     1       5.089   6.377  16.882  0.00  0.00    +0.000 A 
ATOM     10  C   UNL     1       3.867   5.903  17.379  0.00  0.00    +0.000 A 
BRANCH   8  11
ATOM     11  N   UNL     1       7.296   5.968  15.815  0.00  0.00    +0.000 N 
ATOM     12  O   UNL     1       7.768   5.421  14.809  0.00  0.00    +0.000 OA
ATOM     13  O   UNL     1       7.838   6.897  16.433  0.00  0.00    +0.000 OA
ENDBRANCH   8  11
ENDBRANCH   2   5
BRANCH   1  14
ATOM     14  C   UNL     1       1.233   2.293  19.338  0.00  0.00    +0.000 C 
BRANCH  14  15
ATOM     15  C   UNL     1       0.828   2.781  20.726  0.00  0.00    +0.000 C 
BRANCH  15  17
ATOM     16  O   UNL     1       2.221   4.614  21.479  0.00  0.00    +0.000 OA
ATOM     17  C   UNL     1       1.991   3.415  21.444  0.00  0.00    +0.000 C 
BRANCH  17  18
ATOM     18  O   UNL     1       2.768   2.515  22.089  0.00  0.00    +0.000 OA
ATOM     19  H   UNL     1       2.559   1.584  21.879  0.00  0.00    +0.000 HD
ENDBRANCH  17  18
ENDBRANCH  15  17
ENDBRANCH  14  15
ENDBRANCH   1  14
TORSDOF 6
ENDMDL
MODEL 3
REMARK VINA RESULT:      -6.4      1.532      2.107
REMARK  Name = 
REMARK  6 active torsions:
REMARK  status: ('A' for Active; 'I' for Inactive)
REMARK    1  A    between atoms: C_2  and  O_3
REMARK    2  A    between atoms: C_2  and  C_4
REMARK    3  A    between atoms: C_4  and  C_5
REMARK    4  A    between atoms: C_5  and  N_6
REMARK    5  A    between atoms: C_7  and  C_9
REMARK    6  A    between atoms: C_12  and  N_13
REMARK                            x       y       z     vdW  Elec       q    Type
REMARK                         _______ _______ _______ _____ _____    ______ ____
ROOT
ATOM      1  N   UNL     1       3.217   4.729  19.804  0.00  0.00    +0.000 N 
ATOM      2  C   UNL     1       3.120   5.549  18.700  0.00  0.00    +0.000 C 
ATOM      3  O   UNL     1       2.259   6.416  18.591  0.00  0.00    +0.000 OA
ATOM      4  H   UNL     1       3.810   3.908  19.781  0.00  0.00    +0.000 HD
ENDROOT
BRANCH   2   5
ATOM      5  C   UNL     1       4.077   5.301  17.582  0.00  0.00    +0.000 A 
ATOM      6  C   UNL     1       4.616   6.415  16.921  0.00  0.00    +0.000 A 
ATOM      7  C   UNL     1       5.495   6.252  15.845  0.00  0.00    +0.000 A 
ATOM      8  C   UNL     1       5.846   4.960  15.436  0.00  0.00    +0.000 A 
ATOM      9  C   UNL     1       5.337   3.838  16.105  0.00  0.00    +0.000 A 
ATOM     10  C   UNL     1       4.456   4.012  17.181  0.00  0.00    +0.000 A 
BRANCH   8  11
ATOM     11  N   UNL     1       6.755   4.780  14.295  0.00  0.00    +0.000 N 
ATOM     12  O   UNL     1       6.463   3.917  13.457  0.00  0.00    +0.000 OA
ATOM     13  O   UNL     1       7.763   5.501  14.244  0.00  0.00    +0.000 OA
ENDBRANCH   8  11
ENDBRANCH   2   5
BRANCH   1  14
ATOM     14  C   UNL     1       2.274   4.821  20.907  0.00  0.00    +0.000 C 
BRANCH  14  15
ATOM     15  C   UNL     1       1.605   3.488  21.226  0.00  0.00    +0.000 C 
BRANCH  15  17
ATOM     16  O   UNL     1       2.233   2.008  19.414  0.00  0.00    +0.000 OA
ATOM     17  C   UNL     1       1.379   2.675  19.977  0.00  0.00    +0.000 C 
BRANCH  17  18
ATOM     18  O   UNL     1       0.101   2.729  19.535  0.00  0.00    +0.000 OA
ATOM     19  H   UNL     1      -0.014   2.437  18.610  0.00  0.00    +0.000 HD
ENDBRANCH  17  18
ENDBRANCH  15  17
ENDBRANCH  14  15
ENDBRANCH   1  14
TORSDOF 6
ENDMDL
MODEL 4
REMARK VINA RESULT:      -6.4      1.733      2.194
REMARK  Name = 
REMARK  6 active torsions:
REMARK  status: ('A' for Active; 'I' for Inactive)
REMARK    1  A    between atoms: C_2  and  O_3
REMARK    2  A    between atoms: C_2  and  C_4
REMARK    3  A    between atoms: C_4  and  C_5
REMARK    4  A    between atoms: C_5  and  N_6
REMARK    5  A    between atoms: C_7  and  C_9
REMARK    6  A    between atoms: C_12  and  N_13
REMARK                            x       y       z     vdW  Elec       q    Type
REMARK                         _______ _______ _______ _____ _____    ______ ____
ROOT
ATOM      1  N   UNL     1       3.207   5.068  19.670  0.00  0.00    +0.000 N 
ATOM      2  C   UNL     1       3.064   5.755  18.483  0.00  0.00    +0.000 C 
ATOM      3  O   UNL     1       2.143   6.537  18.275  0.00  0.00    +0.000 OA
ATOM      4  H   UNL     1       3.861   4.298  19.739  0.00  0.00    +0.000 HD
ENDROOT
BRANCH   2   5
ATOM      5  C   UNL     1       4.054   5.462  17.404  0.00  0.00    +0.000 A 
ATOM      6  C   UNL     1       4.668   6.551  16.766  0.00  0.00    +0.000 A 
ATOM      7  C   UNL     1       5.582   6.347  15.726  0.00  0.00    +0.000 A 
ATOM      8  C   UNL     1       5.892   5.040  15.332  0.00  0.00    +0.000 A 
ATOM      9  C   UNL     1       5.307   3.942  15.981  0.00  0.00    +0.000 A 
ATOM     10  C   UNL     1       4.391   4.157  17.020  0.00  0.00    +0.000 A 
BRANCH   8  11
ATOM     11  N   UNL     1       6.837   4.817  14.228  0.00  0.00    +0.000 N 
ATOM     12  O   UNL     1       7.893   5.464  14.236  0.00  0.00    +0.000 OA
ATOM     13  O   UNL     1       6.515   4.001  13.353  0.00  0.00    +0.000 OA
ENDBRANCH   8  11
ENDBRANCH   2   5
BRANCH   1  14
ATOM     14  C   UNL     1       2.244   5.205  20.749  0.00  0.00    +0.000 C 
BRANCH  14  15
ATOM     15  C   UNL     1       1.086   4.218  20.640  0.00  0.00    +0.000 C 
BRANCH  15  17
ATOM     16  O   UNL     1       1.843   2.049  19.870  0.00  0.00    +0.000 OA
ATOM     17  C   UNL     1       1.562   2.796  20.794  0.00  0.00    +0.000 C 
BRANCH  17  18
ATOM     18  O   UNL     1       1.680   2.416  22.087  0.00  0.00    +0.000 OA
ATOM     19  H   UNL     1       2.594   2.204  22.360  0.00  0.00    +0.000 HD
ENDBRANCH  17  18
ENDBRANCH  15  17
ENDBRANCH  14  15
ENDBRANCH   1  14
TORSDOF 6
ENDMDL
MODEL 5
REMARK VINA RESULT:      -6.3      0.812      1.116
REMARK  Name = 
REMARK  6 active torsions:
REMARK  status: ('A' for Active; 'I' for Inactive)
REMARK    1  A    between atoms: C_2  and  O_3
REMARK    2  A    between atoms: C_2  and  C_4
REMARK    3  A    between atoms: C_4  and  C_5
REMARK    4  A    between atoms: C_5  and  N_6
REMARK    5  A    between atoms: C_7  and  C_9
REMARK    6  A    between atoms: C_12  and  N_13
REMARK                            x       y       z     vdW  Elec       q    Type
REMARK                         _______ _______ _______ _____ _____    ______ ____
ROOT
ATOM      1  N   UNL     1       3.582   4.545  18.778  0.00  0.00    +0.000 N 
ATOM      2  C   UNL     1       4.882   4.102  18.656  0.00  0.00    +0.000 C 
ATOM      3  O   UNL     1       5.494   3.580  19.582  0.00  0.00    +0.000 OA
ATOM      4  H   UNL     1       3.174   5.136  18.064  0.00  0.00    +0.000 HD
ENDROOT
BRANCH   2   5
ATOM      5  C   UNL     1       5.562   4.340  17.349  0.00  0.00    +0.000 A 
ATOM      6  C   UNL     1       4.788   4.252  16.182  0.00  0.00    +0.000 A 
ATOM      7  C   UNL     1       5.370   4.434  14.923  0.00  0.00    +0.000 A 
ATOM      8  C   UNL     1       6.738   4.719  14.834  0.00  0.00    +0.000 A 
ATOM      9  C   UNL     1       7.517   4.837  15.994  0.00  0.00    +0.000 A 
ATOM     10  C   UNL     1       6.925   4.651  17.251  0.00  0.00    +0.000 A 
BRANCH   8  11
ATOM     11  N   UNL     1       7.361   4.893  13.515  0.00  0.00    +0.000 N 
ATOM     12  O   UNL     1       8.270   5.727  13.413  0.00  0.00    +0.000 OA
ATOM     13  O   UNL     1       6.933   4.198  12.582  0.00  0.00    +0.000 OA
ENDBRANCH   8  11
ENDBRANCH   2   5
BRANCH   1  14
ATOM     14  C   UNL     1       2.860   4.451  20.036  0.00  0.00    +0.000 C 
BRANCH  14  15
ATOM     15  C   UNL     1       1.409   4.014  19.855  0.00  0.00    +0.000 C 
BRANCH  15  17
ATOM     16  O   UNL     1       1.220   2.013  18.503  0.00  0.00    +0.000 OA
ATOM     17  C   UNL     1       1.228   3.232  18.580  0.00  0.00    +0.000 C 
BRANCH  17  18
ATOM     18  O   UNL     1       1.044   4.022  17.497  0.00  0.00    +0.000 OA
ATOM     19  H   UNL     1       1.802   4.038  16.881  0.00  0.00    +0.000 HD
ENDBRANCH  17  18
ENDBRANCH  15  17
ENDBRANCH  14  15
ENDBRANCH   1  14
TORSDOF 6
ENDMDL
MODEL 6
REMARK VINA RESULT:      -6.3      0.889      1.658
REMARK  Name = 
REMARK  6 active torsions:
REMARK  status: ('A' for Active; 'I' for Inactive)
REMARK    1  A    between atoms: C_2  and  O_3
REMARK    2  A    between atoms: C_2  and  C_4
REMARK    3  A    between atoms: C_4  and  C_5
REMARK    4  A    between atoms: C_5  and  N_6
REMARK    5  A    between atoms: C_7  and  C_9
REMARK    6  A    between atoms: C_12  and  N_13
REMARK                            x       y       z     vdW  Elec       q    Type
REMARK                         _______ _______ _______ _____ _____    ______ ____
ROOT
ATOM      1  N   UNL     1       3.840   3.423  18.891  0.00  0.00    +0.000 N 
ATOM      2  C   UNL     1       5.031   4.111  18.790  0.00  0.00    +0.000 C 
ATOM      3  O   UNL     1       5.589   4.617  19.758  0.00  0.00    +0.000 OA
ATOM      4  H   UNL     1       3.315   3.185  18.058  0.00  0.00    +0.000 HD
ENDROOT
BRANCH   2   5
ATOM      5  C   UNL     1       5.604   4.282  17.422  0.00  0.00    +0.000 A 
ATOM      6  C   UNL     1       6.944   4.684  17.319  0.00  0.00    +0.000 A 
ATOM      7  C   UNL     1       7.533   4.893  16.067  0.00  0.00    +0.000 A 
ATOM      8  C   UNL     1       6.775   4.685  14.909  0.00  0.00    +0.000 A 
ATOM      9  C   UNL     1       5.443   4.255  14.997  0.00  0.00    +0.000 A 
ATOM     10  C   UNL     1       4.861   4.051  16.256  0.00  0.00    +0.000 A 
BRANCH   8  11
ATOM     11  N   UNL     1       7.381   4.919  13.591  0.00  0.00    +0.000 N 
ATOM     12  O   UNL     1       6.957   4.255  12.635  0.00  0.00    +0.000 OA
ATOM     13  O   UNL     1       8.285   5.764  13.516  0.00  0.00    +0.000 OA
ENDBRANCH   8  11
ENDBRANCH   2   5
BRANCH   1  14
ATOM     14  C   UNL     1       3.148   3.282  20.161  0.00  0.00    +0.000 C 
BRANCH  14  15
ATOM     15  C   UNL     1       1.629   3.305  20.014  0.00  0.00    +0.000 C 
BRANCH  15  17
ATOM     16  O   UNL     1       1.097   3.894  17.725  0.00  0.00    +0.000 OA
ATOM     17  C   UNL     1       1.213   3.040  18.590  0.00  0.00    +0.000 C 
BRANCH  17  18
ATOM     18  O   UNL     1       0.997   1.728  18.338  0.00  0.00    +0.000 OA
ATOM     19  H   UNL     1       1.237   1.135  19.077  0.00  0.00    +0.000 HD
ENDBRANCH  17  18
ENDBRANCH  15  17
ENDBRANCH  14  15
ENDBRANCH   1  14
TORSDOF 6
ENDMDL
MODEL 7
REMARK VINA RESULT:      -6.3      1.572      1.878
REMARK  Name = 
REMARK  6 active torsions:
REMARK  status: ('A' for Active; 'I' for Inactive)
REMARK    1  A    between atoms: C_2  and  O_3
REMARK    2  A    between atoms: C_2  and  C_4
REMARK    3  A    between atoms: C_4  and  C_5
REMARK    4  A    between atoms: C_5  and  N_6
REMARK    5  A    between atoms: C_7  and  C_9
REMARK    6  A    between atoms: C_12  and  N_13
REMARK                            x       y       z     vdW  Elec       q    Type
REMARK                         _______ _______ _______ _____ _____    ______ ____
ROOT
ATOM      1  N   UNL     1       3.181   4.490  19.664  0.00  0.00    +0.000 N 
ATOM      2  C   UNL     1       3.311   5.586  18.837  0.00  0.00    +0.000 C 
ATOM      3  O   UNL     1       2.713   6.639  19.031  0.00  0.00    +0.000 OA
ATOM      4  H   UNL     1       3.534   3.586  19.375  0.00  0.00    +0.000 HD
ENDROOT
BRANCH   2   5
ATOM      5  C   UNL     1       4.175   5.428  17.630  0.00  0.00    +0.000 A 
ATOM      6  C   UNL     1       4.606   4.135  17.297  0.00  0.00    +0.000 A 
ATOM      7  C   UNL     1       5.443   3.922  16.197  0.00  0.00    +0.000 A 
ATOM      8  C   UNL     1       5.841   5.013  15.415  0.00  0.00    +0.000 A 
ATOM      9  C   UNL     1       5.395   6.307  15.720  0.00  0.00    +0.000 A 
ATOM     10  C   UNL     1       4.558   6.511  16.826  0.00  0.00    +0.000 A 
BRANCH   8  11
ATOM     11  N   UNL     1       6.735   4.800  14.269  0.00  0.00    +0.000 N 
ATOM     12  O   UNL     1       6.387   3.974  13.413  0.00  0.00    +0.000 OA
ATOM     13  O   UNL     1       7.787   5.454  14.231  0.00  0.00    +0.000 OA
ENDBRANCH   8  11
ENDBRANCH   2   5
BRANCH   1  14
ATOM     14  C   UNL     1       2.289   4.504  20.812  0.00  0.00    +0.000 C 
BRANCH  14  15
ATOM     15  C   UNL     1       0.912   3.925  20.500  0.00  0.00    +0.000 C 
BRANCH  15  17
ATOM     16  O   UNL     1       0.259   2.453  18.690  0.00  0.00    +0.000 OA
ATOM     17  C   UNL     1       1.017   2.712  19.612  0.00  0.00    +0.000 C 
BRANCH  17  18
ATOM     18  O   UNL     1       2.072   1.923  19.919  0.00  0.00    +0.000 OA
ATOM     19  H   UNL     1       2.936   2.282  19.636  0.00  0.00    +0.000 HD
ENDBRANCH  17  18
ENDBRANCH  15  17
ENDBRANCH  14  15
ENDBRANCH   1  14
TORSDOF 6
ENDMDL
MODEL 8
REMARK VINA RESULT:      -6.2      1.473      1.882
REMARK  Name = 
REMARK  6 active torsions:
REMARK  status: ('A' for Active; 'I' for Inactive)
REMARK    1  A    between atoms: C_2  and  O_3
REMARK    2  A    between atoms: C_2  and  C_4
REMARK    3  A    between atoms: C_4  and  C_5
REMARK    4  A    between atoms: C_5  and  N_6
REMARK    5  A    between atoms: C_7  and  C_9
REMARK    6  A    between atoms: C_12  and  N_13
REMARK                            x       y       z     vdW  Elec       q    Type
REMARK                         _______ _______ _______ _____ _____    ______ ____
ROOT
ATOM      1  N   UNL     1       3.399   4.819  19.803  0.00  0.00    +0.000 N 
ATOM      2  C   UNL     1       3.038   5.415  18.614  0.00  0.00    +0.000 C 
ATOM      3  O   UNL     1       1.953   5.965  18.451  0.00  0.00    +0.000 OA
ATOM      4  H   UNL     1       4.212   4.215  19.846  0.00  0.00    +0.000 HD
ENDROOT
BRANCH   2   5
ATOM      5  C   UNL     1       4.003   5.314  17.480  0.00  0.00    +0.000 A 
ATOM      6  C   UNL     1       4.322   4.033  17.004  0.00  0.00    +0.000 A 
ATOM      7  C   UNL     1       5.243   3.866  15.964  0.00  0.00    +0.000 A 
ATOM      8  C   UNL     1       5.841   4.994  15.390  0.00  0.00    +0.000 A 
ATOM      9  C   UNL     1       5.511   6.281  15.838  0.00  0.00    +0.000 A 
ATOM     10  C   UNL     1       4.588   6.438  16.881  0.00  0.00    +0.000 A 
BRANCH   8  11
ATOM     11  N   UNL     1       6.824   4.826  14.310  0.00  0.00    +0.000 N 
ATOM     12  O   UNL     1       7.866   5.492  14.371  0.00  0.00    +0.000 OA
ATOM     13  O   UNL     1       6.546   4.033  13.398  0.00  0.00    +0.000 OA
ENDBRANCH   8  11
ENDBRANCH   2   5
BRANCH   1  14
ATOM     14  C   UNL     1       2.494   4.774  20.939  0.00  0.00    +0.000 C 
BRANCH  14  15
ATOM     15  C   UNL     1       2.059   3.356  21.296  0.00  0.00    +0.000 C 
BRANCH  15  17
ATOM     16  O   UNL     1       2.132   1.909  19.354  0.00  0.00    +0.000 OA
ATOM     17  C   UNL     1       1.494   2.639  20.097  0.00  0.00    +0.000 C 
BRANCH  17  18
ATOM     18  O   UNL     1       0.170   2.861  19.924  0.00  0.00    +0.000 OA
ATOM     19  H   UNL     1      -0.137   2.751  19.003  0.00  0.00    +0.000 HD
ENDBRANCH  17  18
ENDBRANCH  15  17
ENDBRANCH  14  15
ENDBRANCH   1  14
TORSDOF 6
ENDMDL
MODEL 9
REMARK VINA RESULT:      -6.2      1.524      1.773
REMARK  Name = 
REMARK  6 active torsions:
REMARK  status: ('A' for Active; 'I' for Inactive)
REMARK    1  A    between atoms: C_2  and  O_3
REMARK    2  A    between atoms: C_2  and  C_4
REMARK    3  A    between atoms: C_4  and  C_5
REMARK    4  A    between atoms: C_5  and  N_6
REMARK    5  A    between atoms: C_7  and  C_9
REMARK    6  A    between atoms: C_12  and  N_13
REMARK                            x       y       z     vdW  Elec       q    Type
REMARK                         _______ _______ _______ _____ _____    ______ ____
ROOT
ATOM      1  N   UNL     1       3.379   4.858  18.941  0.00  0.00    +0.000 N 
ATOM      2  C   UNL     1       4.624   4.283  18.798  0.00  0.00    +0.000 C 
ATOM      3  O   UNL     1       5.180   3.671  19.703  0.00  0.00    +0.000 OA
ATOM      4  H   UNL     1       3.034   5.510  18.248  0.00  0.00    +0.000 HD
ENDROOT
BRANCH   2   5
ATOM      5  C   UNL     1       5.323   4.489  17.495  0.00  0.00    +0.000 A 
ATOM      6  C   UNL     1       4.796   3.851  16.361  0.00  0.00    +0.000 A 
ATOM      7  C   UNL     1       5.420   3.977  15.116  0.00  0.00    +0.000 A 
ATOM      8  C   UNL     1       6.575   4.761  15.003  0.00  0.00    +0.000 A 
ATOM      9  C   UNL     1       7.095   5.427  16.122  0.00  0.00    +0.000 A 
ATOM     10  C   UNL     1       6.464   5.292  17.366  0.00  0.00    +0.000 A 
BRANCH   8  11
ATOM     11  N   UNL     1       7.247   4.884  13.702  0.00  0.00    +0.000 N 
ATOM     12  O   UNL     1       6.851   4.159  12.779  0.00  0.00    +0.000 OA
ATOM     13  O   UNL     1       8.174   5.701  13.609  0.00  0.00    +0.000 OA
ENDBRANCH   8  11
ENDBRANCH   2   5
BRANCH   1  14
ATOM     14  C   UNL     1       2.654   4.801  20.200  0.00  0.00    +0.000 C 
BRANCH  14  15
ATOM     15  C   UNL     1       1.738   3.585  20.302  0.00  0.00    +0.000 C 
BRANCH  15  17
ATOM     16  O   UNL     1       1.316   2.462  22.406  0.00  0.00    +0.000 OA
ATOM     17  C   UNL     1       2.085   2.737  21.498  0.00  0.00    +0.000 C 
BRANCH  17  18
ATOM     18  O   UNL     1       3.355   2.271  21.466  0.00  0.00    +0.000 OA
ATOM     19  H   UNL     1       3.447   1.390  21.055  0.00  0.00    +0.000 HD
ENDBRANCH  17  18
ENDBRANCH  15  17
ENDBRANCH  14  15
ENDBRANCH   1  14
TORSDOF 6
ENDMDL
