MODEL 1
REMARK VINA RESULT:      -7.8      0.000      0.000
REMARK  Name = 
REMARK  8 active torsions:
REMARK  status: ('A' for Active; 'I' for Inactive)
REMARK    1  A    between atoms: C_1  and  C_2
REMARK    2  A    between atoms: C_2  and  O_4
REMARK    3  A    between atoms: O_4  and  C_5
REMARK    4  A    between atoms: C_5  and  C_6
REMARK    5  A    between atoms: C_6  and  C_7
REMARK    6  A    between atoms: C_8  and  C_9
REMARK    7  A    between atoms: C_9  and  O_11
REMARK    8  A    between atoms: C_16  and  C_17
REMARK                            x       y       z     vdW  Elec       q    Type
REMARK                         _______ _______ _______ _____ _____    ______ ____
ROOT
ATOM      1  C   UNL     1       4.061   3.974  17.809  0.00  0.00    +0.000 C 
ATOM      2  C   UNL     1       3.142   3.973  16.561  0.00  0.00    +0.000 C 
ATOM      3  C   UNL     1       3.397   3.295  19.028  0.00  0.00    +0.000 C 
ATOM      4  N   UNL     1       2.298   4.216  19.444  0.00  0.00    +0.000 N 
ATOM      5  C   UNL     1       2.169   4.642  20.745  0.00  0.00    +0.000 C 
ATOM      6  O   UNL     1       2.204   4.029  21.782  0.00  0.00    +0.000 OA
ATOM      7  C   UNL     1       1.982   6.028  20.338  0.00  0.00    +0.000 C 
ATOM      8  C   UNL     1       1.544   7.181  20.862  0.00  0.00    +0.000 C 
ATOM      9  C   UNL     1       2.423   5.635  18.963  0.00  0.00    +0.000 C 
ATOM     10  S   UNL     1       4.163   5.661  18.487  0.00  0.00    +0.000 S 
ATOM     11  O   UNL     1       5.023   5.623  19.658  0.00  0.00    +0.000 OA
ATOM     12  O   UNL     1       4.415   6.594  17.407  0.00  0.00    +0.000 OA
ENDROOT
BRANCH   8  13
ATOM     13  C   UNL     1       1.394   8.425  20.078  0.00  0.00    +0.000 A 
ATOM     14  C   UNL     1       1.825   8.530  18.762  0.00  0.00    +0.000 A 
ATOM     15  C   UNL     1       1.685   9.753  18.100  0.00  0.00    +0.000 A 
ATOM     16  C   UNL     1       1.112  10.831  18.764  0.00  0.00    +0.000 A 
ATOM     17  C   UNL     1       0.705  10.643  20.071  0.00  0.00    +0.000 A 
ATOM     18  N   UNL     1       0.843   9.475  20.739  0.00  0.00    +0.000 NA
ENDBRANCH   8  13
BRANCH   3  19
ATOM     19  C   UNL     1       2.974   1.865  18.719  0.00  0.00    +0.000 C 
ATOM     20  O   UNL     1       3.771   0.957  18.541  0.00  0.00    +0.000 OA
BRANCH  19  21
ATOM     21  O   UNL     1       1.641   1.678  18.641  0.00  0.00    +0.000 OA
ATOM     22  H   UNL     1       1.144   2.521  18.626  0.00  0.00    +0.000 HD
ENDBRANCH  19  21
ENDBRANCH   3  19
BRANCH   1  23
ATOM     23  C   UNL     1       5.444   3.437  17.450  0.00  0.00    +0.000 C 
BRANCH  23  24
ATOM     24  O   UNL     1       5.861   3.959  16.174  0.00  0.00    +0.000 OA
BRANCH  24  26
ATOM     25  C   UNL     1       7.688   4.596  17.505  0.00  0.00    +0.000 C 
ATOM     26  C   UNL     1       7.022   4.670  16.165  0.00  0.00    +0.000 C 
ATOM     27  O   UNL     1       7.465   5.294  15.214  0.00  0.00    +0.000 OA
ENDBRANCH  24  26
ENDBRANCH  23  24
ENDBRANCH   1  23
TORSDOF 6
ENDMDL
MODEL 2
REMARK VINA RESULT:      -7.7      0.732      1.185
REMARK  Name = 
REMARK  8 active torsions:
REMARK  status: ('A' for Active; 'I' for Inactive)
REMARK    1  A    between atoms: C_1  and  C_2
REMARK    2  A    between atoms: C_2  and  O_4
REMARK    3  A    between atoms: O_4  and  C_5
REMARK    4  A    between atoms: C_5  and  C_6
REMARK    5  A    between atoms: C_6  and  C_7
REMARK    6  A    between atoms: C_8  and  C_9
REMARK    7  A    between atoms: C_9  and  O_11
REMARK    8  A    between atoms: C_16  and  C_17
REMARK                            x       y       z     vdW  Elec       q    Type
REMARK                         _______ _______ _______ _____ _____    ______ ____
ROOT
ATOM      1  C   UNL     1       4.065   3.957  17.840  0.00  0.00    +0.000 C 
ATOM      2  C   UNL     1       3.133   3.953  16.601  0.00  0.00    +0.000 C 
ATOM      3  C   UNL     1       3.424   3.258  19.060  0.00  0.00    +0.000 C 
ATOM      4  N   UNL     1       2.316   4.160  19.495  0.00  0.00    +0.000 N 
ATOM      5  C   UNL     1       2.195   4.572  20.801  0.00  0.00    +0.000 C 
ATOM      6  O   UNL     1       2.249   3.952  21.833  0.00  0.00    +0.000 OA
ATOM      7  C   UNL     1       1.984   5.960  20.407  0.00  0.00    +0.000 C 
ATOM      8  C   UNL     1       1.534   7.101  20.946  0.00  0.00    +0.000 C 
ATOM      9  C   UNL     1       2.415   5.584  19.024  0.00  0.00    +0.000 C 
ATOM     10  S   UNL     1       4.150   5.640  18.531  0.00  0.00    +0.000 S 
ATOM     11  O   UNL     1       5.023   5.604  19.692  0.00  0.00    +0.000 OA
ATOM     12  O   UNL     1       4.377   6.585  17.456  0.00  0.00    +0.000 OA
ENDROOT
BRANCH   8  13
ATOM     13  C   UNL     1       1.358   8.350  20.174  0.00  0.00    +0.000 A 
ATOM     14  C   UNL     1       0.629   9.427  20.661  0.00  0.00    +0.000 A 
ATOM     15  C   UNL     1       0.473  10.557  19.854  0.00  0.00    +0.000 A 
ATOM     16  C   UNL     1       1.055  10.586  18.592  0.00  0.00    +0.000 A 
ATOM     17  C   UNL     1       1.768   9.476  18.184  0.00  0.00    +0.000 A 
ATOM     18  N   UNL     1       1.921   8.363  18.939  0.00  0.00    +0.000 NA
ENDBRANCH   8  13
BRANCH   3  19
ATOM     19  C   UNL     1       3.018   1.825  18.743  0.00  0.00    +0.000 C 
ATOM     20  O   UNL     1       3.825   0.937  18.514  0.00  0.00    +0.000 OA
BRANCH  19  21
ATOM     21  O   UNL     1       1.687   1.610  18.720  0.00  0.00    +0.000 OA
ATOM     22  H   UNL     1       1.369   1.137  19.515  0.00  0.00    +0.000 HD
ENDBRANCH  19  21
ENDBRANCH   3  19
BRANCH   1  23
ATOM     23  C   UNL     1       5.452   3.442  17.461  0.00  0.00    +0.000 C 
BRANCH  23  24
ATOM     24  O   UNL     1       5.699   3.673  16.062  0.00  0.00    +0.000 OA
BRANCH  24  26
ATOM     25  C   UNL     1       6.780   4.817  14.318  0.00  0.00    +0.000 C 
ATOM     26  C   UNL     1       6.804   4.410  15.760  0.00  0.00    +0.000 C 
ATOM     27  O   UNL     1       7.701   4.696  16.537  0.00  0.00    +0.000 OA
ENDBRANCH  24  26
ENDBRANCH  23  24
ENDBRANCH   1  23
TORSDOF 6
ENDMDL
MODEL 3
REMARK VINA RESULT:      -7.2      2.822      6.407
REMARK  Name = 
REMARK  8 active torsions:
REMARK  status: ('A' for Active; 'I' for Inactive)
REMARK    1  A    between atoms: C_1  and  C_2
REMARK    2  A    between atoms: C_2  and  O_4
REMARK    3  A    between atoms: O_4  and  C_5
REMARK    4  A    between atoms: C_5  and  C_6
REMARK    5  A    between atoms: C_6  and  C_7
REMARK    6  A    between atoms: C_8  and  C_9
REMARK    7  A    between atoms: C_9  and  O_11
REMARK    8  A    between atoms: C_16  and  C_17
REMARK                            x       y       z     vdW  Elec       q    Type
REMARK                         _______ _______ _______ _____ _____    ______ ____
ROOT
ATOM      1  C   UNL     1       2.260   4.441  18.323  0.00  0.00    +0.000 C 
ATOM      2  C   UNL     1       1.532   5.511  17.472  0.00  0.00    +0.000 C 
ATOM      3  C   UNL     1       3.265   5.064  19.317  0.00  0.00    +0.000 C 
ATOM      4  N   UNL     1       4.372   5.605  18.474  0.00  0.00    +0.000 N 
ATOM      5  C   UNL     1       5.688   5.296  18.729  0.00  0.00    +0.000 C 
ATOM      6  O   UNL     1       6.314   5.302  19.758  0.00  0.00    +0.000 OA
ATOM      7  C   UNL     1       5.953   4.996  17.327  0.00  0.00    +0.000 C 
ATOM      8  C   UNL     1       7.006   4.831  16.515  0.00  0.00    +0.000 C 
ATOM      9  C   UNL     1       4.476   5.027  17.090  0.00  0.00    +0.000 C 
ATOM     10  S   UNL     1       3.459   3.548  17.281  0.00  0.00    +0.000 S 
ATOM     11  O   UNL     1       4.128   2.561  18.112  0.00  0.00    +0.000 OA
ATOM     12  O   UNL     1       2.819   3.167  16.039  0.00  0.00    +0.000 OA
ENDROOT
BRANCH   8  13
ATOM     13  C   UNL     1       6.883   4.628  15.056  0.00  0.00    +0.000 A 
ATOM     14  C   UNL     1       5.974   3.734  14.505  0.00  0.00    +0.000 A 
ATOM     15  C   UNL     1       5.946   3.568  13.118  0.00  0.00    +0.000 A 
ATOM     16  C   UNL     1       6.816   4.304  12.320  0.00  0.00    +0.000 A 
ATOM     17  C   UNL     1       7.686   5.175  12.946  0.00  0.00    +0.000 A 
ATOM     18  N   UNL     1       7.744   5.343  14.288  0.00  0.00    +0.000 NA
ENDBRANCH   8  13
BRANCH   3  19
ATOM     19  C   UNL     1       2.595   6.070  20.244  0.00  0.00    +0.000 C 
ATOM     20  O   UNL     1       2.401   7.236  19.935  0.00  0.00    +0.000 OA
BRANCH  19  21
ATOM     21  O   UNL     1       2.239   5.575  21.446  0.00  0.00    +0.000 OA
ATOM     22  H   UNL     1       2.068   4.612  21.421  0.00  0.00    +0.000 HD
ENDBRANCH  19  21
ENDBRANCH   3  19
BRANCH   1  23
ATOM     23  C   UNL     1       1.249   3.482  18.948  0.00  0.00    +0.000 C 
BRANCH  23  24
ATOM     24  O   UNL     1       1.936   2.412  19.624  0.00  0.00    +0.000 OA
BRANCH  24  26
ATOM     25  C   UNL     1       3.265   2.047  21.526  0.00  0.00    +0.000 C 
ATOM     26  C   UNL     1       1.929   2.456  20.985  0.00  0.00    +0.000 C 
ATOM     27  O   UNL     1       0.976   2.770  21.680  0.00  0.00    +0.000 OA
ENDBRANCH  24  26
ENDBRANCH  23  24
ENDBRANCH   1  23
TORSDOF 6
ENDMDL
MODEL 4
REMARK VINA RESULT:      -6.4      2.848      5.142
REMARK  Name = 
REMARK  8 active torsions:
REMARK  status: ('A' for Active; 'I' for Inactive)
REMARK    1  A    between atoms: C_1  and  C_2
REMARK    2  A    between atoms: C_2  and  O_4
REMARK    3  A    between atoms: O_4  and  C_5
REMARK    4  A    between atoms: C_5  and  C_6
REMARK    5  A    between atoms: C_6  and  C_7
REMARK    6  A    between atoms: C_8  and  C_9
REMARK    7  A    between atoms: C_9  and  O_11
REMARK    8  A    between atoms: C_16  and  C_17
REMARK                            x       y       z     vdW  Elec       q    Type
REMARK                         _______ _______ _______ _____ _____    ______ ____
ROOT
ATOM      1  C   UNL     1       6.551   4.996  16.939  0.00  0.00    +0.000 C 
ATOM      2  C   UNL     1       7.432   4.703  18.179  0.00  0.00    +0.000 C 
ATOM      3  C   UNL     1       6.082   6.468  16.886  0.00  0.00    +0.000 C 
ATOM      4  N   UNL     1       5.108   6.613  18.008  0.00  0.00    +0.000 N 
ATOM      5  C   UNL     1       3.856   7.148  17.809  0.00  0.00    +0.000 C 
ATOM      6  O   UNL     1       3.506   8.141  17.224  0.00  0.00    +0.000 OA
ATOM      7  C   UNL     1       3.213   6.077  18.560  0.00  0.00    +0.000 C 
ATOM      8  C   UNL     1       2.030   5.822  19.136  0.00  0.00    +0.000 C 
ATOM      9  C   UNL     1       4.510   5.332  18.519  0.00  0.00    +0.000 C 
ATOM     10  S   UNL     1       4.917   4.221  17.157  0.00  0.00    +0.000 S 
ATOM     11  O   UNL     1       4.117   4.523  15.982  0.00  0.00    +0.000 OA
ATOM     12  O   UNL     1       5.094   2.855  17.607  0.00  0.00    +0.000 OA
ENDROOT
BRANCH   8  13
ATOM     13  C   UNL     1       1.762   4.609  19.939  0.00  0.00    +0.000 A 
ATOM     14  C   UNL     1       0.950   3.580  19.480  0.00  0.00    +0.000 A 
ATOM     15  C   UNL     1       0.711   2.485  20.315  0.00  0.00    +0.000 A 
ATOM     16  C   UNL     1       1.295   2.442  21.575  0.00  0.00    +0.000 A 
ATOM     17  C   UNL     1       2.094   3.504  21.954  0.00  0.00    +0.000 A 
ATOM     18  N   UNL     1       2.329   4.582  21.172  0.00  0.00    +0.000 NA
ENDBRANCH   8  13
BRANCH   3  19
ATOM     19  C   UNL     1       7.257   7.437  16.906  0.00  0.00    +0.000 C 
ATOM     20  O   UNL     1       7.307   8.409  17.644  0.00  0.00    +0.000 OA
BRANCH  19  21
ATOM     21  O   UNL     1       8.240   7.145  16.032  0.00  0.00    +0.000 OA
ATOM     22  H   UNL     1       9.119   7.441  16.342  0.00  0.00    +0.000 HD
ENDBRANCH  19  21
ENDBRANCH   3  19
BRANCH   1  23
ATOM     23  C   UNL     1       7.237   4.495  15.670  0.00  0.00    +0.000 C 
BRANCH  23  24
ATOM     24  O   UNL     1       6.767   5.237  14.529  0.00  0.00    +0.000 OA
BRANCH  24  26
ATOM     25  C   UNL     1       6.987   4.153  12.457  0.00  0.00    +0.000 C 
ATOM     26  C   UNL     1       7.539   5.170  13.409  0.00  0.00    +0.000 C 
ATOM     27  O   UNL     1       8.546   5.828  13.201  0.00  0.00    +0.000 OA
ENDBRANCH  24  26
ENDBRANCH  23  24
ENDBRANCH   1  23
TORSDOF 6
ENDMDL
MODEL 5
REMARK VINA RESULT:      -6.3      2.987      5.257
REMARK  Name = 
REMARK  8 active torsions:
REMARK  status: ('A' for Active; 'I' for Inactive)
REMARK    1  A    between atoms: C_1  and  C_2
REMARK    2  A    between atoms: C_2  and  O_4
REMARK    3  A    between atoms: O_4  and  C_5
REMARK    4  A    between atoms: C_5  and  C_6
REMARK    5  A    between atoms: C_6  and  C_7
REMARK    6  A    between atoms: C_8  and  C_9
REMARK    7  A    between atoms: C_9  and  O_11
REMARK    8  A    between atoms: C_16  and  C_17
REMARK                            x       y       z     vdW  Elec       q    Type
REMARK                         _______ _______ _______ _____ _____    ______ ____
ROOT
ATOM      1  C   UNL     1       6.767   5.085  17.070  0.00  0.00    +0.000 C 
ATOM      2  C   UNL     1       7.418   4.501  18.349  0.00  0.00    +0.000 C 
ATOM      3  C   UNL     1       6.366   6.568  17.239  0.00  0.00    +0.000 C 
ATOM      4  N   UNL     1       5.224   6.562  18.201  0.00  0.00    +0.000 N 
ATOM      5  C   UNL     1       4.043   7.207  17.919  0.00  0.00    +0.000 C 
ATOM      6  O   UNL     1       3.831   8.316  17.497  0.00  0.00    +0.000 OA
ATOM      7  C   UNL     1       3.246   6.059  18.331  0.00  0.00    +0.000 C 
ATOM      8  C   UNL     1       1.975   5.778  18.652  0.00  0.00    +0.000 C 
ATOM      9  C   UNL     1       4.505   5.250  18.346  0.00  0.00    +0.000 C 
ATOM     10  S   UNL     1       5.094   4.395  16.870  0.00  0.00    +0.000 S 
ATOM     11  O   UNL     1       4.512   4.970  15.669  0.00  0.00    +0.000 OA
ATOM     12  O   UNL     1       5.145   2.959  17.060  0.00  0.00    +0.000 OA
ENDROOT
BRANCH   8  13
ATOM     13  C   UNL     1       1.535   4.456  19.144  0.00  0.00    +0.000 A 
ATOM     14  C   UNL     1       1.439   4.162  20.498  0.00  0.00    +0.000 A 
ATOM     15  C   UNL     1       1.054   2.875  20.884  0.00  0.00    +0.000 A 
ATOM     16  C   UNL     1       0.767   1.924  19.913  0.00  0.00    +0.000 A 
ATOM     17  C   UNL     1       0.881   2.297  18.588  0.00  0.00    +0.000 A 
ATOM     18  N   UNL     1       1.267   3.531  18.187  0.00  0.00    +0.000 NA
ENDBRANCH   8  13
BRANCH   3  19
ATOM     19  C   UNL     1       7.554   7.434  17.637  0.00  0.00    +0.000 C 
ATOM     20  O   UNL     1       8.251   7.204  18.614  0.00  0.00    +0.000 OA
BRANCH  19  21
ATOM     21  O   UNL     1       7.774   8.491  16.829  0.00  0.00    +0.000 OA
ATOM     22  H   UNL     1       8.457   9.097  17.180  0.00  0.00    +0.000 HD
ENDBRANCH  19  21
ENDBRANCH   3  19
BRANCH   1  23
ATOM     23  C   UNL     1       7.637   4.791  15.850  0.00  0.00    +0.000 C 
BRANCH  23  24
ATOM     24  O   UNL     1       7.279   5.668  14.765  0.00  0.00    +0.000 OA
BRANCH  24  26
ATOM     25  C   UNL     1       6.618   3.959  13.296  0.00  0.00    +0.000 C 
ATOM     26  C   UNL     1       7.464   5.177  13.509  0.00  0.00    +0.000 C 
ATOM     27  O   UNL     1       8.218   5.642  12.669  0.00  0.00    +0.000 OA
ENDBRANCH  24  26
ENDBRANCH  23  24
ENDBRANCH   1  23
TORSDOF 6
ENDMDL
MODEL 6
REMARK VINA RESULT:      -6.3      4.820      9.068
REMARK  Name = 
REMARK  8 active torsions:
REMARK  status: ('A' for Active; 'I' for Inactive)
REMARK    1  A    between atoms: C_1  and  C_2
REMARK    2  A    between atoms: C_2  and  O_4
REMARK    3  A    between atoms: O_4  and  C_5
REMARK    4  A    between atoms: C_5  and  C_6
REMARK    5  A    between atoms: C_6  and  C_7
REMARK    6  A    between atoms: C_8  and  C_9
REMARK    7  A    between atoms: C_9  and  O_11
REMARK    8  A    between atoms: C_16  and  C_17
REMARK                            x       y       z     vdW  Elec       q    Type
REMARK                         _______ _______ _______ _____ _____    ______ ____
ROOT
ATOM      1  C   UNL     1      -0.827  11.283  20.189  0.00  0.00    +0.000 C 
ATOM      2  C   UNL     1      -2.093  10.656  19.552  0.00  0.00    +0.000 C 
ATOM      3  C   UNL     1       0.089  11.951  19.140  0.00  0.00    +0.000 C 
ATOM      4  N   UNL     1       0.661  10.827  18.340  0.00  0.00    +0.000 N 
ATOM      5  C   UNL     1       2.015  10.710  18.130  0.00  0.00    +0.000 C 
ATOM      6  O   UNL     1       2.833  11.524  17.784  0.00  0.00    +0.000 OA
ATOM      7  C   UNL     1       2.007   9.294  18.474  0.00  0.00    +0.000 C 
ATOM      8  C   UNL     1       2.803   8.223  18.345  0.00  0.00    +0.000 C 
ATOM      9  C   UNL     1       0.618   9.476  18.998  0.00  0.00    +0.000 C 
ATOM     10  S   UNL     1       0.311   9.960  20.709  0.00  0.00    +0.000 S 
ATOM     11  O   UNL     1       1.487  10.583  21.292  0.00  0.00    +0.000 OA
ATOM     12  O   UNL     1      -0.433   8.948  21.433  0.00  0.00    +0.000 OA
ENDROOT
BRANCH   8  13
ATOM     13  C   UNL     1       2.398   6.857  18.743  0.00  0.00    +0.000 A 
ATOM     14  C   UNL     1       2.240   5.831  17.821  0.00  0.00    +0.000 A 
ATOM     15  C   UNL     1       1.815   4.579  18.270  0.00  0.00    +0.000 A 
ATOM     16  C   UNL     1       1.569   4.381  19.624  0.00  0.00    +0.000 A 
ATOM     17  C   UNL     1       1.755   5.452  20.477  0.00  0.00    +0.000 A 
ATOM     18  N   UNL     1       2.151   6.679  20.066  0.00  0.00    +0.000 NA
ENDBRANCH   8  13
BRANCH   3  19
ATOM     19  C   UNL     1      -0.649  13.016  18.340  0.00  0.00    +0.000 C 
ATOM     20  O   UNL     1      -0.727  14.183  18.693  0.00  0.00    +0.000 OA
BRANCH  19  21
ATOM     21  O   UNL     1      -1.228  12.568  17.208  0.00  0.00    +0.000 OA
ATOM     22  H   UNL     1      -0.916  13.043  16.412  0.00  0.00    +0.000 HD
ENDBRANCH  19  21
ENDBRANCH   3  19
BRANCH   1  23
ATOM     23  C   UNL     1      -1.213  12.176  21.366  0.00  0.00    +0.000 C 
BRANCH  23  24
ATOM     24  O   UNL     1      -2.636  12.398  21.373  0.00  0.00    +0.000 OA
BRANCH  24  26
ATOM     25  C   UNL     1      -2.244  13.482  23.419  0.00  0.00    +0.000 C 
ATOM     26  C   UNL     1      -3.195  12.683  22.581  0.00  0.00    +0.000 C 
ATOM     27  O   UNL     1      -4.305  12.333  22.950  0.00  0.00    +0.000 OA
ENDBRANCH  24  26
ENDBRANCH  23  24
ENDBRANCH   1  23
TORSDOF 6
ENDMDL
MODEL 7
REMARK VINA RESULT:      -6.3      7.189      9.952
REMARK  Name = 
REMARK  8 active torsions:
REMARK  status: ('A' for Active; 'I' for Inactive)
REMARK    1  A    between atoms: C_1  and  C_2
REMARK    2  A    between atoms: C_2  and  O_4
REMARK    3  A    between atoms: O_4  and  C_5
REMARK    4  A    between atoms: C_5  and  C_6
REMARK    5  A    between atoms: C_6  and  C_7
REMARK    6  A    between atoms: C_8  and  C_9
REMARK    7  A    between atoms: C_9  and  O_11
REMARK    8  A    between atoms: C_16  and  C_17
REMARK                            x       y       z     vdW  Elec       q    Type
REMARK                         _______ _______ _______ _____ _____    ______ ____
ROOT
ATOM      1  C   UNL     1       0.522  12.421  20.290  0.00  0.00    +0.000 C 
ATOM      2  C   UNL     1       1.200  11.386  19.357  0.00  0.00    +0.000 C 
ATOM      3  C   UNL     1      -0.480  13.324  19.536  0.00  0.00    +0.000 C 
ATOM      4  N   UNL     1       0.356  14.193  18.656  0.00  0.00    +0.000 N 
ATOM      5  C   UNL     1       0.213  15.561  18.650  0.00  0.00    +0.000 C 
ATOM      6  O   UNL     1      -0.773  16.251  18.589  0.00  0.00    +0.000 OA
ATOM      7  C   UNL     1       1.653  15.773  18.734  0.00  0.00    +0.000 C 
ATOM      8  C   UNL     1       2.536  16.763  18.550  0.00  0.00    +0.000 C 
ATOM      9  C   UNL     1       1.801  14.318  19.050  0.00  0.00    +0.000 C 
ATOM     10  S   UNL     1       1.726  13.709  20.747  0.00  0.00    +0.000 S 
ATOM     11  O   UNL     1       1.054  14.663  21.613  0.00  0.00    +0.000 OA
ATOM     12  O   UNL     1       2.966  13.079  21.152  0.00  0.00    +0.000 OA
ENDROOT
BRANCH   8  13
ATOM     13  C   UNL     1       4.000  16.571  18.632  0.00  0.00    +0.000 A 
ATOM     14  C   UNL     1       4.643  15.500  18.025  0.00  0.00    +0.000 A 
ATOM     15  C   UNL     1       6.025  15.365  18.183  0.00  0.00    +0.000 A 
ATOM     16  C   UNL     1       6.727  16.304  18.930  0.00  0.00    +0.000 A 
ATOM     17  C   UNL     1       6.013  17.342  19.496  0.00  0.00    +0.000 A 
ATOM     18  N   UNL     1       4.674  17.488  19.372  0.00  0.00    +0.000 NA
ENDBRANCH   8  13
BRANCH   3  19
ATOM     19  C   UNL     1      -1.554  12.510  18.827  0.00  0.00    +0.000 C 
ATOM     20  O   UNL     1      -2.425  11.893  19.421  0.00  0.00    +0.000 OA
BRANCH  19  21
ATOM     21  O   UNL     1      -1.462  12.511  17.482  0.00  0.00    +0.000 OA
ATOM     22  H   UNL     1      -1.379  13.413  17.112  0.00  0.00    +0.000 HD
ENDBRANCH  19  21
ENDBRANCH   3  19
BRANCH   1  23
ATOM     23  C   UNL     1      -0.045  11.728  21.528  0.00  0.00    +0.000 C 
BRANCH  23  24
ATOM     24  O   UNL     1       0.815  10.642  21.922  0.00  0.00    +0.000 OA
BRANCH  24  26
ATOM     25  C   UNL     1      -0.270   8.564  21.768  0.00  0.00    +0.000 C 
ATOM     26  C   UNL     1       0.237   9.655  22.661  0.00  0.00    +0.000 C 
ATOM     27  O   UNL     1       0.127   9.651  23.878  0.00  0.00    +0.000 OA
ENDBRANCH  24  26
ENDBRANCH  23  24
ENDBRANCH   1  23
TORSDOF 6
ENDMDL
MODEL 8
REMARK VINA RESULT:      -6.2      2.798      6.374
REMARK  Name = 
REMARK  8 active torsions:
REMARK  status: ('A' for Active; 'I' for Inactive)
REMARK    1  A    between atoms: C_1  and  C_2
REMARK    2  A    between atoms: C_2  and  O_4
REMARK    3  A    between atoms: O_4  and  C_5
REMARK    4  A    between atoms: C_5  and  C_6
REMARK    5  A    between atoms: C_6  and  C_7
REMARK    6  A    between atoms: C_8  and  C_9
REMARK    7  A    between atoms: C_9  and  O_11
REMARK    8  A    between atoms: C_16  and  C_17
REMARK                            x       y       z     vdW  Elec       q    Type
REMARK                         _______ _______ _______ _____ _____    ______ ____
ROOT
ATOM      1  C   UNL     1       2.295   4.243  18.460  0.00  0.00    +0.000 C 
ATOM      2  C   UNL     1       1.448   5.154  17.536  0.00  0.00    +0.000 C 
ATOM      3  C   UNL     1       3.247   5.052  19.371  0.00  0.00    +0.000 C 
ATOM      4  N   UNL     1       4.280   5.621  18.456  0.00  0.00    +0.000 N 
ATOM      5  C   UNL     1       5.624   5.469  18.705  0.00  0.00    +0.000 C 
ATOM      6  O   UNL     1       6.262   5.631  19.714  0.00  0.00    +0.000 OA
ATOM      7  C   UNL     1       5.896   5.071  17.330  0.00  0.00    +0.000 C 
ATOM      8  C   UNL     1       6.948   4.939  16.510  0.00  0.00    +0.000 C 
ATOM      9  C   UNL     1       4.420   4.933  17.126  0.00  0.00    +0.000 C 
ATOM     10  S   UNL     1       3.562   3.384  17.473  0.00  0.00    +0.000 S 
ATOM     11  O   UNL     1       4.340   2.548  18.372  0.00  0.00    +0.000 OA
ATOM     12  O   UNL     1       2.944   2.830  16.285  0.00  0.00    +0.000 OA
ENDROOT
BRANCH   8  13
ATOM     13  C   UNL     1       6.824   4.594  15.077  0.00  0.00    +0.000 A 
ATOM     14  C   UNL     1       7.555   5.243  14.092  0.00  0.00    +0.000 A 
ATOM     15  C   UNL     1       7.352   4.888  12.756  0.00  0.00    +0.000 A 
ATOM     16  C   UNL     1       6.434   3.892  12.441  0.00  0.00    +0.000 A 
ATOM     17  C   UNL     1       5.751   3.292  13.481  0.00  0.00    +0.000 A 
ATOM     18  N   UNL     1       5.917   3.628  14.781  0.00  0.00    +0.000 NA
ENDBRANCH   8  13
BRANCH   3  19
ATOM     19  C   UNL     1       2.492   6.065  20.220  0.00  0.00    +0.000 C 
ATOM     20  O   UNL     1       1.758   5.748  21.144  0.00  0.00    +0.000 OA
BRANCH  19  21
ATOM     21  O   UNL     1       2.686   7.351  19.866  0.00  0.00    +0.000 OA
ATOM     22  H   UNL     1       2.060   7.961  20.305  0.00  0.00    +0.000 HD
ENDBRANCH  19  21
ENDBRANCH   3  19
BRANCH   1  23
ATOM     23  C   UNL     1       1.396   3.250  19.193  0.00  0.00    +0.000 C 
BRANCH  23  24
ATOM     24  O   UNL     1       2.194   2.214  19.796  0.00  0.00    +0.000 OA
BRANCH  24  26
ATOM     25  C   UNL     1       1.147   2.636  21.856  0.00  0.00    +0.000 C 
ATOM     26  C   UNL     1       2.424   2.334  21.133  0.00  0.00    +0.000 C 
ATOM     27  O   UNL     1       3.511   2.226  21.679  0.00  0.00    +0.000 OA
ENDBRANCH  24  26
ENDBRANCH  23  24
ENDBRANCH   1  23
TORSDOF 6
ENDMDL
MODEL 9
REMARK VINA RESULT:      -6.2      2.870      5.219
REMARK  Name = 
REMARK  8 active torsions:
REMARK  status: ('A' for Active; 'I' for Inactive)
REMARK    1  A    between atoms: C_1  and  C_2
REMARK    2  A    between atoms: C_2  and  O_4
REMARK    3  A    between atoms: O_4  and  C_5
REMARK    4  A    between atoms: C_5  and  C_6
REMARK    5  A    between atoms: C_6  and  C_7
REMARK    6  A    between atoms: C_8  and  C_9
REMARK    7  A    between atoms: C_9  and  O_11
REMARK    8  A    between atoms: C_16  and  C_17
REMARK                            x       y       z     vdW  Elec       q    Type
REMARK                         _______ _______ _______ _____ _____    ______ ____
ROOT
ATOM      1  C   UNL     1       6.729   5.208  17.234  0.00  0.00    +0.000 C 
ATOM      2  C   UNL     1       7.526   5.023  18.550  0.00  0.00    +0.000 C 
ATOM      3  C   UNL     1       6.190   6.647  17.071  0.00  0.00    +0.000 C 
ATOM      4  N   UNL     1       5.125   6.790  18.108  0.00  0.00    +0.000 N 
ATOM      5  C   UNL     1       3.866   7.243  17.789  0.00  0.00    +0.000 C 
ATOM      6  O   UNL     1       3.512   8.188  17.130  0.00  0.00    +0.000 OA
ATOM      7  C   UNL     1       3.224   6.174  18.542  0.00  0.00    +0.000 C 
ATOM      8  C   UNL     1       2.015   5.880  19.040  0.00  0.00    +0.000 C 
ATOM      9  C   UNL     1       4.558   5.502  18.637  0.00  0.00    +0.000 C 
ATOM     10  S   UNL     1       5.127   4.354  17.367  0.00  0.00    +0.000 S 
ATOM     11  O   UNL     1       4.406   4.556  16.122  0.00  0.00    +0.000 OA
ATOM     12  O   UNL     1       5.340   3.022  17.898  0.00  0.00    +0.000 OA
ENDROOT
BRANCH   8  13
ATOM     13  C   UNL     1       1.749   4.693  19.881  0.00  0.00    +0.000 A 
ATOM     14  C   UNL     1       2.216   4.587  21.184  0.00  0.00    +0.000 A 
ATOM     15  C   UNL     1       1.959   3.415  21.901  0.00  0.00    +0.000 A 
ATOM     16  C   UNL     1       1.236   2.389  21.303  0.00  0.00    +0.000 A 
ATOM     17  C   UNL     1       0.803   2.576  20.005  0.00  0.00    +0.000 A 
ATOM     18  N   UNL     1       1.052   3.693  19.284  0.00  0.00    +0.000 NA
ENDBRANCH   8  13
BRANCH   3  19
ATOM     19  C   UNL     1       7.307   7.681  17.131  0.00  0.00    +0.000 C 
ATOM     20  O   UNL     1       7.234   8.706  17.792  0.00  0.00    +0.000 OA
BRANCH  19  21
ATOM     21  O   UNL     1       8.388   7.383  16.382  0.00  0.00    +0.000 OA
ATOM     22  H   UNL     1       8.163   7.226  15.443  0.00  0.00    +0.000 HD
ENDBRANCH  19  21
ENDBRANCH   3  19
BRANCH   1  23
ATOM     23  C   UNL     1       7.538   4.688  16.047  0.00  0.00    +0.000 C 
BRANCH  23  24
ATOM     24  O   UNL     1       7.223   5.448  14.865  0.00  0.00    +0.000 OA
BRANCH  24  26
ATOM     25  C   UNL     1       7.923   5.317  12.626  0.00  0.00    +0.000 C 
ATOM     26  C   UNL     1       7.073   4.736  13.714  0.00  0.00    +0.000 C 
ATOM     27  O   UNL     1       6.343   3.767  13.569  0.00  0.00    +0.000 OA
ENDBRANCH  24  26
ENDBRANCH  23  24
ENDBRANCH   1  23
TORSDOF 6
ENDMDL
