MODEL 1
REMARK VINA RESULT:      -8.0      0.000      0.000
REMARK  Name = 
REMARK  6 active torsions:
REMARK  status: ('A' for Active; 'I' for Inactive)
REMARK    1  A    between atoms: C_1  and  C_2
REMARK    2  A    between atoms: C_5  and  C_7
REMARK    3  A    between atoms: C_17  and  C_18
REMARK    4  A    between atoms: C_27  and  C_28
REMARK    5  A    between atoms: C_29  and  O_30
REMARK    6  A    between atoms: C_29  and  C_31
REMARK                            x       y       z     vdW  Elec       q    Type
REMARK                         _______ _______ _______ _____ _____    ______ ____
ROOT
ATOM      1  C   UNL     1       0.233  10.092  18.962  0.00  0.00    +0.000 C 
ATOM      2  C   UNL     1       0.574  10.952  20.189  0.00  0.00    +0.000 C 
ATOM      3  N   UNL     1       0.740  12.290  19.675  0.00  0.00    +0.000 N 
ATOM      4  C   UNL     1       1.719  13.189  20.204  0.00  0.00    +0.000 A 
ATOM      5  C   UNL     1       1.905  14.476  19.676  0.00  0.00    +0.000 A 
ATOM      6  C   UNL     1       2.909  15.289  20.199  0.00  0.00    +0.000 A 
ATOM      7  C   UNL     1       3.712  14.806  21.229  0.00  0.00    +0.000 A 
ATOM      8  N   UNL     1       3.490  13.560  21.721  0.00  0.00    +0.000 NA
ATOM      9  N   UNL     1       2.525  12.784  21.226  0.00  0.00    +0.000 NA
ATOM     10  C   UNL     1       0.165  12.445  18.355  0.00  0.00    +0.000 C 
ATOM     11  C   UNL     1      -0.547  11.110  18.064  0.00  0.00    +0.000 C 
ENDROOT
BRANCH   1  16
ATOM     12  C   UNL     1       1.435   5.347  20.785  0.00  0.00    +0.000 C 
ATOM     13  C   UNL     1       1.795   6.142  19.511  0.00  0.00    +0.000 C 
ATOM     14  C   UNL     1       1.818   7.649  19.874  0.00  0.00    +0.000 C 
ATOM     15  N   UNL     1       2.235   8.479  18.744  0.00  0.00    +0.000 N 
ATOM     16  C   UNL     1       1.540   9.598  18.306  0.00  0.00    +0.000 C 
ATOM     17  O   UNL     1       1.982  10.239  17.360  0.00  0.00    +0.000 OA
ATOM     18  C   UNL     1       3.497   8.095  18.119  0.00  0.00    +0.000 C 
ATOM     19  C   UNL     1       3.427   6.626  17.628  0.00  0.00    +0.000 C 
ATOM     20  C   UNL     1       4.733   6.303  16.886  0.00  0.00    +0.000 C 
ATOM     21  C   UNL     1       3.135   5.661  18.835  0.00  0.00    +0.000 C 
BRANCH  21  22
ATOM     22  C   UNL     1       2.889   4.187  18.353  0.00  0.00    +0.000 C 
ATOM     23  C   UNL     1       4.008   3.375  17.741  0.00  0.00    +0.000 C 
ATOM     24  C   UNL     1       3.551   3.065  19.167  0.00  0.00    +0.000 C 
ENDBRANCH  21  22
BRANCH  21  25
ATOM     25  O   UNL     1       4.226   5.680  19.737  0.00  0.00    +0.000 OA
ATOM     26  H   UNL     1       4.360   6.592  20.095  0.00  0.00    +0.000 HD
ENDBRANCH  21  25
ENDBRANCH   1  16
BRANCH  11  27
ATOM     27  C   UNL     1      -2.068  11.183  18.312  0.00  0.00    +0.000 A 
ATOM     28  C   UNL     1      -2.670  12.096  19.202  0.00  0.00    +0.000 A 
ATOM     29  C   UNL     1      -4.055  12.098  19.402  0.00  0.00    +0.000 A 
ATOM     30  C   UNL     1      -4.870  11.211  18.707  0.00  0.00    +0.000 A 
ATOM     31  F   UNL     1      -6.211  11.220  18.907  0.00  0.00    +0.000 F 
ATOM     32  C   UNL     1      -4.306  10.320  17.802  0.00  0.00    +0.000 A 
ATOM     33  C   UNL     1      -2.920  10.295  17.602  0.00  0.00    +0.000 A 
ATOM     34  F   UNL     1      -2.428   9.403  16.706  0.00  0.00    +0.000 F 
ENDBRANCH  11  27
TORSDOF 4
ENDMDL
MODEL 2
REMARK VINA RESULT:      -7.8      3.755      8.412
REMARK  Name = 
REMARK  6 active torsions:
REMARK  status: ('A' for Active; 'I' for Inactive)
REMARK    1  A    between atoms: C_1  and  C_2
REMARK    2  A    between atoms: C_5  and  C_7
REMARK    3  A    between atoms: C_17  and  C_18
REMARK    4  A    between atoms: C_27  and  C_28
REMARK    5  A    between atoms: C_29  and  O_30
REMARK    6  A    between atoms: C_29  and  C_31
REMARK                            x       y       z     vdW  Elec       q    Type
REMARK                         _______ _______ _______ _____ _____    ______ ____
ROOT
ATOM      1  C   UNL     1       0.612  10.382  20.340  0.00  0.00    +0.000 C 
ATOM      2  C   UNL     1      -0.844  10.013  20.012  0.00  0.00    +0.000 C 
ATOM      3  N   UNL     1      -0.912   9.998  18.571  0.00  0.00    +0.000 N 
ATOM      4  C   UNL     1      -2.073  10.443  17.863  0.00  0.00    +0.000 A 
ATOM      5  C   UNL     1      -2.122  10.464  16.460  0.00  0.00    +0.000 A 
ATOM      6  C   UNL     1      -3.260  10.957  15.825  0.00  0.00    +0.000 A 
ATOM      7  C   UNL     1      -4.323  11.424  16.595  0.00  0.00    +0.000 A 
ATOM      8  N   UNL     1      -4.241  11.373  17.948  0.00  0.00    +0.000 NA
ATOM      9  N   UNL     1      -3.155  10.895  18.557  0.00  0.00    +0.000 NA
ATOM     10  C   UNL     1       0.400   9.926  17.962  0.00  0.00    +0.000 C 
ATOM     11  C   UNL     1       1.383   9.747  19.134  0.00  0.00    +0.000 C 
ENDROOT
BRANCH   1  16
ATOM     12  C   UNL     1      -2.952  12.359  23.607  0.00  0.00    +0.000 C 
ATOM     13  C   UNL     1      -1.597  12.851  23.055  0.00  0.00    +0.000 C 
ATOM     14  C   UNL     1      -1.414  12.264  21.632  0.00  0.00    +0.000 C 
ATOM     15  N   UNL     1      -0.191  12.746  20.992  0.00  0.00    +0.000 N 
ATOM     16  C   UNL     1       0.748  11.918  20.392  0.00  0.00    +0.000 C 
ATOM     17  O   UNL     1       1.734  12.423  19.865  0.00  0.00    +0.000 OA
ATOM     18  C   UNL     1      -0.034  14.197  20.958  0.00  0.00    +0.000 C 
ATOM     19  C   UNL     1      -0.077  14.774  22.396  0.00  0.00    +0.000 C 
ATOM     20  C   UNL     1       0.198  16.284  22.319  0.00  0.00    +0.000 C 
ATOM     21  C   UNL     1      -1.445  14.419  23.086  0.00  0.00    +0.000 C 
BRANCH  21  22
ATOM     22  C   UNL     1      -1.457  14.839  24.599  0.00  0.00    +0.000 C 
ATOM     23  C   UNL     1      -1.658  16.284  25.001  0.00  0.00    +0.000 C 
ATOM     24  C   UNL     1      -2.803  15.287  25.190  0.00  0.00    +0.000 C 
ENDBRANCH  21  22
BRANCH  21  25
ATOM     25  O   UNL     1      -2.503  15.074  22.412  0.00  0.00    +0.000 OA
ATOM     26  H   UNL     1      -3.104  14.411  21.990  0.00  0.00    +0.000 HD
ENDBRANCH  21  25
ENDBRANCH   1  16
BRANCH  11  27
ATOM     27  C   UNL     1       1.816   8.279  19.324  0.00  0.00    +0.000 A 
ATOM     28  C   UNL     1       1.524   7.522  20.477  0.00  0.00    +0.000 A 
ATOM     29  C   UNL     1       1.965   6.199  20.600  0.00  0.00    +0.000 A 
ATOM     30  C   UNL     1       2.684   5.597  19.573  0.00  0.00    +0.000 A 
ATOM     31  F   UNL     1       3.109   4.315  19.701  0.00  0.00    +0.000 F 
ATOM     32  C   UNL     1       2.962   6.310  18.414  0.00  0.00    +0.000 A 
ATOM     33  C   UNL     1       2.540   7.639  18.281  0.00  0.00    +0.000 A 
ATOM     34  F   UNL     1       2.840   8.284  17.127  0.00  0.00    +0.000 F 
ENDBRANCH  11  27
TORSDOF 4
ENDMDL
MODEL 3
REMARK VINA RESULT:      -7.8      3.181      7.721
REMARK  Name = 
REMARK  6 active torsions:
REMARK  status: ('A' for Active; 'I' for Inactive)
REMARK    1  A    between atoms: C_1  and  C_2
REMARK    2  A    between atoms: C_5  and  C_7
REMARK    3  A    between atoms: C_17  and  C_18
REMARK    4  A    between atoms: C_27  and  C_28
REMARK    5  A    between atoms: C_29  and  O_30
REMARK    6  A    between atoms: C_29  and  C_31
REMARK                            x       y       z     vdW  Elec       q    Type
REMARK                         _______ _______ _______ _____ _____    ______ ____
ROOT
ATOM      1  C   UNL     1      -0.531  11.124  19.508  0.00  0.00    +0.000 C 
ATOM      2  C   UNL     1       0.272  12.172  18.720  0.00  0.00    +0.000 C 
ATOM      3  N   UNL     1       1.354  12.552  19.597  0.00  0.00    +0.000 N 
ATOM      4  C   UNL     1       1.847  13.893  19.654  0.00  0.00    +0.000 A 
ATOM      5  C   UNL     1       2.873  14.268  20.535  0.00  0.00    +0.000 A 
ATOM      6  C   UNL     1       3.278  15.601  20.583  0.00  0.00    +0.000 A 
ATOM      7  C   UNL     1       2.651  16.534  19.761  0.00  0.00    +0.000 A 
ATOM      8  N   UNL     1       1.673  16.128  18.913  0.00  0.00    +0.000 NA
ATOM      9  N   UNL     1       1.290  14.851  18.861  0.00  0.00    +0.000 NA
ATOM     10  C   UNL     1       1.553  11.595  20.666  0.00  0.00    +0.000 C 
ATOM     11  C   UNL     1       0.588  10.435  20.358  0.00  0.00    +0.000 C 
ENDROOT
BRANCH   1  16
ATOM     12  C   UNL     1      -5.010  11.550  16.854  0.00  0.00    +0.000 C 
ATOM     13  C   UNL     1      -4.631  11.562  18.351  0.00  0.00    +0.000 C 
ATOM     14  C   UNL     1      -3.210  12.167  18.484  0.00  0.00    +0.000 C 
ATOM     15  N   UNL     1      -2.798  12.298  19.882  0.00  0.00    +0.000 N 
ATOM     16  C   UNL     1      -1.586  11.839  20.378  0.00  0.00    +0.000 C 
ATOM     17  O   UNL     1      -1.326  12.013  21.563  0.00  0.00    +0.000 OA
ATOM     18  C   UNL     1      -3.731  13.018  20.743  0.00  0.00    +0.000 C 
ATOM     19  C   UNL     1      -5.120  12.332  20.720  0.00  0.00    +0.000 C 
ATOM     20  C   UNL     1      -6.034  13.059  21.719  0.00  0.00    +0.000 C 
ATOM     21  C   UNL     1      -5.690  12.301  19.255  0.00  0.00    +0.000 C 
BRANCH  21  22
ATOM     22  C   UNL     1      -7.016  11.465  19.165  0.00  0.00    +0.000 C 
ATOM     23  C   UNL     1      -6.985   9.954  19.229  0.00  0.00    +0.000 C 
ATOM     24  C   UNL     1      -7.477  10.745  20.441  0.00  0.00    +0.000 C 
ENDBRANCH  21  22
BRANCH  21  25
ATOM     25  O   UNL     1      -5.942  13.622  18.813  0.00  0.00    +0.000 OA
ATOM     26  H   UNL     1      -5.893  14.254  19.572  0.00  0.00    +0.000 HD
ENDBRANCH  21  25
ENDBRANCH   1  16
BRANCH  11  27
ATOM     27  C   UNL     1       1.294   9.242  19.682  0.00  0.00    +0.000 A 
ATOM     28  C   UNL     1       1.663   9.222  18.321  0.00  0.00    +0.000 A 
ATOM     29  C   UNL     1       2.281   8.098  17.759  0.00  0.00    +0.000 A 
ATOM     30  C   UNL     1       2.566   6.984  18.543  0.00  0.00    +0.000 A 
ATOM     31  F   UNL     1       3.165   5.900  17.990  0.00  0.00    +0.000 F 
ATOM     32  C   UNL     1       2.240   6.988  19.893  0.00  0.00    +0.000 A 
ATOM     33  C   UNL     1       1.607   8.098  20.467  0.00  0.00    +0.000 A 
ATOM     34  F   UNL     1       1.314   8.043  21.790  0.00  0.00    +0.000 F 
ENDBRANCH  11  27
TORSDOF 4
ENDMDL
MODEL 4
REMARK VINA RESULT:      -7.4      3.451      8.121
REMARK  Name = 
REMARK  6 active torsions:
REMARK  status: ('A' for Active; 'I' for Inactive)
REMARK    1  A    between atoms: C_1  and  C_2
REMARK    2  A    between atoms: C_5  and  C_7
REMARK    3  A    between atoms: C_17  and  C_18
REMARK    4  A    between atoms: C_27  and  C_28
REMARK    5  A    between atoms: C_29  and  O_30
REMARK    6  A    between atoms: C_29  and  C_31
REMARK                            x       y       z     vdW  Elec       q    Type
REMARK                         _______ _______ _______ _____ _____    ______ ____
ROOT
ATOM      1  C   UNL     1      -1.041  11.311  20.068  0.00  0.00    +0.000 C 
ATOM      2  C   UNL     1      -0.679  12.359  19.003  0.00  0.00    +0.000 C 
ATOM      3  N   UNL     1       0.522  12.992  19.492  0.00  0.00    +0.000 N 
ATOM      4  C   UNL     1       0.774  14.387  19.301  0.00  0.00    +0.000 A 
ATOM      5  C   UNL     1       1.925  15.008  19.811  0.00  0.00    +0.000 A 
ATOM      6  C   UNL     1       2.093  16.381  19.637  0.00  0.00    +0.000 A 
ATOM      7  C   UNL     1       1.112  17.109  18.968  0.00  0.00    +0.000 A 
ATOM      8  N   UNL     1       0.022  16.468  18.477  0.00  0.00    +0.000 NA
ATOM      9  N   UNL     1      -0.136  15.153  18.637  0.00  0.00    +0.000 NA
ATOM     10  C   UNL     1       1.171  12.211  20.524  0.00  0.00    +0.000 C 
ATOM     11  C   UNL     1       0.371  10.896  20.601  0.00  0.00    +0.000 C 
ENDROOT
BRANCH   1  16
ATOM     12  C   UNL     1      -5.749  12.420  18.095  0.00  0.00    +0.000 C 
ATOM     13  C   UNL     1      -5.195  12.195  19.519  0.00  0.00    +0.000 C 
ATOM     14  C   UNL     1      -3.721  12.674  19.545  0.00  0.00    +0.000 C 
ATOM     15  N   UNL     1      -3.136  12.578  20.882  0.00  0.00    +0.000 N 
ATOM     16  C   UNL     1      -1.918  11.969  21.153  0.00  0.00    +0.000 C 
ATOM     17  O   UNL     1      -1.505  11.957  22.307  0.00  0.00    +0.000 OA
ATOM     18  C   UNL     1      -3.893  13.234  21.944  0.00  0.00    +0.000 C 
ATOM     19  C   UNL     1      -5.330  12.657  22.011  0.00  0.00    +0.000 C 
ATOM     20  C   UNL     1      -6.052  13.299  23.207  0.00  0.00    +0.000 C 
ATOM     21  C   UNL     1      -6.071  12.873  20.641  0.00  0.00    +0.000 C 
BRANCH  21  22
ATOM     22  C   UNL     1      -7.466  12.153  20.615  0.00  0.00    +0.000 C 
ATOM     23  C   UNL     1      -7.558  10.644  20.547  0.00  0.00    +0.000 C 
ATOM     24  C   UNL     1      -7.865  11.355  21.866  0.00  0.00    +0.000 C 
ENDBRANCH  21  22
BRANCH  21  25
ATOM     25  O   UNL     1      -6.257  14.257  20.412  0.00  0.00    +0.000 OA
ATOM     26  H   UNL     1      -7.138  14.421  19.993  0.00  0.00    +0.000 HD
ENDBRANCH  21  25
ENDBRANCH   1  16
BRANCH  11  27
ATOM     27  C   UNL     1       1.055   9.742  19.839  0.00  0.00    +0.000 A 
ATOM     28  C   UNL     1       1.368   9.792  18.466  0.00  0.00    +0.000 A 
ATOM     29  C   UNL     1       1.969   8.702  17.825  0.00  0.00    +0.000 A 
ATOM     30  C   UNL     1       2.289   7.552  18.540  0.00  0.00    +0.000 A 
ATOM     31  F   UNL     1       2.870   6.501  17.911  0.00  0.00    +0.000 F 
ATOM     32  C   UNL     1       2.018   7.487  19.900  0.00  0.00    +0.000 A 
ATOM     33  C   UNL     1       1.404   8.564  20.553  0.00  0.00    +0.000 A 
ATOM     34  F   UNL     1       1.165   8.442  21.883  0.00  0.00    +0.000 F 
ENDBRANCH  11  27
TORSDOF 4
ENDMDL
MODEL 5
REMARK VINA RESULT:      -7.3      3.615      8.288
REMARK  Name = 
REMARK  6 active torsions:
REMARK  status: ('A' for Active; 'I' for Inactive)
REMARK    1  A    between atoms: C_1  and  C_2
REMARK    2  A    between atoms: C_5  and  C_7
REMARK    3  A    between atoms: C_17  and  C_18
REMARK    4  A    between atoms: C_27  and  C_28
REMARK    5  A    between atoms: C_29  and  O_30
REMARK    6  A    between atoms: C_29  and  C_31
REMARK                            x       y       z     vdW  Elec       q    Type
REMARK                         _______ _______ _______ _____ _____    ______ ____
ROOT
ATOM      1  C   UNL     1      -0.619  11.009  20.596  0.00  0.00    +0.000 C 
ATOM      2  C   UNL     1      -0.623  11.991  19.414  0.00  0.00    +0.000 C 
ATOM      3  N   UNL     1       0.633  12.695  19.506  0.00  0.00    +0.000 N 
ATOM      4  C   UNL     1       0.751  14.081  19.171  0.00  0.00    +0.000 A 
ATOM      5  C   UNL     1       1.965  14.773  19.299  0.00  0.00    +0.000 A 
ATOM      6  C   UNL     1       2.008  16.135  19.005  0.00  0.00    +0.000 A 
ATOM      7  C   UNL     1       0.843  16.783  18.599  0.00  0.00    +0.000 A 
ATOM      8  N   UNL     1      -0.307  16.074  18.475  0.00  0.00    +0.000 NA
ATOM      9  N   UNL     1      -0.347  14.769  18.748  0.00  0.00    +0.000 NA
ATOM     10  C   UNL     1       1.583  12.010  20.357  0.00  0.00    +0.000 C 
ATOM     11  C   UNL     1       0.906  10.678  20.732  0.00  0.00    +0.000 C 
ENDROOT
BRANCH   1  16
ATOM     12  C   UNL     1      -5.404  12.829  19.560  0.00  0.00    +0.000 C 
ATOM     13  C   UNL     1      -4.642  12.454  20.850  0.00  0.00    +0.000 C 
ATOM     14  C   UNL     1      -3.135  12.735  20.620  0.00  0.00    +0.000 C 
ATOM     15  N   UNL     1      -2.341  12.488  21.823  0.00  0.00    +0.000 N 
ATOM     16  C   UNL     1      -1.190  11.712  21.845  0.00  0.00    +0.000 C 
ATOM     17  O   UNL     1      -0.583  11.581  22.903  0.00  0.00    +0.000 OA
ATOM     18  C   UNL     1      -2.799  13.175  23.026  0.00  0.00    +0.000 C 
ATOM     19  C   UNL     1      -4.267  12.787  23.338  0.00  0.00    +0.000 C 
ATOM     20  C   UNL     1      -4.669  13.448  24.666  0.00  0.00    +0.000 C 
ATOM     21  C   UNL     1      -5.202  13.174  22.135  0.00  0.00    +0.000 C 
BRANCH  21  22
ATOM     22  C   UNL     1      -6.665  12.644  22.343  0.00  0.00    +0.000 C 
ATOM     23  C   UNL     1      -7.554  13.222  23.422  0.00  0.00    +0.000 C 
ATOM     24  C   UNL     1      -7.814  13.590  21.961  0.00  0.00    +0.000 C 
ENDBRANCH  21  22
BRANCH  21  25
ATOM     25  O   UNL     1      -5.234  14.582  21.989  0.00  0.00    +0.000 OA
ATOM     26  H   UNL     1      -4.343  14.920  21.724  0.00  0.00    +0.000 HD
ENDBRANCH  21  25
ENDBRANCH   1  16
BRANCH  11  27
ATOM     27  C   UNL     1       1.406   9.497  19.877  0.00  0.00    +0.000 A 
ATOM     28  C   UNL     1       1.676   9.592  18.496  0.00  0.00    +0.000 A 
ATOM     29  C   UNL     1       2.107   8.476  17.768  0.00  0.00    +0.000 A 
ATOM     30  C   UNL     1       2.300   7.253  18.401  0.00  0.00    +0.000 A 
ATOM     31  F   UNL     1       2.717   6.177  17.688  0.00  0.00    +0.000 F 
ATOM     32  C   UNL     1       2.069   7.138  19.766  0.00  0.00    +0.000 A 
ATOM     33  C   UNL     1       1.624   8.241  20.506  0.00  0.00    +0.000 A 
ATOM     34  F   UNL     1       1.416   8.067  21.835  0.00  0.00    +0.000 F 
ENDBRANCH  11  27
TORSDOF 4
ENDMDL
MODEL 6
REMARK VINA RESULT:      -7.3      3.777      8.410
REMARK  Name = 
REMARK  6 active torsions:
REMARK  status: ('A' for Active; 'I' for Inactive)
REMARK    1  A    between atoms: C_1  and  C_2
REMARK    2  A    between atoms: C_5  and  C_7
REMARK    3  A    between atoms: C_17  and  C_18
REMARK    4  A    between atoms: C_27  and  C_28
REMARK    5  A    between atoms: C_29  and  O_30
REMARK    6  A    between atoms: C_29  and  C_31
REMARK                            x       y       z     vdW  Elec       q    Type
REMARK                         _______ _______ _______ _____ _____    ______ ____
ROOT
ATOM      1  C   UNL     1       0.592  10.375  20.208  0.00  0.00    +0.000 C 
ATOM      2  C   UNL     1      -0.868  10.006  19.899  0.00  0.00    +0.000 C 
ATOM      3  N   UNL     1      -0.964  10.028  18.459  0.00  0.00    +0.000 N 
ATOM      4  C   UNL     1      -2.140  10.485  17.785  0.00  0.00    +0.000 A 
ATOM      5  C   UNL     1      -2.216  10.541  16.385  0.00  0.00    +0.000 A 
ATOM      6  C   UNL     1      -3.369  11.043  15.784  0.00  0.00    +0.000 A 
ATOM      7  C   UNL     1      -4.419  11.485  16.585  0.00  0.00    +0.000 A 
ATOM      8  N   UNL     1      -4.311  11.400  17.935  0.00  0.00    +0.000 NA
ATOM      9  N   UNL     1      -3.210  10.913  18.511  0.00  0.00    +0.000 NA
ATOM     10  C   UNL     1       0.337   9.979  17.823  0.00  0.00    +0.000 C 
ATOM     11  C   UNL     1       1.343   9.775  18.972  0.00  0.00    +0.000 C 
ENDROOT
BRANCH   1  16
ATOM     12  C   UNL     1      -2.969  12.256  23.535  0.00  0.00    +0.000 C 
ATOM     13  C   UNL     1      -1.618  12.767  22.989  0.00  0.00    +0.000 C 
ATOM     14  C   UNL     1      -1.438  12.215  21.552  0.00  0.00    +0.000 C 
ATOM     15  N   UNL     1      -0.219  12.719  20.920  0.00  0.00    +0.000 N 
ATOM     16  C   UNL     1       0.722  11.910  20.297  0.00  0.00    +0.000 C 
ATOM     17  O   UNL     1       1.703  12.432  19.779  0.00  0.00    +0.000 OA
ATOM     18  C   UNL     1      -0.068  14.171  20.921  0.00  0.00    +0.000 C 
ATOM     19  C   UNL     1      -0.109  14.713  22.372  0.00  0.00    +0.000 C 
ATOM     20  C   UNL     1       0.159  16.226  22.331  0.00  0.00    +0.000 C 
ATOM     21  C   UNL     1      -1.472  14.335  23.058  0.00  0.00    +0.000 C 
BRANCH  21  22
ATOM     22  C   UNL     1      -1.482  14.718  24.581  0.00  0.00    +0.000 C 
ATOM     23  C   UNL     1      -1.710  16.148  25.019  0.00  0.00    +0.000 C 
ATOM     24  C   UNL     1      -2.832  15.123  25.193  0.00  0.00    +0.000 C 
ENDBRANCH  21  22
BRANCH  21  25
ATOM     25  O   UNL     1      -2.537  15.001  22.404  0.00  0.00    +0.000 OA
ATOM     26  H   UNL     1      -3.179  15.356  23.066  0.00  0.00    +0.000 HD
ENDBRANCH  21  25
ENDBRANCH   1  16
BRANCH  11  27
ATOM     27  C   UNL     1       1.787   8.305  19.116  0.00  0.00    +0.000 A 
ATOM     28  C   UNL     1       2.244   7.518  18.039  0.00  0.00    +0.000 A 
ATOM     29  C   UNL     1       2.611   6.181  18.229  0.00  0.00    +0.000 A 
ATOM     30  C   UNL     1       2.554   5.608  19.495  0.00  0.00    +0.000 A 
ATOM     31  F   UNL     1       2.912   4.311  19.671  0.00  0.00    +0.000 F 
ATOM     32  C   UNL     1       2.135   6.368  20.580  0.00  0.00    +0.000 A 
ATOM     33  C   UNL     1       1.750   7.703  20.403  0.00  0.00    +0.000 A 
ATOM     34  F   UNL     1       1.350   8.394  21.499  0.00  0.00    +0.000 F 
ENDBRANCH  11  27
TORSDOF 4
ENDMDL
MODEL 7
REMARK VINA RESULT:      -7.2      3.202      8.360
REMARK  Name = 
REMARK  6 active torsions:
REMARK  status: ('A' for Active; 'I' for Inactive)
REMARK    1  A    between atoms: C_1  and  C_2
REMARK    2  A    between atoms: C_5  and  C_7
REMARK    3  A    between atoms: C_17  and  C_18
REMARK    4  A    between atoms: C_27  and  C_28
REMARK    5  A    between atoms: C_29  and  O_30
REMARK    6  A    between atoms: C_29  and  C_31
REMARK                            x       y       z     vdW  Elec       q    Type
REMARK                         _______ _______ _______ _____ _____    ______ ____
ROOT
ATOM      1  C   UNL     1       1.060  10.704  19.691  0.00  0.00    +0.000 C 
ATOM      2  C   UNL     1      -0.456  10.448  19.713  0.00  0.00    +0.000 C 
ATOM      3  N   UNL     1      -0.789  10.059  18.363  0.00  0.00    +0.000 N 
ATOM      4  C   UNL     1      -2.022  10.442  17.747  0.00  0.00    +0.000 A 
ATOM      5  C   UNL     1      -2.326  10.095  16.422  0.00  0.00    +0.000 A 
ATOM      6  C   UNL     1      -3.520  10.540  15.858  0.00  0.00    +0.000 A 
ATOM      7  C   UNL     1      -4.383  11.326  16.618  0.00  0.00    +0.000 A 
ATOM      8  N   UNL     1      -4.058  11.627  17.900  0.00  0.00    +0.000 NA
ATOM      9  N   UNL     1      -2.919  11.195  18.443  0.00  0.00    +0.000 NA
ATOM     10  C   UNL     1       0.379   9.662  17.604  0.00  0.00    +0.000 C 
ATOM     11  C   UNL     1       1.544   9.679  18.612  0.00  0.00    +0.000 C 
ENDROOT
BRANCH   1  16
ATOM     12  C   UNL     1      -1.088  13.927  23.197  0.00  0.00    +0.000 C 
ATOM     13  C   UNL     1       0.048  14.055  22.159  0.00  0.00    +0.000 C 
ATOM     14  C   UNL     1      -0.287  13.131  20.961  0.00  0.00    +0.000 C 
ATOM     15  N   UNL     1       0.696  13.252  19.884  0.00  0.00    +0.000 N 
ATOM     16  C   UNL     1       1.323  12.169  19.283  0.00  0.00    +0.000 C 
ATOM     17  O   UNL     1       2.120  12.374  18.374  0.00  0.00    +0.000 OA
ATOM     18  C   UNL     1       0.945  14.611  19.414  0.00  0.00    +0.000 C 
ATOM     19  C   UNL     1       1.415  15.507  20.588  0.00  0.00    +0.000 C 
ATOM     20  C   UNL     1       1.765  16.894  20.027  0.00  0.00    +0.000 C 
ATOM     21  C   UNL     1       0.322  15.543  21.719  0.00  0.00    +0.000 C 
BRANCH  21  22
ATOM     22  C   UNL     1       0.833  16.301  22.995  0.00  0.00    +0.000 C 
ATOM     23  C   UNL     1       0.988  17.806  22.994  0.00  0.00    +0.000 C 
ATOM     24  C   UNL     1      -0.184  17.174  23.746  0.00  0.00    +0.000 C 
ENDBRANCH  21  22
BRANCH  21  25
ATOM     25  O   UNL     1      -0.845  16.182  21.234  0.00  0.00    +0.000 OA
ATOM     26  H   UNL     1      -0.872  16.144  20.246  0.00  0.00    +0.000 HD
ENDBRANCH  21  25
ENDBRANCH   1  16
BRANCH  11  27
ATOM     27  C   UNL     1       1.888   8.272  19.142  0.00  0.00    +0.000 A 
ATOM     28  C   UNL     1       1.446   7.776  20.385  0.00  0.00    +0.000 A 
ATOM     29  C   UNL     1       1.812   6.498  20.822  0.00  0.00    +0.000 A 
ATOM     30  C   UNL     1       2.604   5.680  20.023  0.00  0.00    +0.000 A 
ATOM     31  F   UNL     1       2.955   4.442  20.454  0.00  0.00    +0.000 F 
ATOM     32  C   UNL     1       3.030   6.131  18.780  0.00  0.00    +0.000 A 
ATOM     33  C   UNL     1       2.685   7.414  18.336  0.00  0.00    +0.000 A 
ATOM     34  F   UNL     1       3.130   7.799  17.114  0.00  0.00    +0.000 F 
ENDBRANCH  11  27
TORSDOF 4
ENDMDL
MODEL 8
REMARK VINA RESULT:      -7.2      3.188      7.950
REMARK  Name = 
REMARK  6 active torsions:
REMARK  status: ('A' for Active; 'I' for Inactive)
REMARK    1  A    between atoms: C_1  and  C_2
REMARK    2  A    between atoms: C_5  and  C_7
REMARK    3  A    between atoms: C_17  and  C_18
REMARK    4  A    between atoms: C_27  and  C_28
REMARK    5  A    between atoms: C_29  and  O_30
REMARK    6  A    between atoms: C_29  and  C_31
REMARK                            x       y       z     vdW  Elec       q    Type
REMARK                         _______ _______ _______ _____ _____    ______ ____
ROOT
ATOM      1  C   UNL     1       0.321  11.799  19.753  0.00  0.00    +0.000 C 
ATOM      2  C   UNL     1      -1.155  11.576  20.122  0.00  0.00    +0.000 C 
ATOM      3  N   UNL     1      -1.760  11.025  18.933  0.00  0.00    +0.000 N 
ATOM      4  C   UNL     1      -3.098  11.351  18.544  0.00  0.00    +0.000 A 
ATOM      5  C   UNL     1      -3.670  10.844  17.367  0.00  0.00    +0.000 A 
ATOM      6  C   UNL     1      -4.959  11.236  17.012  0.00  0.00    +0.000 A 
ATOM      7  C   UNL     1      -5.650  12.128  17.828  0.00  0.00    +0.000 A 
ATOM      8  N   UNL     1      -5.066  12.583  18.966  0.00  0.00    +0.000 NA
ATOM      9  N   UNL     1      -3.835  12.202  19.310  0.00  0.00    +0.000 NA
ATOM     10  C   UNL     1      -0.774  10.514  18.004  0.00  0.00    +0.000 C 
ATOM     11  C   UNL     1       0.576  10.636  18.736  0.00  0.00    +0.000 C 
ENDROOT
BRANCH   1  16
ATOM     12  C   UNL     1       4.523  14.177  21.745  0.00  0.00    +0.000 C 
ATOM     13  C   UNL     1       3.707  14.329  20.443  0.00  0.00    +0.000 C 
ATOM     14  C   UNL     1       2.234  13.957  20.751  0.00  0.00    +0.000 C 
ATOM     15  N   UNL     1       1.364  14.154  19.591  0.00  0.00    +0.000 N 
ATOM     16  C   UNL     1       0.481  13.195  19.114  0.00  0.00    +0.000 C 
ATOM     17  O   UNL     1      -0.220  13.464  18.145  0.00  0.00    +0.000 OA
ATOM     18  C   UNL     1       1.429  15.477  18.979  0.00  0.00    +0.000 C 
ATOM     19  C   UNL     1       2.881  15.795  18.543  0.00  0.00    +0.000 C 
ATOM     20  C   UNL     1       2.880  17.147  17.811  0.00  0.00    +0.000 C 
ATOM     21  C   UNL     1       3.846  15.754  19.784  0.00  0.00    +0.000 C 
BRANCH  21  22
ATOM     22  C   UNL     1       5.349  15.903  19.355  0.00  0.00    +0.000 C 
ATOM     23  C   UNL     1       5.945  17.266  19.078  0.00  0.00    +0.000 C 
ATOM     24  C   UNL     1       6.308  16.540  20.374  0.00  0.00    +0.000 C 
ENDBRANCH  21  22
BRANCH  21  25
ATOM     25  O   UNL     1       3.512  16.795  20.683  0.00  0.00    +0.000 OA
ATOM     26  H   UNL     1       4.208  17.497  20.669  0.00  0.00    +0.000 HD
ENDBRANCH  21  25
ENDBRANCH   1  16
BRANCH  11  27
ATOM     27  C   UNL     1       1.036   9.302  19.358  0.00  0.00    +0.000 A 
ATOM     28  C   UNL     1       0.670   8.876  20.651  0.00  0.00    +0.000 A 
ATOM     29  C   UNL     1       1.139   7.663  21.169  0.00  0.00    +0.000 A 
ATOM     30  C   UNL     1       1.960   6.840  20.405  0.00  0.00    +0.000 A 
ATOM     31  F   UNL     1       2.410   5.667  20.915  0.00  0.00    +0.000 F 
ATOM     32  C   UNL     1       2.313   7.221  19.117  0.00  0.00    +0.000 A 
ATOM     33  C   UNL     1       1.864   8.439  18.589  0.00  0.00    +0.000 A 
ATOM     34  F   UNL     1       2.241   8.756  17.326  0.00  0.00    +0.000 F 
ENDBRANCH  11  27
TORSDOF 4
ENDMDL
MODEL 9
REMARK VINA RESULT:      -7.1      0.821      1.167
REMARK  Name = 
REMARK  6 active torsions:
REMARK  status: ('A' for Active; 'I' for Inactive)
REMARK    1  A    between atoms: C_1  and  C_2
REMARK    2  A    between atoms: C_5  and  C_7
REMARK    3  A    between atoms: C_17  and  C_18
REMARK    4  A    between atoms: C_27  and  C_28
REMARK    5  A    between atoms: C_29  and  O_30
REMARK    6  A    between atoms: C_29  and  C_31
REMARK                            x       y       z     vdW  Elec       q    Type
REMARK                         _______ _______ _______ _____ _____    ______ ____
ROOT
ATOM      1  C   UNL     1       0.226   9.866  18.862  0.00  0.00    +0.000 C 
ATOM      2  C   UNL     1       0.490  10.768  20.079  0.00  0.00    +0.000 C 
ATOM      3  N   UNL     1       0.601  12.102  19.540  0.00  0.00    +0.000 N 
ATOM      4  C   UNL     1       1.518  13.061  20.075  0.00  0.00    +0.000 A 
ATOM      5  C   UNL     1       1.651  14.345  19.524  0.00  0.00    +0.000 A 
ATOM      6  C   UNL     1       2.598  15.219  20.054  0.00  0.00    +0.000 A 
ATOM      7  C   UNL     1       3.397  14.799  21.115  0.00  0.00    +0.000 A 
ATOM      8  N   UNL     1       3.226  13.554  21.628  0.00  0.00    +0.000 NA
ATOM      9  N   UNL     1       2.315  12.719  21.125  0.00  0.00    +0.000 NA
ATOM     10  C   UNL     1       0.053  12.199  18.203  0.00  0.00    +0.000 C 
ATOM     11  C   UNL     1      -0.581  10.824  17.923  0.00  0.00    +0.000 C 
ENDROOT
BRANCH   1  16
ATOM     12  C   UNL     1       1.525   5.140  20.668  0.00  0.00    +0.000 C 
ATOM     13  C   UNL     1       1.905   5.965  19.420  0.00  0.00    +0.000 C 
ATOM     14  C   UNL     1       1.861   7.467  19.803  0.00  0.00    +0.000 C 
ATOM     15  N   UNL     1       2.291   8.327  18.700  0.00  0.00    +0.000 N 
ATOM     16  C   UNL     1       1.573   9.427  18.251  0.00  0.00    +0.000 C 
ATOM     17  O   UNL     1       2.028  10.097  17.331  0.00  0.00    +0.000 OA
ATOM     18  C   UNL     1       3.588   7.997  18.119  0.00  0.00    +0.000 C 
ATOM     19  C   UNL     1       3.589   6.533  17.607  0.00  0.00    +0.000 C 
ATOM     20  C   UNL     1       4.933   6.266  16.911  0.00  0.00    +0.000 C 
ATOM     21  C   UNL     1       3.286   5.541  18.789  0.00  0.00    +0.000 C 
BRANCH  21  22
ATOM     22  C   UNL     1       3.110   4.067  18.279  0.00  0.00    +0.000 C 
ATOM     23  C   UNL     1       4.254   3.337  17.610  0.00  0.00    +0.000 C 
ATOM     24  C   UNL     1       3.865   2.967  19.043  0.00  0.00    +0.000 C 
ENDBRANCH  21  22
BRANCH  21  25
ATOM     25  O   UNL     1       4.341   5.586  19.732  0.00  0.00    +0.000 OA
ATOM     26  H   UNL     1       4.484   6.513  20.045  0.00  0.00    +0.000 HD
ENDBRANCH  21  25
ENDBRANCH   1  16
BRANCH  11  27
ATOM     27  C   UNL     1      -2.109  10.823  18.131  0.00  0.00    +0.000 A 
ATOM     28  C   UNL     1      -2.959   9.795  17.675  0.00  0.00    +0.000 A 
ATOM     29  C   UNL     1      -4.343   9.863  17.874  0.00  0.00    +0.000 A 
ATOM     30  C   UNL     1      -4.906  10.941  18.550  0.00  0.00    +0.000 A 
ATOM     31  F   UNL     1      -6.248  10.999  18.738  0.00  0.00    +0.000 F 
ATOM     32  C   UNL     1      -4.089  11.954  19.035  0.00  0.00    +0.000 A 
ATOM     33  C   UNL     1      -2.704  11.908  18.831  0.00  0.00    +0.000 A 
ATOM     34  F   UNL     1      -1.959  12.926  19.328  0.00  0.00    +0.000 F 
ENDBRANCH  11  27
TORSDOF 4
ENDMDL
