MODEL 1
REMARK VINA RESULT:      -8.6      0.000      0.000
REMARK  Name = 
REMARK  9 active torsions:
REMARK  status: ('A' for Active; 'I' for Inactive)
REMARK    1  A    between atoms: C_1  and  O_2
REMARK    2  A    between atoms: O_2  and  C_3
REMARK    3  A    between atoms: C_6  and  C_7
REMARK    4  A    between atoms: C_9  and  C_10
REMARK    5  A    between atoms: C_10  and  O_12
REMARK    6  A    between atoms: O_12  and  C_13
REMARK    7  A    between atoms: C_13  and  C_14
REMARK    8  A    between atoms: C_14  and  C_16
REMARK    9  A    between atoms: C_19  and  C_20
REMARK                            x       y       z     vdW  Elec       q    Type
REMARK                         _______ _______ _______ _____ _____    ______ ____
ROOT
ATOM      1  C   UNL     1       1.144  12.846  19.525  0.00  0.00    +0.000 A 
ATOM      2  C   UNL     1       1.563  11.688  18.915  0.00  0.00    +0.000 A 
ATOM      3  C   UNL     1       0.889  10.536  19.234  0.00  0.00    +0.000 A 
ATOM      4  C   UNL     1       0.346  10.391  20.495  0.00  0.00    +0.000 A 
ATOM      5  C   UNL     1       0.209   9.110  21.074  0.00  0.00    +0.000 A 
ATOM      6  C   UNL     1      -0.321   8.972  22.341  0.00  0.00    +0.000 A 
ATOM      7  C   UNL     1      -0.779  10.112  22.992  0.00  0.00    +0.000 A 
ATOM      8  C   UNL     1      -0.633  11.382  22.396  0.00  0.00    +0.000 A 
ATOM      9 CL   UNL     1      -1.252  12.740  23.275  0.00  0.00    +0.000 Cl
ATOM     10  C   UNL     1       0.007  11.572  21.160  0.00  0.00    +0.000 A 
ATOM     11  N   UNL     1       0.314  12.792  20.603  0.00  0.00    +0.000 NA
ENDROOT
BRANCH   1  15
ATOM     12  C   UNL     1       2.333  16.567  17.728  0.00  0.00    +0.000 A 
ATOM     13  C   UNL     1       1.188  16.511  18.529  0.00  0.00    +0.000 A 
ATOM     14  C   UNL     1       0.876  15.330  19.198  0.00  0.00    +0.000 A 
ATOM     15  C   UNL     1       1.645  14.152  19.041  0.00  0.00    +0.000 A 
ATOM     16  C   UNL     1       2.837  14.264  18.322  0.00  0.00    +0.000 A 
ATOM     17  C   UNL     1       3.174  15.454  17.664  0.00  0.00    +0.000 A 
BRANCH  12  19
ATOM     18  C   UNL     1       1.289  18.424  16.711  0.00  0.00    +0.000 C 
ATOM     19  O   UNL     1       2.485  17.741  17.049  0.00  0.00    +0.000 OA
ENDBRANCH  12  19
ENDBRANCH   1  15
BRANCH   3  20
ATOM     20  C   UNL     1       0.251   9.778  18.128  0.00  0.00    +0.000 C 
ATOM     21  O   UNL     1      -0.755  10.131  17.534  0.00  0.00    +0.000 OA
BRANCH  20  22
ATOM     22  O   UNL     1       0.995   8.685  17.815  0.00  0.00    +0.000 OA
BRANCH  22  23
ATOM     23  C   UNL     1       2.384   8.918  18.034  0.00  0.00    +0.000 C 
BRANCH  23  24
ATOM     24  C   UNL     1       3.084   7.577  17.852  0.00  0.00    +0.000 C 
ATOM     25  O   UNL     1       4.046   7.435  17.099  0.00  0.00    +0.000 OA
BRANCH  24  26
ATOM     26  C   UNL     1       2.552   6.400  18.558  0.00  0.00    +0.000 A 
ATOM     27  C   UNL     1       2.349   6.524  19.927  0.00  0.00    +0.000 A 
ATOM     28  C   UNL     1       1.853   5.439  20.652  0.00  0.00    +0.000 A 
ATOM     29  C   UNL     1       1.532   4.242  20.001  0.00  0.00    +0.000 A 
ATOM     30  C   UNL     1       0.974   3.078  20.762  0.00  0.00    +0.000 C 
ATOM     31  C   UNL     1       1.712   4.141  18.616  0.00  0.00    +0.000 A 
ATOM     32  C   UNL     1       2.229   5.214  17.891  0.00  0.00    +0.000 A 
ENDBRANCH  24  26
ENDBRANCH  23  24
ENDBRANCH  22  23
ENDBRANCH  20  22
ENDBRANCH   3  20
TORSDOF 7
ENDMDL
MODEL 2
REMARK VINA RESULT:      -8.5      4.486      8.772
REMARK  Name = 
REMARK  9 active torsions:
REMARK  status: ('A' for Active; 'I' for Inactive)
REMARK    1  A    between atoms: C_1  and  O_2
REMARK    2  A    between atoms: O_2  and  C_3
REMARK    3  A    between atoms: C_6  and  C_7
REMARK    4  A    between atoms: C_9  and  C_10
REMARK    5  A    between atoms: C_10  and  O_12
REMARK    6  A    between atoms: O_12  and  C_13
REMARK    7  A    between atoms: C_13  and  C_14
REMARK    8  A    between atoms: C_14  and  C_16
REMARK    9  A    between atoms: C_19  and  C_20
REMARK                            x       y       z     vdW  Elec       q    Type
REMARK                         _______ _______ _______ _____ _____    ______ ____
ROOT
ATOM      1  C   UNL     1       4.328   4.648  17.788  0.00  0.00    +0.000 A 
ATOM      2  C   UNL     1       3.218   5.453  17.697  0.00  0.00    +0.000 A 
ATOM      3  C   UNL     1       2.450   5.586  18.826  0.00  0.00    +0.000 A 
ATOM      4  C   UNL     1       2.362   4.535  19.718  0.00  0.00    +0.000 A 
ATOM      5  C   UNL     1       1.201   4.355  20.501  0.00  0.00    +0.000 A 
ATOM      6  C   UNL     1       1.112   3.294  21.380  0.00  0.00    +0.000 A 
ATOM      7  C   UNL     1       2.216   2.462  21.524  0.00  0.00    +0.000 A 
ATOM      8  C   UNL     1       3.367   2.660  20.733  0.00  0.00    +0.000 A 
ATOM      9 CL   UNL     1       4.700   1.586  20.997  0.00  0.00    +0.000 Cl
ATOM     10  C   UNL     1       3.448   3.657  19.745  0.00  0.00    +0.000 A 
ATOM     11  N   UNL     1       4.476   3.800  18.843  0.00  0.00    +0.000 NA
ENDROOT
BRANCH   1  15
ATOM     12  C   UNL     1       7.127   5.147  14.562  0.00  0.00    +0.000 A 
ATOM     13  C   UNL     1       7.506   5.457  15.872  0.00  0.00    +0.000 A 
ATOM     14  C   UNL     1       6.633   5.184  16.922  0.00  0.00    +0.000 A 
ATOM     15  C   UNL     1       5.336   4.663  16.703  0.00  0.00    +0.000 A 
ATOM     16  C   UNL     1       5.022   4.265  15.401  0.00  0.00    +0.000 A 
ATOM     17  C   UNL     1       5.903   4.513  14.340  0.00  0.00    +0.000 A 
BRANCH  12  19
ATOM     18  C   UNL     1       7.733   5.145  12.281  0.00  0.00    +0.000 C 
ATOM     19  O   UNL     1       8.021   5.545  13.611  0.00  0.00    +0.000 OA
ENDBRANCH  12  19
ENDBRANCH   1  15
BRANCH   3  20
ATOM     20  C   UNL     1       2.240   6.953  19.365  0.00  0.00    +0.000 C 
ATOM     21  O   UNL     1       1.890   7.204  20.507  0.00  0.00    +0.000 OA
BRANCH  20  22
ATOM     22  O   UNL     1       2.579   7.884  18.434  0.00  0.00    +0.000 OA
BRANCH  22  23
ATOM     23  C   UNL     1       1.434   8.356  17.728  0.00  0.00    +0.000 C 
BRANCH  23  24
ATOM     24  C   UNL     1       1.123   9.741  18.284  0.00  0.00    +0.000 C 
ATOM     25  O   UNL     1       1.989  10.460  18.781  0.00  0.00    +0.000 OA
BRANCH  24  26
ATOM     26  C   UNL     1      -0.273  10.208  18.276  0.00  0.00    +0.000 A 
ATOM     27  C   UNL     1      -0.614  11.192  19.197  0.00  0.00    +0.000 A 
ATOM     28  C   UNL     1      -1.926  11.669  19.242  0.00  0.00    +0.000 A 
ATOM     29  C   UNL     1      -2.885  11.182  18.347  0.00  0.00    +0.000 A 
ATOM     30  C   UNL     1      -4.290  11.704  18.366  0.00  0.00    +0.000 C 
ATOM     31  C   UNL     1      -2.521  10.214  17.404  0.00  0.00    +0.000 A 
ATOM     32  C   UNL     1      -1.218   9.717  17.369  0.00  0.00    +0.000 A 
ENDBRANCH  24  26
ENDBRANCH  23  24
ENDBRANCH  22  23
ENDBRANCH  20  22
ENDBRANCH   3  20
TORSDOF 7
ENDMDL
MODEL 3
REMARK VINA RESULT:      -8.5      4.351      8.787
REMARK  Name = 
REMARK  9 active torsions:
REMARK  status: ('A' for Active; 'I' for Inactive)
REMARK    1  A    between atoms: C_1  and  O_2
REMARK    2  A    between atoms: O_2  and  C_3
REMARK    3  A    between atoms: C_6  and  C_7
REMARK    4  A    between atoms: C_9  and  C_10
REMARK    5  A    between atoms: C_10  and  O_12
REMARK    6  A    between atoms: O_12  and  C_13
REMARK    7  A    between atoms: C_13  and  C_14
REMARK    8  A    between atoms: C_14  and  C_16
REMARK    9  A    between atoms: C_19  and  C_20
REMARK                            x       y       z     vdW  Elec       q    Type
REMARK                         _______ _______ _______ _____ _____    ______ ____
ROOT
ATOM      1  C   UNL     1       4.369   4.622  17.732  0.00  0.00    +0.000 A 
ATOM      2  C   UNL     1       3.246   5.404  17.605  0.00  0.00    +0.000 A 
ATOM      3  C   UNL     1       2.453   5.541  18.717  0.00  0.00    +0.000 A 
ATOM      4  C   UNL     1       2.366   4.504  19.624  0.00  0.00    +0.000 A 
ATOM      5  C   UNL     1       1.194   4.314  20.387  0.00  0.00    +0.000 A 
ATOM      6  C   UNL     1       1.107   3.266  21.283  0.00  0.00    +0.000 A 
ATOM      7  C   UNL     1       2.224   2.459  21.463  0.00  0.00    +0.000 A 
ATOM      8  C   UNL     1       3.386   2.665  20.690  0.00  0.00    +0.000 A 
ATOM      9 CL   UNL     1       4.733   1.622  20.999  0.00  0.00    +0.000 Cl
ATOM     10  C   UNL     1       3.468   3.647  19.688  0.00  0.00    +0.000 A 
ATOM     11  N   UNL     1       4.512   3.795  18.804  0.00  0.00    +0.000 NA
ENDROOT
BRANCH   1  15
ATOM     12  C   UNL     1       7.174   5.092  14.507  0.00  0.00    +0.000 A 
ATOM     13  C   UNL     1       7.473   5.601  15.775  0.00  0.00    +0.000 A 
ATOM     14  C   UNL     1       6.611   5.344  16.838  0.00  0.00    +0.000 A 
ATOM     15  C   UNL     1       5.397   4.638  16.667  0.00  0.00    +0.000 A 
ATOM     16  C   UNL     1       5.174   4.052  15.418  0.00  0.00    +0.000 A 
ATOM     17  C   UNL     1       6.047   4.284  14.347  0.00  0.00    +0.000 A 
BRANCH  12  19
ATOM     18  C   UNL     1       7.662   5.162  12.199  0.00  0.00    +0.000 C 
ATOM     19  O   UNL     1       8.038   5.487  13.527  0.00  0.00    +0.000 OA
ENDBRANCH  12  19
ENDBRANCH   1  15
BRANCH   3  20
ATOM     20  C   UNL     1       2.207   6.912  19.227  0.00  0.00    +0.000 C 
ATOM     21  O   UNL     1       2.414   7.274  20.374  0.00  0.00    +0.000 OA
BRANCH  20  22
ATOM     22  O   UNL     1       1.803   7.727  18.216  0.00  0.00    +0.000 OA
BRANCH  22  23
ATOM     23  C   UNL     1       1.903   9.101  18.582  0.00  0.00    +0.000 C 
BRANCH  23  24
ATOM     24  C   UNL     1       0.486   9.662  18.553  0.00  0.00    +0.000 C 
ATOM     25  O   UNL     1      -0.196   9.671  17.530  0.00  0.00    +0.000 OA
BRANCH  24  26
ATOM     26  C   UNL     1      -0.059  10.266  19.780  0.00  0.00    +0.000 A 
ATOM     27  C   UNL     1      -0.870  11.385  19.626  0.00  0.00    +0.000 A 
ATOM     28  C   UNL     1      -1.410  12.005  20.754  0.00  0.00    +0.000 A 
ATOM     29  C   UNL     1      -1.163  11.488  22.031  0.00  0.00    +0.000 A 
ATOM     30  C   UNL     1      -1.758  12.128  23.248  0.00  0.00    +0.000 C 
ATOM     31  C   UNL     1      -0.370  10.343  22.169  0.00  0.00    +0.000 A 
ATOM     32  C   UNL     1       0.191   9.732  21.048  0.00  0.00    +0.000 A 
ENDBRANCH  24  26
ENDBRANCH  23  24
ENDBRANCH  22  23
ENDBRANCH  20  22
ENDBRANCH   3  20
TORSDOF 7
ENDMDL
MODEL 4
REMARK VINA RESULT:      -8.5      4.131      8.753
REMARK  Name = 
REMARK  9 active torsions:
REMARK  status: ('A' for Active; 'I' for Inactive)
REMARK    1  A    between atoms: C_1  and  O_2
REMARK    2  A    between atoms: O_2  and  C_3
REMARK    3  A    between atoms: C_6  and  C_7
REMARK    4  A    between atoms: C_9  and  C_10
REMARK    5  A    between atoms: C_10  and  O_12
REMARK    6  A    between atoms: O_12  and  C_13
REMARK    7  A    between atoms: C_13  and  C_14
REMARK    8  A    between atoms: C_14  and  C_16
REMARK    9  A    between atoms: C_19  and  C_20
REMARK                            x       y       z     vdW  Elec       q    Type
REMARK                         _______ _______ _______ _____ _____    ______ ____
ROOT
ATOM      1  C   UNL     1       4.374   4.627  17.774  0.00  0.00    +0.000 A 
ATOM      2  C   UNL     1       3.270   5.440  17.685  0.00  0.00    +0.000 A 
ATOM      3  C   UNL     1       2.508   5.583  18.818  0.00  0.00    +0.000 A 
ATOM      4  C   UNL     1       2.415   4.536  19.713  0.00  0.00    +0.000 A 
ATOM      5  C   UNL     1       1.257   4.367  20.502  0.00  0.00    +0.000 A 
ATOM      6  C   UNL     1       1.163   3.309  21.385  0.00  0.00    +0.000 A 
ATOM      7  C   UNL     1       2.262   2.470  21.527  0.00  0.00    +0.000 A 
ATOM      8  C   UNL     1       3.410   2.656  20.729  0.00  0.00    +0.000 A 
ATOM      9 CL   UNL     1       4.736   1.573  20.991  0.00  0.00    +0.000 Cl
ATOM     10  C   UNL     1       3.495   3.649  19.739  0.00  0.00    +0.000 A 
ATOM     11  N   UNL     1       4.521   3.782  18.831  0.00  0.00    +0.000 NA
ENDROOT
BRANCH   1  15
ATOM     12  C   UNL     1       7.135   5.081  14.509  0.00  0.00    +0.000 A 
ATOM     13  C   UNL     1       7.500   5.489  15.796  0.00  0.00    +0.000 A 
ATOM     14  C   UNL     1       6.645   5.233  16.865  0.00  0.00    +0.000 A 
ATOM     15  C   UNL     1       5.377   4.631  16.685  0.00  0.00    +0.000 A 
ATOM     16  C   UNL     1       5.083   4.140  15.411  0.00  0.00    +0.000 A 
ATOM     17  C   UNL     1       5.946   4.371  14.332  0.00  0.00    +0.000 A 
BRANCH  12  19
ATOM     18  C   UNL     1       7.692   5.039  12.216  0.00  0.00    +0.000 C 
ATOM     19  O   UNL     1       8.005   5.468  13.531  0.00  0.00    +0.000 OA
ENDBRANCH  12  19
ENDBRANCH   1  15
BRANCH   3  20
ATOM     20  C   UNL     1       2.311   6.953  19.352  0.00  0.00    +0.000 C 
ATOM     21  O   UNL     1       2.008   7.212  20.506  0.00  0.00    +0.000 OA
BRANCH  20  22
ATOM     22  O   UNL     1       2.603   7.878  18.400  0.00  0.00    +0.000 OA
BRANCH  22  23
ATOM     23  C   UNL     1       1.432   8.560  17.959  0.00  0.00    +0.000 C 
BRANCH  23  24
ATOM     24  C   UNL     1       1.660  10.041  18.241  0.00  0.00    +0.000 C 
ATOM     25  O   UNL     1       2.429  10.727  17.570  0.00  0.00    +0.000 OA
BRANCH  24  26
ATOM     26  C   UNL     1       0.978  10.653  19.394  0.00  0.00    +0.000 A 
ATOM     27  C   UNL     1      -0.025   9.909  20.002  0.00  0.00    +0.000 A 
ATOM     28  C   UNL     1      -0.712  10.441  21.095  0.00  0.00    +0.000 A 
ATOM     29  C   UNL     1      -0.374  11.703  21.595  0.00  0.00    +0.000 A 
ATOM     30  C   UNL     1      -1.084  12.276  22.783  0.00  0.00    +0.000 C 
ATOM     31  C   UNL     1       0.660  12.430  20.992  0.00  0.00    +0.000 A 
ATOM     32  C   UNL     1       1.334  11.913  19.886  0.00  0.00    +0.000 A 
ENDBRANCH  24  26
ENDBRANCH  23  24
ENDBRANCH  22  23
ENDBRANCH  20  22
ENDBRANCH   3  20
TORSDOF 7
ENDMDL
MODEL 5
REMARK VINA RESULT:      -8.3      4.200      8.901
REMARK  Name = 
REMARK  9 active torsions:
REMARK  status: ('A' for Active; 'I' for Inactive)
REMARK    1  A    between atoms: C_1  and  O_2
REMARK    2  A    between atoms: O_2  and  C_3
REMARK    3  A    between atoms: C_6  and  C_7
REMARK    4  A    between atoms: C_9  and  C_10
REMARK    5  A    between atoms: C_10  and  O_12
REMARK    6  A    between atoms: O_12  and  C_13
REMARK    7  A    between atoms: C_13  and  C_14
REMARK    8  A    between atoms: C_14  and  C_16
REMARK    9  A    between atoms: C_19  and  C_20
REMARK                            x       y       z     vdW  Elec       q    Type
REMARK                         _______ _______ _______ _____ _____    ______ ____
ROOT
ATOM      1  C   UNL     1       4.363   4.571  17.837  0.00  0.00    +0.000 A 
ATOM      2  C   UNL     1       3.235   5.349  17.731  0.00  0.00    +0.000 A 
ATOM      3  C   UNL     1       2.457   5.476  18.855  0.00  0.00    +0.000 A 
ATOM      4  C   UNL     1       2.388   4.433  19.757  0.00  0.00    +0.000 A 
ATOM      5  C   UNL     1       1.227   4.234  20.535  0.00  0.00    +0.000 A 
ATOM      6  C   UNL     1       1.157   3.180  21.424  0.00  0.00    +0.000 A 
ATOM      7  C   UNL     1       2.279   2.375  21.583  0.00  0.00    +0.000 A 
ATOM      8  C   UNL     1       3.429   2.591  20.796  0.00  0.00    +0.000 A 
ATOM      9 CL   UNL     1       4.784   1.551  21.079  0.00  0.00    +0.000 Cl
ATOM     10  C   UNL     1       3.494   3.580  19.799  0.00  0.00    +0.000 A 
ATOM     11  N   UNL     1       4.524   3.738  18.902  0.00  0.00    +0.000 NA
ENDROOT
BRANCH   1  15
ATOM     12  C   UNL     1       7.148   5.091  14.603  0.00  0.00    +0.000 A 
ATOM     13  C   UNL     1       7.492   5.498  15.895  0.00  0.00    +0.000 A 
ATOM     14  C   UNL     1       6.632   5.221  16.954  0.00  0.00    +0.000 A 
ATOM     15  C   UNL     1       5.376   4.598  16.758  0.00  0.00    +0.000 A 
ATOM     16  C   UNL     1       5.103   4.109  15.479  0.00  0.00    +0.000 A 
ATOM     17  C   UNL     1       5.973   4.360  14.410  0.00  0.00    +0.000 A 
BRANCH  12  19
ATOM     18  C   UNL     1       7.674   5.158  12.303  0.00  0.00    +0.000 C 
ATOM     19  O   UNL     1       8.020   5.498  13.635  0.00  0.00    +0.000 OA
ENDBRANCH  12  19
ENDBRANCH   1  15
BRANCH   3  20
ATOM     20  C   UNL     1       2.213   6.843  19.378  0.00  0.00    +0.000 C 
ATOM     21  O   UNL     1       2.553   7.873  18.817  0.00  0.00    +0.000 OA
BRANCH  20  22
ATOM     22  O   UNL     1       1.483   6.788  20.523  0.00  0.00    +0.000 OA
BRANCH  22  23
ATOM     23  C   UNL     1       1.615   7.984  21.286  0.00  0.00    +0.000 C 
BRANCH  23  24
ATOM     24  C   UNL     1       0.247   8.656  21.281  0.00  0.00    +0.000 C 
ATOM     25  O   UNL     1      -0.734   8.152  21.823  0.00  0.00    +0.000 OA
BRANCH  24  26
ATOM     26  C   UNL     1       0.085   9.925  20.552  0.00  0.00    +0.000 A 
ATOM     27  C   UNL     1       0.485  11.084  21.206  0.00  0.00    +0.000 A 
ATOM     28  C   UNL     1       0.348  12.318  20.568  0.00  0.00    +0.000 A 
ATOM     29  C   UNL     1      -0.158  12.387  19.265  0.00  0.00    +0.000 A 
ATOM     30  C   UNL     1      -0.285  13.701  18.557  0.00  0.00    +0.000 C 
ATOM     31  C   UNL     1      -0.527  11.208  18.606  0.00  0.00    +0.000 A 
ATOM     32  C   UNL     1      -0.415   9.975  19.247  0.00  0.00    +0.000 A 
ENDBRANCH  24  26
ENDBRANCH  23  24
ENDBRANCH  22  23
ENDBRANCH  20  22
ENDBRANCH   3  20
TORSDOF 7
ENDMDL
MODEL 6
REMARK VINA RESULT:      -8.2      3.600      7.388
REMARK  Name = 
REMARK  9 active torsions:
REMARK  status: ('A' for Active; 'I' for Inactive)
REMARK    1  A    between atoms: C_1  and  O_2
REMARK    2  A    between atoms: O_2  and  C_3
REMARK    3  A    between atoms: C_6  and  C_7
REMARK    4  A    between atoms: C_9  and  C_10
REMARK    5  A    between atoms: C_10  and  O_12
REMARK    6  A    between atoms: O_12  and  C_13
REMARK    7  A    between atoms: C_13  and  C_14
REMARK    8  A    between atoms: C_14  and  C_16
REMARK    9  A    between atoms: C_19  and  C_20
REMARK                            x       y       z     vdW  Elec       q    Type
REMARK                         _______ _______ _______ _____ _____    ______ ____
ROOT
ATOM      1  C   UNL     1      -1.814  12.112  18.946  0.00  0.00    +0.000 A 
ATOM      2  C   UNL     1      -1.097  11.035  18.484  0.00  0.00    +0.000 A 
ATOM      3  C   UNL     1       0.262  11.063  18.676  0.00  0.00    +0.000 A 
ATOM      4  C   UNL     1       0.925  12.274  18.676  0.00  0.00    +0.000 A 
ATOM      5  C   UNL     1       2.272  12.354  18.260  0.00  0.00    +0.000 A 
ATOM      6  C   UNL     1       2.926  13.571  18.249  0.00  0.00    +0.000 A 
ATOM      7  C   UNL     1       2.250  14.687  18.726  0.00  0.00    +0.000 A 
ATOM      8  C   UNL     1       0.904  14.585  19.138  0.00  0.00    +0.000 A 
ATOM      9 CL   UNL     1       0.152  16.026  19.735  0.00  0.00    +0.000 Cl
ATOM     10  C   UNL     1       0.172  13.389  19.053  0.00  0.00    +0.000 A 
ATOM     11  N   UNL     1      -1.177  13.264  19.292  0.00  0.00    +0.000 NA
ENDROOT
BRANCH   1  15
ATOM     12  C   UNL     1      -6.046  11.537  19.447  0.00  0.00    +0.000 A 
ATOM     13  C   UNL     1      -5.355  12.420  20.283  0.00  0.00    +0.000 A 
ATOM     14  C   UNL     1      -4.010  12.685  20.040  0.00  0.00    +0.000 A 
ATOM     15  C   UNL     1      -3.292  12.035  19.009  0.00  0.00    +0.000 A 
ATOM     16  C   UNL     1      -4.027  11.242  18.125  0.00  0.00    +0.000 A 
ATOM     17  C   UNL     1      -5.386  10.986  18.346  0.00  0.00    +0.000 A 
BRANCH  12  19
ATOM     18  C   UNL     1      -7.578   9.981  20.342  0.00  0.00    +0.000 C 
ATOM     19  O   UNL     1      -7.329  11.282  19.837  0.00  0.00    +0.000 OA
ENDBRANCH  12  19
ENDBRANCH   1  15
BRANCH   3  20
ATOM     20  C   UNL     1       0.877   9.951  19.443  0.00  0.00    +0.000 C 
ATOM     21  O   UNL     1       1.386   8.960  18.944  0.00  0.00    +0.000 OA
BRANCH  20  22
ATOM     22  O   UNL     1       0.871  10.236  20.773  0.00  0.00    +0.000 OA
BRANCH  22  23
ATOM     23  C   UNL     1      -0.281   9.696  21.416  0.00  0.00    +0.000 C 
BRANCH  23  24
ATOM     24  C   UNL     1      -0.361  10.357  22.788  0.00  0.00    +0.000 C 
ATOM     25  O   UNL     1       0.173   9.871  23.783  0.00  0.00    +0.000 OA
BRANCH  24  26
ATOM     26  C   UNL     1      -1.154  11.589  22.934  0.00  0.00    +0.000 A 
ATOM     27  C   UNL     1      -0.530  12.784  22.597  0.00  0.00    +0.000 A 
ATOM     28  C   UNL     1      -1.230  13.986  22.722  0.00  0.00    +0.000 A 
ATOM     29  C   UNL     1      -2.561  13.986  23.154  0.00  0.00    +0.000 A 
ATOM     30  C   UNL     1      -3.333  15.265  23.267  0.00  0.00    +0.000 C 
ATOM     31  C   UNL     1      -3.187  12.772  23.460  0.00  0.00    +0.000 A 
ATOM     32  C   UNL     1      -2.486  11.570  23.359  0.00  0.00    +0.000 A 
ENDBRANCH  24  26
ENDBRANCH  23  24
ENDBRANCH  22  23
ENDBRANCH  20  22
ENDBRANCH   3  20
TORSDOF 7
ENDMDL
MODEL 7
REMARK VINA RESULT:      -8.2      4.534      8.731
REMARK  Name = 
REMARK  9 active torsions:
REMARK  status: ('A' for Active; 'I' for Inactive)
REMARK    1  A    between atoms: C_1  and  O_2
REMARK    2  A    between atoms: O_2  and  C_3
REMARK    3  A    between atoms: C_6  and  C_7
REMARK    4  A    between atoms: C_9  and  C_10
REMARK    5  A    between atoms: C_10  and  O_12
REMARK    6  A    between atoms: O_12  and  C_13
REMARK    7  A    between atoms: C_13  and  C_14
REMARK    8  A    between atoms: C_14  and  C_16
REMARK    9  A    between atoms: C_19  and  C_20
REMARK                            x       y       z     vdW  Elec       q    Type
REMARK                         _______ _______ _______ _____ _____    ______ ____
ROOT
ATOM      1  C   UNL     1       4.267   4.923  18.241  0.00  0.00    +0.000 A 
ATOM      2  C   UNL     1       3.085   5.623  18.206  0.00  0.00    +0.000 A 
ATOM      3  C   UNL     1       2.281   5.544  19.316  0.00  0.00    +0.000 A 
ATOM      4  C   UNL     1       2.277   4.390  20.074  0.00  0.00    +0.000 A 
ATOM      5  C   UNL     1       1.122   4.006  20.789  0.00  0.00    +0.000 A 
ATOM      6  C   UNL     1       1.118   2.843  21.534  0.00  0.00    +0.000 A 
ATOM      7  C   UNL     1       2.296   2.110  21.618  0.00  0.00    +0.000 A 
ATOM      8  C   UNL     1       3.439   2.511  20.895  0.00  0.00    +0.000 A 
ATOM      9 CL   UNL     1       4.866   1.546  21.078  0.00  0.00    +0.000 Cl
ATOM     10  C   UNL     1       3.444   3.623  20.036  0.00  0.00    +0.000 A 
ATOM     11  N   UNL     1       4.474   3.972  19.193  0.00  0.00    +0.000 NA
ENDROOT
BRANCH   1  15
ATOM     12  C   UNL     1       7.127   5.198  15.042  0.00  0.00    +0.000 A 
ATOM     13  C   UNL     1       5.819   5.656  14.853  0.00  0.00    +0.000 A 
ATOM     14  C   UNL     1       4.934   5.669  15.929  0.00  0.00    +0.000 A 
ATOM     15  C   UNL     1       5.293   5.165  17.201  0.00  0.00    +0.000 A 
ATOM     16  C   UNL     1       6.631   4.813  17.391  0.00  0.00    +0.000 A 
ATOM     17  C   UNL     1       7.537   4.819  16.321  0.00  0.00    +0.000 A 
BRANCH  12  19
ATOM     18  C   UNL     1       7.252   4.531  12.781  0.00  0.00    +0.000 C 
ATOM     19  O   UNL     1       7.872   5.144  13.900  0.00  0.00    +0.000 OA
ENDBRANCH  12  19
ENDBRANCH   1  15
BRANCH   3  20
ATOM     20  C   UNL     1       1.924   6.810  20.004  0.00  0.00    +0.000 C 
ATOM     21  O   UNL     1       1.357   6.878  21.082  0.00  0.00    +0.000 OA
BRANCH  20  22
ATOM     22  O   UNL     1       2.397   7.876  19.306  0.00  0.00    +0.000 OA
BRANCH  22  23
ATOM     23  C   UNL     1       1.668   9.063  19.608  0.00  0.00    +0.000 C 
BRANCH  23  24
ATOM     24  C   UNL     1       1.060   9.545  18.296  0.00  0.00    +0.000 C 
ATOM     25  O   UNL     1       1.672   9.492  17.230  0.00  0.00    +0.000 OA
BRANCH  24  26
ATOM     26  C   UNL     1      -0.283  10.146  18.318  0.00  0.00    +0.000 A 
ATOM     27  C   UNL     1      -1.181   9.721  17.346  0.00  0.00    +0.000 A 
ATOM     28  C   UNL     1      -2.468  10.261  17.313  0.00  0.00    +0.000 A 
ATOM     29  C   UNL     1      -2.864  11.203  18.269  0.00  0.00    +0.000 A 
ATOM     30  C   UNL     1      -4.249  11.771  18.262  0.00  0.00    +0.000 C 
ATOM     31  C   UNL     1      -1.959  11.599  19.262  0.00  0.00    +0.000 A 
ATOM     32  C   UNL     1      -0.665  11.080  19.286  0.00  0.00    +0.000 A 
ENDBRANCH  24  26
ENDBRANCH  23  24
ENDBRANCH  22  23
ENDBRANCH  20  22
ENDBRANCH   3  20
TORSDOF 7
ENDMDL
MODEL 8
REMARK VINA RESULT:      -8.0      1.635      2.363
REMARK  Name = 
REMARK  9 active torsions:
REMARK  status: ('A' for Active; 'I' for Inactive)
REMARK    1  A    between atoms: C_1  and  O_2
REMARK    2  A    between atoms: O_2  and  C_3
REMARK    3  A    between atoms: C_6  and  C_7
REMARK    4  A    between atoms: C_9  and  C_10
REMARK    5  A    between atoms: C_10  and  O_12
REMARK    6  A    between atoms: O_12  and  C_13
REMARK    7  A    between atoms: C_13  and  C_14
REMARK    8  A    between atoms: C_14  and  C_16
REMARK    9  A    between atoms: C_19  and  C_20
REMARK                            x       y       z     vdW  Elec       q    Type
REMARK                         _______ _______ _______ _____ _____    ______ ____
ROOT
ATOM      1  C   UNL     1       0.910  13.476  20.153  0.00  0.00    +0.000 A 
ATOM      2  C   UNL     1       1.684  12.425  19.722  0.00  0.00    +0.000 A 
ATOM      3  C   UNL     1       1.215  11.160  19.976  0.00  0.00    +0.000 A 
ATOM      4  C   UNL     1       0.460  10.928  21.109  0.00  0.00    +0.000 A 
ATOM      5  C   UNL     1       0.476   9.663  21.734  0.00  0.00    +0.000 A 
ATOM      6  C   UNL     1      -0.270   9.440  22.875  0.00  0.00    +0.000 A 
ATOM      7  C   UNL     1      -1.085  10.465  23.340  0.00  0.00    +0.000 A 
ATOM      8  C   UNL     1      -1.086  11.723  22.701  0.00  0.00    +0.000 A 
ATOM      9 CL   UNL     1      -2.149  12.931  23.340  0.00  0.00    +0.000 Cl
ATOM     10  C   UNL     1      -0.253  12.021  21.609  0.00  0.00    +0.000 A 
ATOM     11  N   UNL     1      -0.099  13.265  21.043  0.00  0.00    +0.000 NA
ENDROOT
BRANCH   1  15
ATOM     12  C   UNL     1       1.468  17.394  18.473  0.00  0.00    +0.000 A 
ATOM     13  C   UNL     1       0.503  17.188  19.465  0.00  0.00    +0.000 A 
ATOM     14  C   UNL     1       0.409  15.944  20.083  0.00  0.00    +0.000 A 
ATOM     15  C   UNL     1       1.216  14.849  19.692  0.00  0.00    +0.000 A 
ATOM     16  C   UNL     1       2.239  15.109  18.777  0.00  0.00    +0.000 A 
ATOM     17  C   UNL     1       2.359  16.364  18.166  0.00  0.00    +0.000 A 
BRANCH  12  19
ATOM     18  C   UNL     1       0.964  18.631  16.527  0.00  0.00    +0.000 C 
ATOM     19  O   UNL     1       1.405  18.619  17.875  0.00  0.00    +0.000 OA
ENDBRANCH  12  19
ENDBRANCH   1  15
BRANCH   3  20
ATOM     20  C   UNL     1       1.001  10.256  18.819  0.00  0.00    +0.000 C 
ATOM     21  O   UNL     1      -0.004  10.240  18.127  0.00  0.00    +0.000 OA
BRANCH  20  22
ATOM     22  O   UNL     1       2.115   9.512  18.589  0.00  0.00    +0.000 OA
BRANCH  22  23
ATOM     23  C   UNL     1       1.818   8.355  17.811  0.00  0.00    +0.000 C 
BRANCH  23  24
ATOM     24  C   UNL     1       2.493   7.179  18.507  0.00  0.00    +0.000 C 
ATOM     25  O   UNL     1       2.328   6.940  19.702  0.00  0.00    +0.000 OA
BRANCH  24  26
ATOM     26  C   UNL     1       3.419   6.336  17.732  0.00  0.00    +0.000 A 
ATOM     27  C   UNL     1       4.346   6.990  16.931  0.00  0.00    +0.000 A 
ATOM     28  C   UNL     1       5.245   6.243  16.167  0.00  0.00    +0.000 A 
ATOM     29  C   UNL     1       5.234   4.845  16.230  0.00  0.00    +0.000 A 
ATOM     30  C   UNL     1       6.210   4.031  15.437  0.00  0.00    +0.000 C 
ATOM     31  C   UNL     1       4.315   4.200  17.066  0.00  0.00    +0.000 A 
ATOM     32  C   UNL     1       3.399   4.940  17.814  0.00  0.00    +0.000 A 
ENDBRANCH  24  26
ENDBRANCH  23  24
ENDBRANCH  22  23
ENDBRANCH  20  22
ENDBRANCH   3  20
TORSDOF 7
ENDMDL
MODEL 9
REMARK VINA RESULT:      -8.0      4.109      9.115
REMARK  Name = 
REMARK  9 active torsions:
REMARK  status: ('A' for Active; 'I' for Inactive)
REMARK    1  A    between atoms: C_1  and  O_2
REMARK    2  A    between atoms: O_2  and  C_3
REMARK    3  A    between atoms: C_6  and  C_7
REMARK    4  A    between atoms: C_9  and  C_10
REMARK    5  A    between atoms: C_10  and  O_12
REMARK    6  A    between atoms: O_12  and  C_13
REMARK    7  A    between atoms: C_13  and  C_14
REMARK    8  A    between atoms: C_14  and  C_16
REMARK    9  A    between atoms: C_19  and  C_20
REMARK                            x       y       z     vdW  Elec       q    Type
REMARK                         _______ _______ _______ _____ _____    ______ ____
ROOT
ATOM      1  C   UNL     1       4.376   4.651  17.610  0.00  0.00    +0.000 A 
ATOM      2  C   UNL     1       3.245   5.418  17.466  0.00  0.00    +0.000 A 
ATOM      3  C   UNL     1       2.448   5.568  18.574  0.00  0.00    +0.000 A 
ATOM      4  C   UNL     1       2.371   4.547  19.501  0.00  0.00    +0.000 A 
ATOM      5  C   UNL     1       1.199   4.360  20.265  0.00  0.00    +0.000 A 
ATOM      6  C   UNL     1       1.122   3.328  21.180  0.00  0.00    +0.000 A 
ATOM      7  C   UNL     1       2.246   2.535  21.377  0.00  0.00    +0.000 A 
ATOM      8  C   UNL     1       3.408   2.739  20.603  0.00  0.00    +0.000 A 
ATOM      9 CL   UNL     1       4.765   1.716  20.933  0.00  0.00    +0.000 Cl
ATOM     10  C   UNL     1       3.482   3.703  19.582  0.00  0.00    +0.000 A 
ATOM     11  N   UNL     1       4.525   3.845  18.697  0.00  0.00    +0.000 NA
ENDROOT
BRANCH   1  15
ATOM     12  C   UNL     1       7.079   4.968  14.281  0.00  0.00    +0.000 A 
ATOM     13  C   UNL     1       7.159   5.881  15.338  0.00  0.00    +0.000 A 
ATOM     14  C   UNL     1       6.358   5.701  16.462  0.00  0.00    +0.000 A 
ATOM     15  C   UNL     1       5.406   4.657  16.546  0.00  0.00    +0.000 A 
ATOM     16  C   UNL     1       5.419   3.702  15.528  0.00  0.00    +0.000 A 
ATOM     17  C   UNL     1       6.239   3.860  14.402  0.00  0.00    +0.000 A 
BRANCH  12  19
ATOM     18  C   UNL     1       7.403   4.780  11.951  0.00  0.00    +0.000 C 
ATOM     19  O   UNL     1       7.839   5.298  13.197  0.00  0.00    +0.000 OA
ENDBRANCH  12  19
ENDBRANCH   1  15
BRANCH   3  20
ATOM     20  C   UNL     1       2.187   6.946  19.059  0.00  0.00    +0.000 C 
ATOM     21  O   UNL     1       2.383   7.329  20.201  0.00  0.00    +0.000 OA
BRANCH  20  22
ATOM     22  O   UNL     1       1.785   7.740  18.031  0.00  0.00    +0.000 OA
BRANCH  22  23
ATOM     23  C   UNL     1       2.275   9.070  18.177  0.00  0.00    +0.000 C 
BRANCH  23  24
ATOM     24  C   UNL     1       1.052   9.972  18.297  0.00  0.00    +0.000 C 
ATOM     25  O   UNL     1      -0.096   9.536  18.224  0.00  0.00    +0.000 OA
BRANCH  24  26
ATOM     26  C   UNL     1       1.256  11.422  18.447  0.00  0.00    +0.000 A 
ATOM     27  C   UNL     1       2.506  11.923  18.105  0.00  0.00    +0.000 A 
ATOM     28  C   UNL     1       2.761  13.289  18.234  0.00  0.00    +0.000 A 
ATOM     29  C   UNL     1       1.755  14.156  18.676  0.00  0.00    +0.000 A 
ATOM     30  C   UNL     1       2.006  15.629  18.794  0.00  0.00    +0.000 C 
ATOM     31  C   UNL     1       0.490  13.643  18.988  0.00  0.00    +0.000 A 
ATOM     32  C   UNL     1       0.237  12.276  18.883  0.00  0.00    +0.000 A 
ENDBRANCH  24  26
ENDBRANCH  23  24
ENDBRANCH  22  23
ENDBRANCH  20  22
ENDBRANCH   3  20
TORSDOF 7
ENDMDL
