MODEL 1
REMARK VINA RESULT:      -8.4      0.000      0.000
REMARK  Name = 
REMARK  11 active torsions:
REMARK  status: ('A' for Active; 'I' for Inactive)
REMARK    1  A    between atoms: C_1  and  C_2
REMARK    2  A    between atoms: C_2  and  C_3
REMARK    3  A    between atoms: C_2  and  S_4
REMARK    4  A    between atoms: S_4  and  C_7
REMARK    5  A    between atoms: C_12  and  N_13
REMARK    6  A    between atoms: N_13  and  C_14
REMARK    7  A    between atoms: N_17  and  C_18
REMARK    8  A    between atoms: C_22  and  N_23
REMARK    9  A    between atoms: C_24  and  C_26
REMARK   10  A    between atoms: C_26  and  C_27
REMARK   11  A    between atoms: C_27  and  N_28
REMARK                            x       y       z     vdW  Elec       q    Type
REMARK                         _______ _______ _______ _____ _____    ______ ____
ROOT
ATOM      1  C   UNL     1       1.387   9.496  19.660  0.00  0.00    +0.000 A 
ATOM      2  N   UNL     1       1.314   8.305  20.314  0.00  0.00    +0.000 NA
ATOM      3  C   UNL     1       1.864   7.220  19.737  0.00  0.00    +0.000 A 
ATOM      4  N   UNL     1       1.743   5.992  20.401  0.00  0.00    +0.000 N 
ATOM      5  N   UNL     1       2.464   7.255  18.537  0.00  0.00    +0.000 NA
ATOM      6  C   UNL     1       2.546   8.444  17.916  0.00  0.00    +0.000 A 
ATOM      7  C   UNL     1       2.048   9.610  18.443  0.00  0.00    +0.000 A 
ATOM      8 CL   UNL     1       2.292  11.103  17.630  0.00  0.00    +0.000 Cl
ATOM      9  H   UNL     1       1.355   6.149  21.323  0.00  0.00    +0.000 HD
ENDROOT
BRANCH   4  10
ATOM     10  C   UNL     1       2.602   4.876  20.302  0.00  0.00    +0.000 A 
ATOM     11  C   UNL     1       2.353   3.695  21.011  0.00  0.00    +0.000 A 
ATOM     12  C   UNL     1       3.196   2.597  20.889  0.00  0.00    +0.000 A 
ATOM     13  C   UNL     1       4.306   2.659  20.050  0.00  0.00    +0.000 A 
ATOM     14  C   UNL     1       4.598   3.817  19.329  0.00  0.00    +0.000 A 
ATOM     15  C   UNL     1       3.729   4.920  19.454  0.00  0.00    +0.000 A 
BRANCH  14  16
ATOM     16  N   UNL     1       5.727   3.917  18.476  0.00  0.00    +0.000 N 
ATOM     17  C   UNL     1       5.727   4.381  17.163  0.00  0.00    +0.000 C 
ATOM     18  O   UNL     1       4.753   4.772  16.526  0.00  0.00    +0.000 OA
ATOM     19  H   UNL     1       6.609   3.600  18.861  0.00  0.00    +0.000 HD
BRANCH  17  20
ATOM     20  C   UNL     1       7.099   4.458  16.528  0.00  0.00    +0.000 C 
BRANCH  20  21
ATOM     21  C   UNL     1       6.931   4.529  15.016  0.00  0.00    +0.000 C 
BRANCH  21  22
ATOM     22  N   UNL     1       7.836   5.511  14.426  0.00  0.00    +0.000 NA
ATOM     23  H   UNL     1       7.515   6.457  14.622  0.00  0.00    +0.000 HD
ATOM     24  H   UNL     1       7.831   5.407  13.412  0.00  0.00    +0.000 HD
ENDBRANCH  21  22
ENDBRANCH  20  21
ENDBRANCH  17  20
ENDBRANCH  14  16
ENDBRANCH   4  10
BRANCH   1  25
ATOM     25  N   UNL     1       0.637  10.606  20.157  0.00  0.00    +0.000 N 
ATOM     26  H   UNL     1       0.595  10.574  21.181  0.00  0.00    +0.000 HD
BRANCH  25  32
ATOM     27  C   UNL     1      -1.346  12.116  20.254  0.00  0.00    +0.000 A 
ATOM     28  C   UNL     1      -2.645  12.411  19.789  0.00  0.00    +0.000 A 
ATOM     29  C   UNL     1      -3.202  11.703  18.726  0.00  0.00    +0.000 A 
ATOM     30  C   UNL     1      -2.476  10.688  18.120  0.00  0.00    +0.000 A 
ATOM     31  C   UNL     1      -1.200  10.376  18.586  0.00  0.00    +0.000 A 
ATOM     32  C   UNL     1      -0.600  11.080  19.651  0.00  0.00    +0.000 A 
BRANCH  27  33
ATOM     33  S   UNL     1      -0.844  12.950  21.759  0.00  0.00    +0.000 S 
ATOM     34  O   UNL     1      -1.496  14.252  21.772  0.00  0.00    +0.000 OA
ATOM     35  O   UNL     1       0.610  12.898  21.774  0.00  0.00    +0.000 OA
BRANCH  33  37
ATOM     36  C   UNL     1      -2.916  12.164  23.322  0.00  0.00    +0.000 C 
ATOM     37  C   UNL     1      -1.397  12.000  23.195  0.00  0.00    +0.000 C 
ATOM     38  C   UNL     1      -1.035  10.524  23.130  0.00  0.00    +0.000 C 
ENDBRANCH  33  37
ENDBRANCH  27  33
ENDBRANCH  25  32
ENDBRANCH   1  25
TORSDOF 9
ENDMDL
MODEL 2
REMARK VINA RESULT:      -8.3      3.209      9.248
REMARK  Name = 
REMARK  11 active torsions:
REMARK  status: ('A' for Active; 'I' for Inactive)
REMARK    1  A    between atoms: C_1  and  C_2
REMARK    2  A    between atoms: C_2  and  C_3
REMARK    3  A    between atoms: C_2  and  S_4
REMARK    4  A    between atoms: S_4  and  C_7
REMARK    5  A    between atoms: C_12  and  N_13
REMARK    6  A    between atoms: N_13  and  C_14
REMARK    7  A    between atoms: N_17  and  C_18
REMARK    8  A    between atoms: C_22  and  N_23
REMARK    9  A    between atoms: C_24  and  C_26
REMARK   10  A    between atoms: C_26  and  C_27
REMARK   11  A    between atoms: C_27  and  N_28
REMARK                            x       y       z     vdW  Elec       q    Type
REMARK                         _______ _______ _______ _____ _____    ______ ____
ROOT
ATOM      1  C   UNL     1       2.029   7.718  19.879  0.00  0.00    +0.000 A 
ATOM      2  N   UNL     1       1.314   8.408  20.809  0.00  0.00    +0.000 NA
ATOM      3  C   UNL     1       0.770   9.587  20.457  0.00  0.00    +0.000 A 
ATOM      4  N   UNL     1       0.073  10.307  21.437  0.00  0.00    +0.000 N 
ATOM      5  N   UNL     1       0.916  10.124  19.236  0.00  0.00    +0.000 NA
ATOM      6  C   UNL     1       1.607   9.419  18.324  0.00  0.00    +0.000 A 
ATOM      7  C   UNL     1       2.165   8.191  18.580  0.00  0.00    +0.000 A 
ATOM      8 CL   UNL     1       2.939   7.311  17.324  0.00  0.00    +0.000 Cl
ATOM      9  H   UNL     1      -0.028   9.731  22.264  0.00  0.00    +0.000 HD
ENDROOT
BRANCH   4  10
ATOM     10  C   UNL     1      -0.964  11.244  21.238  0.00  0.00    +0.000 A 
ATOM     11  C   UNL     1      -1.299  12.185  22.218  0.00  0.00    +0.000 A 
ATOM     12  C   UNL     1      -2.310  13.114  22.000  0.00  0.00    +0.000 A 
ATOM     13  C   UNL     1      -3.004  13.121  20.793  0.00  0.00    +0.000 A 
ATOM     14  C   UNL     1      -2.708  12.198  19.789  0.00  0.00    +0.000 A 
ATOM     15  C   UNL     1      -1.675  11.268  20.019  0.00  0.00    +0.000 A 
BRANCH  14  16
ATOM     16  N   UNL     1      -3.405  12.170  18.553  0.00  0.00    +0.000 N 
ATOM     17  C   UNL     1      -3.813  11.030  17.866  0.00  0.00    +0.000 C 
ATOM     18  O   UNL     1      -3.632   9.866  18.209  0.00  0.00    +0.000 OA
ATOM     19  H   UNL     1      -3.602  13.069  18.130  0.00  0.00    +0.000 HD
BRANCH  17  20
ATOM     20  C   UNL     1      -4.617  11.311  16.614  0.00  0.00    +0.000 C 
BRANCH  20  21
ATOM     21  C   UNL     1      -3.718  11.099  15.402  0.00  0.00    +0.000 C 
BRANCH  21  22
ATOM     22  N   UNL     1      -2.307  11.205  15.762  0.00  0.00    +0.000 NA
ATOM     23  H   UNL     1      -1.943  12.123  15.516  0.00  0.00    +0.000 HD
ATOM     24  H   UNL     1      -1.770  10.526  15.223  0.00  0.00    +0.000 HD
ENDBRANCH  21  22
ENDBRANCH  20  21
ENDBRANCH  17  20
ENDBRANCH  14  16
ENDBRANCH   4  10
BRANCH   1  25
ATOM     25  N   UNL     1       2.779   6.574  20.291  0.00  0.00    +0.000 N 
ATOM     26  H   UNL     1       3.768   6.692  20.046  0.00  0.00    +0.000 HD
BRANCH  25  32
ATOM     27  C   UNL     1       3.268   4.241  19.557  0.00  0.00    +0.000 A 
ATOM     28  C   UNL     1       2.770   2.957  19.254  0.00  0.00    +0.000 A 
ATOM     29  C   UNL     1       1.441   2.626  19.509  0.00  0.00    +0.000 A 
ATOM     30  C   UNL     1       0.591   3.573  20.060  0.00  0.00    +0.000 A 
ATOM     31  C   UNL     1       1.068   4.852  20.344  0.00  0.00    +0.000 A 
ATOM     32  C   UNL     1       2.411   5.216  20.111  0.00  0.00    +0.000 A 
BRANCH  27  33
ATOM     33  S   UNL     1       4.927   4.595  18.978  0.00  0.00    +0.000 S 
ATOM     34  O   UNL     1       5.731   3.402  19.206  0.00  0.00    +0.000 OA
ATOM     35  O   UNL     1       5.318   5.834  19.632  0.00  0.00    +0.000 OA
BRANCH  33  37
ATOM     36  C   UNL     1       6.066   5.880  16.879  0.00  0.00    +0.000 C 
ATOM     37  C   UNL     1       4.890   4.951  17.206  0.00  0.00    +0.000 C 
ATOM     38  C   UNL     1       4.949   3.709  16.330  0.00  0.00    +0.000 C 
ENDBRANCH  33  37
ENDBRANCH  27  33
ENDBRANCH  25  32
ENDBRANCH   1  25
TORSDOF 9
ENDMDL
MODEL 3
REMARK VINA RESULT:      -8.3      3.877      9.564
REMARK  Name = 
REMARK  11 active torsions:
REMARK  status: ('A' for Active; 'I' for Inactive)
REMARK    1  A    between atoms: C_1  and  C_2
REMARK    2  A    between atoms: C_2  and  C_3
REMARK    3  A    between atoms: C_2  and  S_4
REMARK    4  A    between atoms: S_4  and  C_7
REMARK    5  A    between atoms: C_12  and  N_13
REMARK    6  A    between atoms: N_13  and  C_14
REMARK    7  A    between atoms: N_17  and  C_18
REMARK    8  A    between atoms: C_22  and  N_23
REMARK    9  A    between atoms: C_24  and  C_26
REMARK   10  A    between atoms: C_26  and  C_27
REMARK   11  A    between atoms: C_27  and  N_28
REMARK                            x       y       z     vdW  Elec       q    Type
REMARK                         _______ _______ _______ _____ _____    ______ ____
ROOT
ATOM      1  C   UNL     1       3.707   3.915  17.681  0.00  0.00    +0.000 A 
ATOM      2  N   UNL     1       3.682   5.275  17.624  0.00  0.00    +0.000 NA
ATOM      3  C   UNL     1       2.553   5.913  17.985  0.00  0.00    +0.000 A 
ATOM      4  N   UNL     1       2.528   7.310  17.880  0.00  0.00    +0.000 N 
ATOM      5  N   UNL     1       1.444   5.269  18.380  0.00  0.00    +0.000 NA
ATOM      6  C   UNL     1       1.494   3.928  18.451  0.00  0.00    +0.000 A 
ATOM      7  C   UNL     1       2.611   3.194  18.139  0.00  0.00    +0.000 A 
ATOM      8 CL   UNL     1       2.620   1.491  18.362  0.00  0.00    +0.000 Cl
ATOM      9  H   UNL     1       3.458   7.644  17.663  0.00  0.00    +0.000 HD
ENDROOT
BRANCH   4  10
ATOM     10  C   UNL     1       1.732   8.211  18.621  0.00  0.00    +0.000 A 
ATOM     11  C   UNL     1       1.829   8.297  20.015  0.00  0.00    +0.000 A 
ATOM     12  C   UNL     1       1.054   9.202  20.730  0.00  0.00    +0.000 A 
ATOM     13  C   UNL     1       0.168  10.043  20.062  0.00  0.00    +0.000 A 
ATOM     14  C   UNL     1       0.033   9.988  18.675  0.00  0.00    +0.000 A 
ATOM     15  C   UNL     1       0.832   9.073  17.961  0.00  0.00    +0.000 A 
BRANCH  14  16
ATOM     16  N   UNL     1      -0.870  10.822  17.966  0.00  0.00    +0.000 N 
ATOM     17  C   UNL     1      -2.168  10.491  17.586  0.00  0.00    +0.000 C 
ATOM     18  O   UNL     1      -2.742   9.426  17.794  0.00  0.00    +0.000 OA
ATOM     19  H   UNL     1      -0.522  11.734  17.698  0.00  0.00    +0.000 HD
BRANCH  17  20
ATOM     20  C   UNL     1      -2.928  11.616  16.916  0.00  0.00    +0.000 C 
BRANCH  20  21
ATOM     21  C   UNL     1      -3.781  11.028  15.799  0.00  0.00    +0.000 C 
BRANCH  21  22
ATOM     22  N   UNL     1      -2.963  10.304  14.831  0.00  0.00    +0.000 NA
ATOM     23  H   UNL     1      -2.054  10.748  14.727  0.00  0.00    +0.000 HD
ATOM     24  H   UNL     1      -3.411  10.343  13.916  0.00  0.00    +0.000 HD
ENDBRANCH  21  22
ENDBRANCH  20  21
ENDBRANCH  17  20
ENDBRANCH  14  16
ENDBRANCH   4  10
BRANCH   1  25
ATOM     25  N   UNL     1       4.816   3.218  17.111  0.00  0.00    +0.000 N 
ATOM     26  H   UNL     1       5.425   2.857  17.853  0.00  0.00    +0.000 HD
BRANCH  25  32
ATOM     27  C   UNL     1       6.826   4.359  16.170  0.00  0.00    +0.000 A 
ATOM     28  C   UNL     1       7.468   4.902  15.039  0.00  0.00    +0.000 A 
ATOM     29  C   UNL     1       6.930   4.738  13.763  0.00  0.00    +0.000 A 
ATOM     30  C   UNL     1       5.743   4.040  13.602  0.00  0.00    +0.000 A 
ATOM     31  C   UNL     1       5.090   3.516  14.717  0.00  0.00    +0.000 A 
ATOM     32  C   UNL     1       5.612   3.651  16.021  0.00  0.00    +0.000 A 
BRANCH  27  33
ATOM     33  S   UNL     1       7.507   4.829  17.760  0.00  0.00    +0.000 S 
ATOM     34  O   UNL     1       8.767   4.118  17.920  0.00  0.00    +0.000 OA
ATOM     35  O   UNL     1       6.447   4.597  18.730  0.00  0.00    +0.000 OA
BRANCH  33  37
ATOM     36  C   UNL     1       6.525   7.335  17.426  0.00  0.00    +0.000 C 
ATOM     37  C   UNL     1       7.828   6.608  17.782  0.00  0.00    +0.000 C 
ATOM     38  C   UNL     1       8.363   7.119  19.111  0.00  0.00    +0.000 C 
ENDBRANCH  33  37
ENDBRANCH  27  33
ENDBRANCH  25  32
ENDBRANCH   1  25
TORSDOF 9
ENDMDL
MODEL 4
REMARK VINA RESULT:      -8.3      2.350      3.309
REMARK  Name = 
REMARK  11 active torsions:
REMARK  status: ('A' for Active; 'I' for Inactive)
REMARK    1  A    between atoms: C_1  and  C_2
REMARK    2  A    between atoms: C_2  and  C_3
REMARK    3  A    between atoms: C_2  and  S_4
REMARK    4  A    between atoms: S_4  and  C_7
REMARK    5  A    between atoms: C_12  and  N_13
REMARK    6  A    between atoms: N_13  and  C_14
REMARK    7  A    between atoms: N_17  and  C_18
REMARK    8  A    between atoms: C_22  and  N_23
REMARK    9  A    between atoms: C_24  and  C_26
REMARK   10  A    between atoms: C_26  and  C_27
REMARK   11  A    between atoms: C_27  and  N_28
REMARK                            x       y       z     vdW  Elec       q    Type
REMARK                         _______ _______ _______ _____ _____    ______ ____
ROOT
ATOM      1  C   UNL     1      -0.715  10.801  20.546  0.00  0.00    +0.000 A 
ATOM      2  N   UNL     1      -0.003  10.052  19.660  0.00  0.00    +0.000 NA
ATOM      3  C   UNL     1       0.883   9.160  20.139  0.00  0.00    +0.000 A 
ATOM      4  N   UNL     1       1.640   8.426  19.215  0.00  0.00    +0.000 N 
ATOM      5  N   UNL     1       1.112   8.988  21.450  0.00  0.00    +0.000 NA
ATOM      6  C   UNL     1       0.385   9.721  22.311  0.00  0.00    +0.000 A 
ATOM      7  C   UNL     1      -0.567  10.627  21.917  0.00  0.00    +0.000 A 
ATOM      8 CL   UNL     1      -1.526  11.442  23.087  0.00  0.00    +0.000 Cl
ATOM      9  H   UNL     1       1.285   8.599  18.283  0.00  0.00    +0.000 HD
ENDROOT
BRANCH   4  10
ATOM     10  C   UNL     1       2.220   7.153  19.401  0.00  0.00    +0.000 A 
ATOM     11  C   UNL     1       1.671   6.220  20.288  0.00  0.00    +0.000 A 
ATOM     12  C   UNL     1       2.242   4.963  20.446  0.00  0.00    +0.000 A 
ATOM     13  C   UNL     1       3.374   4.613  19.715  0.00  0.00    +0.000 A 
ATOM     14  C   UNL     1       3.960   5.512  18.824  0.00  0.00    +0.000 A 
ATOM     15  C   UNL     1       3.366   6.780  18.666  0.00  0.00    +0.000 A 
BRANCH  14  16
ATOM     16  N   UNL     1       5.121   5.191  18.074  0.00  0.00    +0.000 N 
ATOM     17  C   UNL     1       6.425   5.141  18.560  0.00  0.00    +0.000 C 
ATOM     18  O   UNL     1       6.786   5.372  19.711  0.00  0.00    +0.000 OA
ATOM     19  H   UNL     1       4.981   5.002  17.089  0.00  0.00    +0.000 HD
BRANCH  17  20
ATOM     20  C   UNL     1       7.451   4.682  17.547  0.00  0.00    +0.000 C 
BRANCH  20  21
ATOM     21  C   UNL     1       6.774   4.569  16.187  0.00  0.00    +0.000 C 
BRANCH  21  22
ATOM     22  N   UNL     1       6.670   5.871  15.535  0.00  0.00    +0.000 NA
ATOM     23  H   UNL     1       6.325   5.770  14.583  0.00  0.00    +0.000 HD
ATOM     24  H   UNL     1       7.598   6.287  15.464  0.00  0.00    +0.000 HD
ENDBRANCH  21  22
ENDBRANCH  20  21
ENDBRANCH  17  20
ENDBRANCH  14  16
ENDBRANCH   4  10
BRANCH   1  25
ATOM     25  N   UNL     1      -1.504  11.887  20.058  0.00  0.00    +0.000 N 
ATOM     26  H   UNL     1      -1.674  12.566  20.808  0.00  0.00    +0.000 HD
BRANCH  25  32
ATOM     27  C   UNL     1      -3.908  12.358  19.584  0.00  0.00    +0.000 A 
ATOM     28  C   UNL     1      -5.049  12.069  18.808  0.00  0.00    +0.000 A 
ATOM     29  C   UNL     1      -4.964  11.238  17.692  0.00  0.00    +0.000 A 
ATOM     30  C   UNL     1      -3.745  10.678  17.344  0.00  0.00    +0.000 A 
ATOM     31  C   UNL     1      -2.614  10.941  18.117  0.00  0.00    +0.000 A 
ATOM     32  C   UNL     1      -2.661  11.788  19.244  0.00  0.00    +0.000 A 
BRANCH  27  33
ATOM     33  S   UNL     1      -4.202  13.258  21.106  0.00  0.00    +0.000 S 
ATOM     34  O   UNL     1      -3.028  14.082  21.357  0.00  0.00    +0.000 OA
ATOM     35  O   UNL     1      -4.575  12.256  22.093  0.00  0.00    +0.000 OA
BRANCH  33  37
ATOM     36  C   UNL     1      -6.297  14.513  22.284  0.00  0.00    +0.000 C 
ATOM     37  C   UNL     1      -5.644  14.331  20.909  0.00  0.00    +0.000 C 
ATOM     38  C   UNL     1      -5.320  15.687  20.301  0.00  0.00    +0.000 C 
ENDBRANCH  33  37
ENDBRANCH  27  33
ENDBRANCH  25  32
ENDBRANCH   1  25
TORSDOF 9
ENDMDL
MODEL 5
REMARK VINA RESULT:      -8.3      0.995      1.187
REMARK  Name = 
REMARK  11 active torsions:
REMARK  status: ('A' for Active; 'I' for Inactive)
REMARK    1  A    between atoms: C_1  and  C_2
REMARK    2  A    between atoms: C_2  and  C_3
REMARK    3  A    between atoms: C_2  and  S_4
REMARK    4  A    between atoms: S_4  and  C_7
REMARK    5  A    between atoms: C_12  and  N_13
REMARK    6  A    between atoms: N_13  and  C_14
REMARK    7  A    between atoms: N_17  and  C_18
REMARK    8  A    between atoms: C_22  and  N_23
REMARK    9  A    between atoms: C_24  and  C_26
REMARK   10  A    between atoms: C_26  and  C_27
REMARK   11  A    between atoms: C_27  and  N_28
REMARK                            x       y       z     vdW  Elec       q    Type
REMARK                         _______ _______ _______ _____ _____    ______ ____
ROOT
ATOM      1  C   UNL     1       1.438   9.306  19.913  0.00  0.00    +0.000 A 
ATOM      2  N   UNL     1       1.376   8.130  20.595  0.00  0.00    +0.000 NA
ATOM      3  C   UNL     1       1.853   7.019  20.006  0.00  0.00    +0.000 A 
ATOM      4  N   UNL     1       1.743   5.808  20.703  0.00  0.00    +0.000 N 
ATOM      5  N   UNL     1       2.369   7.012  18.767  0.00  0.00    +0.000 NA
ATOM      6  C   UNL     1       2.442   8.186  18.116  0.00  0.00    +0.000 A 
ATOM      7  C   UNL     1       2.016   9.376  18.651  0.00  0.00    +0.000 A 
ATOM      8 CL   UNL     1       2.246  10.846  17.791  0.00  0.00    +0.000 Cl
ATOM      9  H   UNL     1       1.425   5.995  21.646  0.00  0.00    +0.000 HD
ENDROOT
BRANCH   4  10
ATOM     10  C   UNL     1       2.561   4.665  20.569  0.00  0.00    +0.000 A 
ATOM     11  C   UNL     1       2.264   3.471  21.236  0.00  0.00    +0.000 A 
ATOM     12  C   UNL     1       3.067   2.347  21.079  0.00  0.00    +0.000 A 
ATOM     13  C   UNL     1       4.183   2.396  20.248  0.00  0.00    +0.000 A 
ATOM     14  C   UNL     1       4.521   3.567  19.569  0.00  0.00    +0.000 A 
ATOM     15  C   UNL     1       3.693   4.696  19.728  0.00  0.00    +0.000 A 
BRANCH  14  16
ATOM     16  N   UNL     1       5.659   3.654  18.725  0.00  0.00    +0.000 N 
ATOM     17  C   UNL     1       6.071   4.779  18.017  0.00  0.00    +0.000 C 
ATOM     18  O   UNL     1       5.519   5.875  17.999  0.00  0.00    +0.000 OA
ATOM     19  H   UNL     1       6.204   2.807  18.618  0.00  0.00    +0.000 HD
BRANCH  17  20
ATOM     20  C   UNL     1       7.375   4.601  17.268  0.00  0.00    +0.000 C 
BRANCH  20  21
ATOM     21  C   UNL     1       7.070   4.505  15.778  0.00  0.00    +0.000 C 
BRANCH  21  22
ATOM     22  N   UNL     1       5.741   3.948  15.543  0.00  0.00    +0.000 NA
ATOM     23  H   UNL     1       5.359   4.291  14.665  0.00  0.00    +0.000 HD
ATOM     24  H   UNL     1       5.109   4.264  16.278  0.00  0.00    +0.000 HD
ENDBRANCH  21  22
ENDBRANCH  20  21
ENDBRANCH  17  20
ENDBRANCH  14  16
ENDBRANCH   4  10
BRANCH   1  25
ATOM     25  N   UNL     1       0.756  10.448  20.436  0.00  0.00    +0.000 N 
ATOM     26  H   UNL     1       0.711  10.395  21.459  0.00  0.00    +0.000 HD
BRANCH  25  32
ATOM     27  C   UNL     1      -1.215  11.962  20.648  0.00  0.00    +0.000 A 
ATOM     28  C   UNL     1      -2.485  12.340  20.166  0.00  0.00    +0.000 A 
ATOM     29  C   UNL     1      -2.996  11.797  18.989  0.00  0.00    +0.000 A 
ATOM     30  C   UNL     1      -2.250  10.864  18.283  0.00  0.00    +0.000 A 
ATOM     31  C   UNL     1      -1.002  10.468  18.761  0.00  0.00    +0.000 A 
ATOM     32  C   UNL     1      -0.449  11.008  19.942  0.00  0.00    +0.000 A 
BRANCH  27  33
ATOM     33  S   UNL     1      -0.781  12.571  22.276  0.00  0.00    +0.000 S 
ATOM     34  O   UNL     1       0.304  13.528  22.107  0.00  0.00    +0.000 OA
ATOM     35  O   UNL     1      -0.546  11.389  23.092  0.00  0.00    +0.000 OA
BRANCH  33  37
ATOM     36  C   UNL     1      -3.106  12.357  23.655  0.00  0.00    +0.000 C 
ATOM     37  C   UNL     1      -2.202  13.414  23.010  0.00  0.00    +0.000 C 
ATOM     38  C   UNL     1      -1.825  14.474  24.034  0.00  0.00    +0.000 C 
ENDBRANCH  33  37
ENDBRANCH  27  33
ENDBRANCH  25  32
ENDBRANCH   1  25
TORSDOF 9
ENDMDL
MODEL 6
REMARK VINA RESULT:      -8.2      1.118      1.366
REMARK  Name = 
REMARK  11 active torsions:
REMARK  status: ('A' for Active; 'I' for Inactive)
REMARK    1  A    between atoms: C_1  and  C_2
REMARK    2  A    between atoms: C_2  and  C_3
REMARK    3  A    between atoms: C_2  and  S_4
REMARK    4  A    between atoms: S_4  and  C_7
REMARK    5  A    between atoms: C_12  and  N_13
REMARK    6  A    between atoms: N_13  and  C_14
REMARK    7  A    between atoms: N_17  and  C_18
REMARK    8  A    between atoms: C_22  and  N_23
REMARK    9  A    between atoms: C_24  and  C_26
REMARK   10  A    between atoms: C_26  and  C_27
REMARK   11  A    between atoms: C_27  and  N_28
REMARK                            x       y       z     vdW  Elec       q    Type
REMARK                         _______ _______ _______ _____ _____    ______ ____
ROOT
ATOM      1  C   UNL     1       1.266   9.657  20.048  0.00  0.00    +0.000 A 
ATOM      2  N   UNL     1       1.197   8.447  20.667  0.00  0.00    +0.000 NA
ATOM      3  C   UNL     1       1.687   7.369  20.028  0.00  0.00    +0.000 A 
ATOM      4  N   UNL     1       1.569   6.123  20.659  0.00  0.00    +0.000 N 
ATOM      5  N   UNL     1       2.223   7.428  18.799  0.00  0.00    +0.000 NA
ATOM      6  C   UNL     1       2.303   8.635  18.212  0.00  0.00    +0.000 A 
ATOM      7  C   UNL     1       1.865   9.794  18.801  0.00  0.00    +0.000 A 
ATOM      8 CL   UNL     1       2.104  11.307  18.024  0.00  0.00    +0.000 Cl
ATOM      9  H   UNL     1       1.235   6.259  21.605  0.00  0.00    +0.000 HD
ENDROOT
BRANCH   4  10
ATOM     10  C   UNL     1       2.393   4.990  20.479  0.00  0.00    +0.000 A 
ATOM     11  C   UNL     1       2.196   3.818  21.217  0.00  0.00    +0.000 A 
ATOM     12  C   UNL     1       3.002   2.703  21.016  0.00  0.00    +0.000 A 
ATOM     13  C   UNL     1       4.020   2.740  20.067  0.00  0.00    +0.000 A 
ATOM     14  C   UNL     1       4.257   3.889  19.312  0.00  0.00    +0.000 A 
ATOM     15  C   UNL     1       3.427   5.009  19.519  0.00  0.00    +0.000 A 
BRANCH  14  16
ATOM     16  N   UNL     1       5.295   3.963  18.346  0.00  0.00    +0.000 N 
ATOM     17  C   UNL     1       5.143   3.847  16.968  0.00  0.00    +0.000 C 
ATOM     18  O   UNL     1       4.093   3.655  16.361  0.00  0.00    +0.000 OA
ATOM     19  H   UNL     1       6.232   4.093  18.706  0.00  0.00    +0.000 HD
BRANCH  17  20
ATOM     20  C   UNL     1       6.418   4.058  16.180  0.00  0.00    +0.000 C 
BRANCH  20  21
ATOM     21  C   UNL     1       7.359   4.929  17.003  0.00  0.00    +0.000 C 
BRANCH  21  22
ATOM     22  N   UNL     1       8.260   4.117  17.815  0.00  0.00    +0.000 NA
ATOM     23  H   UNL     1       8.183   3.134  17.562  0.00  0.00    +0.000 HD
ATOM     24  H   UNL     1       7.986   4.187  18.794  0.00  0.00    +0.000 HD
ENDBRANCH  21  22
ENDBRANCH  20  21
ENDBRANCH  17  20
ENDBRANCH  14  16
ENDBRANCH   4  10
BRANCH   1  25
ATOM     25  N   UNL     1       0.573  10.768  20.619  0.00  0.00    +0.000 N 
ATOM     26  H   UNL     1       0.552  10.685  21.641  0.00  0.00    +0.000 HD
BRANCH  25  32
ATOM     27  C   UNL     1      -1.463  12.171  20.949  0.00  0.00    +0.000 A 
ATOM     28  C   UNL     1      -2.748  12.534  20.495  0.00  0.00    +0.000 A 
ATOM     29  C   UNL     1      -3.233  12.071  19.273  0.00  0.00    +0.000 A 
ATOM     30  C   UNL     1      -2.447  11.234  18.494  0.00  0.00    +0.000 A 
ATOM     31  C   UNL     1      -1.183  10.854  18.944  0.00  0.00    +0.000 A 
ATOM     32  C   UNL     1      -0.656  11.315  20.168  0.00  0.00    +0.000 A 
BRANCH  27  33
ATOM     33  S   UNL     1      -1.058  12.658  22.626  0.00  0.00    +0.000 S 
ATOM     34  O   UNL     1       0.108  13.528  22.555  0.00  0.00    +0.000 OA
ATOM     35  O   UNL     1      -0.959  11.420  23.384  0.00  0.00    +0.000 OA
BRANCH  33  37
ATOM     36  C   UNL     1      -3.396  12.575  23.997  0.00  0.00    +0.000 C 
ATOM     37  C   UNL     1      -2.439  13.579  23.342  0.00  0.00    +0.000 C 
ATOM     38  C   UNL     1      -2.014  14.631  24.355  0.00  0.00    +0.000 C 
ENDBRANCH  33  37
ENDBRANCH  27  33
ENDBRANCH  25  32
ENDBRANCH   1  25
TORSDOF 9
ENDMDL
MODEL 7
REMARK VINA RESULT:      -8.2      1.220      1.349
REMARK  Name = 
REMARK  11 active torsions:
REMARK  status: ('A' for Active; 'I' for Inactive)
REMARK    1  A    between atoms: C_1  and  C_2
REMARK    2  A    between atoms: C_2  and  C_3
REMARK    3  A    between atoms: C_2  and  S_4
REMARK    4  A    between atoms: S_4  and  C_7
REMARK    5  A    between atoms: C_12  and  N_13
REMARK    6  A    between atoms: N_13  and  C_14
REMARK    7  A    between atoms: N_17  and  C_18
REMARK    8  A    between atoms: C_22  and  N_23
REMARK    9  A    between atoms: C_24  and  C_26
REMARK   10  A    between atoms: C_26  and  C_27
REMARK   11  A    between atoms: C_27  and  N_28
REMARK                            x       y       z     vdW  Elec       q    Type
REMARK                         _______ _______ _______ _____ _____    ______ ____
ROOT
ATOM      1  C   UNL     1       1.284   9.492  19.697  0.00  0.00    +0.000 A 
ATOM      2  N   UNL     1       1.117   8.321  20.371  0.00  0.00    +0.000 NA
ATOM      3  C   UNL     1       1.622   7.195  19.837  0.00  0.00    +0.000 A 
ATOM      4  N   UNL     1       1.405   5.990  20.521  0.00  0.00    +0.000 N 
ATOM      5  N   UNL     1       2.267   7.168  18.660  0.00  0.00    +0.000 NA
ATOM      6  C   UNL     1       2.440   8.337  18.019  0.00  0.00    +0.000 A 
ATOM      7  C   UNL     1       1.994   9.541  18.504  0.00  0.00    +0.000 A 
ATOM      8 CL   UNL     1       2.354  10.999  17.671  0.00  0.00    +0.000 Cl
ATOM      9  H   UNL     1       0.995   6.190  21.424  0.00  0.00    +0.000 HD
ENDROOT
BRANCH   4  10
ATOM     10  C   UNL     1       2.200   4.824  20.476  0.00  0.00    +0.000 A 
ATOM     11  C   UNL     1       1.752   3.612  21.011  0.00  0.00    +0.000 A 
ATOM     12  C   UNL     1       2.537   2.466  20.943  0.00  0.00    +0.000 A 
ATOM     13  C   UNL     1       3.788   2.513  20.333  0.00  0.00    +0.000 A 
ATOM     14  C   UNL     1       4.279   3.702  19.792  0.00  0.00    +0.000 A 
ATOM     15  C   UNL     1       3.469   4.853  19.859  0.00  0.00    +0.000 A 
BRANCH  14  16
ATOM     16  N   UNL     1       5.555   3.786  19.176  0.00  0.00    +0.000 N 
ATOM     17  C   UNL     1       5.989   4.796  18.321  0.00  0.00    +0.000 C 
ATOM     18  O   UNL     1       5.342   5.772  17.955  0.00  0.00    +0.000 OA
ATOM     19  H   UNL     1       6.195   3.025  19.365  0.00  0.00    +0.000 HD
BRANCH  17  20
ATOM     20  C   UNL     1       7.433   4.666  17.886  0.00  0.00    +0.000 C 
BRANCH  20  21
ATOM     21  C   UNL     1       8.296   5.523  18.805  0.00  0.00    +0.000 C 
BRANCH  21  22
ATOM     22  N   UNL     1       7.771   5.534  20.167  0.00  0.00    +0.000 NA
ATOM     23  H   UNL     1       8.482   5.850  20.823  0.00  0.00    +0.000 HD
ATOM     24  H   UNL     1       7.526   4.583  20.442  0.00  0.00    +0.000 HD
ENDBRANCH  21  22
ENDBRANCH  20  21
ENDBRANCH  17  20
ENDBRANCH  14  16
ENDBRANCH   4  10
BRANCH   1  25
ATOM     25  N   UNL     1       0.582  10.654  20.143  0.00  0.00    +0.000 N 
ATOM     26  H   UNL     1       0.574  10.691  21.168  0.00  0.00    +0.000 HD
BRANCH  25  32
ATOM     27  C   UNL     1      -1.399  12.166  20.260  0.00  0.00    +0.000 A 
ATOM     28  C   UNL     1      -2.700  12.463  19.805  0.00  0.00    +0.000 A 
ATOM     29  C   UNL     1      -3.266  11.760  18.743  0.00  0.00    +0.000 A 
ATOM     30  C   UNL     1      -2.545  10.747  18.129  0.00  0.00    +0.000 A 
ATOM     31  C   UNL     1      -1.266  10.431  18.584  0.00  0.00    +0.000 A 
ATOM     32  C   UNL     1      -0.658  11.131  19.648  0.00  0.00    +0.000 A 
BRANCH  27  33
ATOM     33  S   UNL     1      -0.885  12.994  21.764  0.00  0.00    +0.000 S 
ATOM     34  O   UNL     1      -1.528  14.301  21.781  0.00  0.00    +0.000 OA
ATOM     35  O   UNL     1       0.568  12.931  21.774  0.00  0.00    +0.000 OA
BRANCH  33  37
ATOM     36  C   UNL     1      -2.961  12.201  23.318  0.00  0.00    +0.000 C 
ATOM     37  C   UNL     1      -1.440  12.046  23.201  0.00  0.00    +0.000 C 
ATOM     38  C   UNL     1      -1.068  10.573  23.143  0.00  0.00    +0.000 C 
ENDBRANCH  33  37
ENDBRANCH  27  33
ENDBRANCH  25  32
ENDBRANCH   1  25
TORSDOF 9
ENDMDL
MODEL 8
REMARK VINA RESULT:      -8.2      2.226      3.151
REMARK  Name = 
REMARK  11 active torsions:
REMARK  status: ('A' for Active; 'I' for Inactive)
REMARK    1  A    between atoms: C_1  and  C_2
REMARK    2  A    between atoms: C_2  and  C_3
REMARK    3  A    between atoms: C_2  and  S_4
REMARK    4  A    between atoms: S_4  and  C_7
REMARK    5  A    between atoms: C_12  and  N_13
REMARK    6  A    between atoms: N_13  and  C_14
REMARK    7  A    between atoms: N_17  and  C_18
REMARK    8  A    between atoms: C_22  and  N_23
REMARK    9  A    between atoms: C_24  and  C_26
REMARK   10  A    between atoms: C_26  and  C_27
REMARK   11  A    between atoms: C_27  and  N_28
REMARK                            x       y       z     vdW  Elec       q    Type
REMARK                         _______ _______ _______ _____ _____    ______ ____
ROOT
ATOM      1  C   UNL     1      -0.525  10.589  20.628  0.00  0.00    +0.000 A 
ATOM      2  N   UNL     1       0.188   9.830  19.751  0.00  0.00    +0.000 NA
ATOM      3  C   UNL     1       1.056   8.926  20.242  0.00  0.00    +0.000 A 
ATOM      4  N   UNL     1       1.814   8.183  19.327  0.00  0.00    +0.000 N 
ATOM      5  N   UNL     1       1.266   8.752  21.556  0.00  0.00    +0.000 NA
ATOM      6  C   UNL     1       0.537   9.495  22.407  0.00  0.00    +0.000 A 
ATOM      7  C   UNL     1      -0.398  10.414  22.000  0.00  0.00    +0.000 A 
ATOM      8 CL   UNL     1      -1.360  11.242  23.158  0.00  0.00    +0.000 Cl
ATOM      9  H   UNL     1       1.474   8.360  18.391  0.00  0.00    +0.000 HD
ENDROOT
BRANCH   4  10
ATOM     10  C   UNL     1       2.375   6.901  19.521  0.00  0.00    +0.000 A 
ATOM     11  C   UNL     1       1.893   6.033  20.507  0.00  0.00    +0.000 A 
ATOM     12  C   UNL     1       2.442   4.766  20.673  0.00  0.00    +0.000 A 
ATOM     13  C   UNL     1       3.484   4.343  19.852  0.00  0.00    +0.000 A 
ATOM     14  C   UNL     1       4.000   5.177  18.860  0.00  0.00    +0.000 A 
ATOM     15  C   UNL     1       3.428   6.455  18.695  0.00  0.00    +0.000 A 
BRANCH  14  16
ATOM     16  N   UNL     1       5.069   4.781  18.015  0.00  0.00    +0.000 N 
ATOM     17  C   UNL     1       4.949   4.161  16.774  0.00  0.00    +0.000 C 
ATOM     18  O   UNL     1       3.904   3.849  16.210  0.00  0.00    +0.000 OA
ATOM     19  H   UNL     1       6.004   4.952  18.365  0.00  0.00    +0.000 HD
BRANCH  17  20
ATOM     20  C   UNL     1       6.264   3.937  16.059  0.00  0.00    +0.000 C 
BRANCH  20  21
ATOM     21  C   UNL     1       7.317   4.845  16.682  0.00  0.00    +0.000 C 
BRANCH  21  22
ATOM     22  N   UNL     1       8.105   4.134  17.685  0.00  0.00    +0.000 NA
ATOM     23  H   UNL     1       8.779   3.516  17.240  0.00  0.00    +0.000 HD
ATOM     24  H   UNL     1       7.488   3.539  18.238  0.00  0.00    +0.000 HD
ENDBRANCH  21  22
ENDBRANCH  20  21
ENDBRANCH  17  20
ENDBRANCH  14  16
ENDBRANCH   4  10
BRANCH   1  25
ATOM     25  N   UNL     1      -1.293  11.686  20.129  0.00  0.00    +0.000 N 
ATOM     26  H   UNL     1      -1.551  12.315  20.897  0.00  0.00    +0.000 HD
BRANCH  25  32
ATOM     27  C   UNL     1      -3.609  12.252  19.395  0.00  0.00    +0.000 A 
ATOM     28  C   UNL     1      -4.679  11.990  18.515  0.00  0.00    +0.000 A 
ATOM     29  C   UNL     1      -4.524  11.114  17.442  0.00  0.00    +0.000 A 
ATOM     30  C   UNL     1      -3.306  10.483  17.240  0.00  0.00    +0.000 A 
ATOM     31  C   UNL     1      -2.248  10.721  18.116  0.00  0.00    +0.000 A 
ATOM     32  C   UNL     1      -2.365  11.611  19.204  0.00  0.00    +0.000 A 
BRANCH  27  33
ATOM     33  S   UNL     1      -4.009  13.223  20.848  0.00  0.00    +0.000 S 
ATOM     34  O   UNL     1      -2.998  14.264  20.967  0.00  0.00    +0.000 OA
ATOM     35  O   UNL     1      -4.158  12.266  21.934  0.00  0.00    +0.000 OA
BRANCH  33  37
ATOM     36  C   UNL     1      -6.650  13.211  21.467  0.00  0.00    +0.000 C 
ATOM     37  C   UNL     1      -5.629  13.997  20.635  0.00  0.00    +0.000 C 
ATOM     38  C   UNL     1      -5.662  15.468  21.022  0.00  0.00    +0.000 C 
ENDBRANCH  33  37
ENDBRANCH  27  33
ENDBRANCH  25  32
ENDBRANCH   1  25
TORSDOF 9
ENDMDL
MODEL 9
REMARK VINA RESULT:      -8.1      4.232      9.511
REMARK  Name = 
REMARK  11 active torsions:
REMARK  status: ('A' for Active; 'I' for Inactive)
REMARK    1  A    between atoms: C_1  and  C_2
REMARK    2  A    between atoms: C_2  and  C_3
REMARK    3  A    between atoms: C_2  and  S_4
REMARK    4  A    between atoms: S_4  and  C_7
REMARK    5  A    between atoms: C_12  and  N_13
REMARK    6  A    between atoms: N_13  and  C_14
REMARK    7  A    between atoms: N_17  and  C_18
REMARK    8  A    between atoms: C_22  and  N_23
REMARK    9  A    between atoms: C_24  and  C_26
REMARK   10  A    between atoms: C_26  and  C_27
REMARK   11  A    between atoms: C_27  and  N_28
REMARK                            x       y       z     vdW  Elec       q    Type
REMARK                         _______ _______ _______ _____ _____    ______ ____
ROOT
ATOM      1  C   UNL     1       2.082   7.501  18.705  0.00  0.00    +0.000 A 
ATOM      2  N   UNL     1       1.916   8.668  18.025  0.00  0.00    +0.000 NA
ATOM      3  C   UNL     1       1.439   9.737  18.688  0.00  0.00    +0.000 A 
ATOM      4  N   UNL     1       1.233  10.920  17.964  0.00  0.00    +0.000 N 
ATOM      5  N   UNL     1       1.101   9.701  19.986  0.00  0.00    +0.000 NA
ATOM      6  C   UNL     1       1.291   8.547  20.647  0.00  0.00    +0.000 A 
ATOM      7  C   UNL     1       1.807   7.416  20.065  0.00  0.00    +0.000 A 
ATOM      8 CL   UNL     1       2.117   6.017  21.011  0.00  0.00    +0.000 Cl
ATOM      9  H   UNL     1       1.622  10.814  17.036  0.00  0.00    +0.000 HD
ENDROOT
BRANCH   4  10
ATOM     10  C   UNL     1       1.240  12.242  18.461  0.00  0.00    +0.000 A 
ATOM     11  C   UNL     1       0.062  12.990  18.566  0.00  0.00    +0.000 A 
ATOM     12  C   UNL     1       0.080  14.283  19.076  0.00  0.00    +0.000 A 
ATOM     13  C   UNL     1       1.280  14.852  19.494  0.00  0.00    +0.000 A 
ATOM     14  C   UNL     1       2.480  14.146  19.402  0.00  0.00    +0.000 A 
ATOM     15  C   UNL     1       2.446  12.832  18.893  0.00  0.00    +0.000 A 
BRANCH  14  16
ATOM     16  N   UNL     1       3.722  14.701  19.807  0.00  0.00    +0.000 N 
ATOM     17  C   UNL     1       4.680  15.268  18.971  0.00  0.00    +0.000 C 
ATOM     18  O   UNL     1       4.614  15.375  17.750  0.00  0.00    +0.000 OA
ATOM     19  H   UNL     1       3.930  14.658  20.797  0.00  0.00    +0.000 HD
BRANCH  17  20
ATOM     20  C   UNL     1       5.869  15.860  19.697  0.00  0.00    +0.000 C 
BRANCH  20  21
ATOM     21  C   UNL     1       5.786  17.379  19.606  0.00  0.00    +0.000 C 
BRANCH  21  22
ATOM     22  N   UNL     1       4.413  17.846  19.766  0.00  0.00    +0.000 NA
ATOM     23  H   UNL     1       3.852  17.152  20.255  0.00  0.00    +0.000 HD
ATOM     24  H   UNL     1       3.989  17.965  18.846  0.00  0.00    +0.000 HD
ENDBRANCH  21  22
ENDBRANCH  20  21
ENDBRANCH  17  20
ENDBRANCH  14  16
ENDBRANCH   4  10
BRANCH   1  25
ATOM     25  N   UNL     1       2.390   6.312  17.976  0.00  0.00    +0.000 N 
ATOM     26  H   UNL     1       1.906   5.508  18.390  0.00  0.00    +0.000 HD
BRANCH  25  32
ATOM     27  C   UNL     1       4.071   4.557  17.414  0.00  0.00    +0.000 A 
ATOM     28  C   UNL     1       5.416   4.241  17.128  0.00  0.00    +0.000 A 
ATOM     29  C   UNL     1       6.363   5.247  16.939  0.00  0.00    +0.000 A 
ATOM     30  C   UNL     1       5.983   6.577  17.044  0.00  0.00    +0.000 A 
ATOM     31  C   UNL     1       4.660   6.899  17.346  0.00  0.00    +0.000 A 
ATOM     32  C   UNL     1       3.673   5.907  17.530  0.00  0.00    +0.000 A 
BRANCH  27  33
ATOM     33  S   UNL     1       3.016   3.174  17.845  0.00  0.00    +0.000 S 
ATOM     34  O   UNL     1       3.678   1.962  17.383  0.00  0.00    +0.000 OA
ATOM     35  O   UNL     1       1.702   3.498  17.312  0.00  0.00    +0.000 OA
BRANCH  33  37
ATOM     36  C   UNL     1       1.519   2.349  19.951  0.00  0.00    +0.000 C 
ATOM     37  C   UNL     1       2.825   3.092  19.641  0.00  0.00    +0.000 C 
ATOM     38  C   UNL     1       3.989   2.419  20.352  0.00  0.00    +0.000 C 
ENDBRANCH  33  37
ENDBRANCH  27  33
ENDBRANCH  25  32
ENDBRANCH   1  25
TORSDOF 9
ENDMDL
