MODEL 1
REMARK VINA RESULT:      -6.5      0.000      0.000
REMARK  Name = 
REMARK  10 active torsions:
REMARK  status: ('A' for Active; 'I' for Inactive)
REMARK    1  A    between atoms: C_1  and  C_2
REMARK    2  A    between atoms: C_2  and  N_3
REMARK    3  A    between atoms: C_7  and  C_8
REMARK    4  A    between atoms: C_8  and  N_9
REMARK    5  A    between atoms: N_9  and  C_10
REMARK    6  A    between atoms: N_9  and  C_11
REMARK    7  A    between atoms: C_11  and  C_12
REMARK    8  A    between atoms: C_14  and  C_15
REMARK    9  A    between atoms: C_15  and  O_16
REMARK   10  A    between atoms: O_16  and  C_17
REMARK                            x       y       z     vdW  Elec       q    Type
REMARK                         _______ _______ _______ _____ _____    ______ ____
ROOT
ATOM      1  N   UNL     1       4.806   4.572  17.286  0.00  0.00    +0.000 NA
ATOM      2  C   UNL     1       4.386   5.831  17.911  0.00  0.00    +0.000 C 
ENDROOT
BRANCH   1   3
ATOM      3  C   UNL     1       4.364   3.388  18.058  0.00  0.00    +0.000 C 
BRANCH   3   8
ATOM      4  N   UNL     1       2.265   3.083  19.486  0.00  0.00    +0.000 N 
ATOM      5  C   UNL     1       0.935   2.954  19.216  0.00  0.00    +0.000 A 
ATOM      6  N   UNL     1       0.736   3.023  17.924  0.00  0.00    +0.000 NA
ATOM      7  N   UNL     1       1.958   3.193  17.331  0.00  0.00    +0.000 NA
ATOM      8  C   UNL     1       2.888   3.242  18.272  0.00  0.00    +0.000 A 
BRANCH   4  10
ATOM      9  C   UNL     1       1.828   2.573  21.862  0.00  0.00    +0.000 C 
ATOM     10  C   UNL     1       2.840   2.992  20.811  0.00  0.00    +0.000 C 
ENDBRANCH   4  10
ENDBRANCH   3   8
ENDBRANCH   1   3
BRANCH   1  11
ATOM     11  C   UNL     1       6.266   4.601  17.051  0.00  0.00    +0.000 C 
BRANCH  11  12
ATOM     12  C   UNL     1       6.638   4.585  15.605  0.00  0.00    +0.000 A 
ATOM     13  N   UNL     1       6.221   3.801  14.635  0.00  0.00    +0.000 NA
ATOM     14  C   UNL     1       6.895   4.299  13.548  0.00  0.00    +0.000 A 
ATOM     15  N   UNL     1       7.706   5.332  13.815  0.00  0.00    +0.000 NA
ATOM     16  O   UNL     1       7.537   5.526  15.189  0.00  0.00    +0.000 OA
BRANCH  14  17
ATOM     17  C   UNL     1       6.679   3.791  12.159  0.00  0.00    +0.000 C 
BRANCH  17  18
ATOM     18  O   UNL     1       5.658   2.783  12.049  0.00  0.00    +0.000 OA
ATOM     19  C   UNL     1       4.436   3.300  11.533  0.00  0.00    +0.000 C 
ENDBRANCH  17  18
ENDBRANCH  14  17
ENDBRANCH  11  12
ENDBRANCH   1  11
TORSDOF 7
ENDMDL
MODEL 2
REMARK VINA RESULT:      -6.4      1.336      1.754
REMARK  Name = 
REMARK  10 active torsions:
REMARK  status: ('A' for Active; 'I' for Inactive)
REMARK    1  A    between atoms: C_1  and  C_2
REMARK    2  A    between atoms: C_2  and  N_3
REMARK    3  A    between atoms: C_7  and  C_8
REMARK    4  A    between atoms: C_8  and  N_9
REMARK    5  A    between atoms: N_9  and  C_10
REMARK    6  A    between atoms: N_9  and  C_11
REMARK    7  A    between atoms: C_11  and  C_12
REMARK    8  A    between atoms: C_14  and  C_15
REMARK    9  A    between atoms: C_15  and  O_16
REMARK   10  A    between atoms: O_16  and  C_17
REMARK                            x       y       z     vdW  Elec       q    Type
REMARK                         _______ _______ _______ _____ _____    ______ ____
ROOT
ATOM      1  N   UNL     1       4.881   5.089  17.852  0.00  0.00    +0.000 NA
ATOM      2  C   UNL     1       4.645   6.346  17.132  0.00  0.00    +0.000 C 
ENDROOT
BRANCH   1   3
ATOM      3  C   UNL     1       4.627   5.219  19.305  0.00  0.00    +0.000 C 
BRANCH   3   8
ATOM      4  N   UNL     1       2.931   3.410  19.931  0.00  0.00    +0.000 N 
ATOM      5  C   UNL     1       1.641   3.420  20.374  0.00  0.00    +0.000 A 
ATOM      6  N   UNL     1       1.227   4.655  20.505  0.00  0.00    +0.000 NA
ATOM      7  N   UNL     1       2.261   5.474  20.136  0.00  0.00    +0.000 NA
ATOM      8  C   UNL     1       3.300   4.726  19.798  0.00  0.00    +0.000 A 
BRANCH   4  10
ATOM      9  C   UNL     1       3.494   1.758  18.185  0.00  0.00    +0.000 C 
ATOM     10  C   UNL     1       3.676   2.209  19.622  0.00  0.00    +0.000 C 
ENDBRANCH   4  10
ENDBRANCH   3   8
ENDBRANCH   1   3
BRANCH   1  11
ATOM     11  C   UNL     1       6.239   4.590  17.542  0.00  0.00    +0.000 C 
BRANCH  11  12
ATOM     12  C   UNL     1       6.575   4.637  16.089  0.00  0.00    +0.000 A 
ATOM     13  N   UNL     1       6.077   3.948  15.085  0.00  0.00    +0.000 NA
ATOM     14  C   UNL     1       6.761   4.462  14.012  0.00  0.00    +0.000 A 
ATOM     15  N   UNL     1       7.654   5.414  14.318  0.00  0.00    +0.000 NA
ATOM     16  O   UNL     1       7.532   5.534  15.705  0.00  0.00    +0.000 OA
BRANCH  14  17
ATOM     17  C   UNL     1       6.476   4.059  12.601  0.00  0.00    +0.000 C 
BRANCH  17  18
ATOM     18  O   UNL     1       5.586   2.935  12.475  0.00  0.00    +0.000 OA
ATOM     19  C   UNL     1       4.511   3.190  11.577  0.00  0.00    +0.000 C 
ENDBRANCH  17  18
ENDBRANCH  14  17
ENDBRANCH  11  12
ENDBRANCH   1  11
TORSDOF 7
ENDMDL
MODEL 3
REMARK VINA RESULT:      -6.3      1.233      1.449
REMARK  Name = 
REMARK  10 active torsions:
REMARK  status: ('A' for Active; 'I' for Inactive)
REMARK    1  A    between atoms: C_1  and  C_2
REMARK    2  A    between atoms: C_2  and  N_3
REMARK    3  A    between atoms: C_7  and  C_8
REMARK    4  A    between atoms: C_8  and  N_9
REMARK    5  A    between atoms: N_9  and  C_10
REMARK    6  A    between atoms: N_9  and  C_11
REMARK    7  A    between atoms: C_11  and  C_12
REMARK    8  A    between atoms: C_14  and  C_15
REMARK    9  A    between atoms: C_15  and  O_16
REMARK   10  A    between atoms: O_16  and  C_17
REMARK                            x       y       z     vdW  Elec       q    Type
REMARK                         _______ _______ _______ _____ _____    ______ ____
ROOT
ATOM      1  N   UNL     1       5.249   5.241  17.737  0.00  0.00    +0.000 NA
ATOM      2  C   UNL     1       5.152   5.284  19.200  0.00  0.00    +0.000 C 
ENDROOT
BRANCH   1   3
ATOM      3  C   UNL     1       4.042   4.654  17.112  0.00  0.00    +0.000 C 
BRANCH   3   8
ATOM      4  N   UNL     1       2.383   3.403  18.602  0.00  0.00    +0.000 N 
ATOM      5  C   UNL     1       2.241   2.106  18.997  0.00  0.00    +0.000 A 
ATOM      6  N   UNL     1       3.180   1.372  18.455  0.00  0.00    +0.000 NA
ATOM      7  N   UNL     1       3.959   2.203  17.694  0.00  0.00    +0.000 NA
ATOM      8  C   UNL     1       3.474   3.433  17.769  0.00  0.00    +0.000 A 
BRANCH   4  10
ATOM      9  C   UNL     1       1.084   4.306  20.498  0.00  0.00    +0.000 C 
ATOM     10  C   UNL     1       1.548   4.491  19.065  0.00  0.00    +0.000 C 
ENDBRANCH   4  10
ENDBRANCH   3   8
ENDBRANCH   1   3
BRANCH   1  11
ATOM     11  C   UNL     1       6.499   4.555  17.344  0.00  0.00    +0.000 C 
BRANCH  11  12
ATOM     12  C   UNL     1       6.771   4.602  15.878  0.00  0.00    +0.000 A 
ATOM     13  N   UNL     1       6.385   3.786  14.922  0.00  0.00    +0.000 NA
ATOM     14  C   UNL     1       6.919   4.375  13.803  0.00  0.00    +0.000 A 
ATOM     15  N   UNL     1       7.617   5.495  14.036  0.00  0.00    +0.000 NA
ATOM     16  O   UNL     1       7.520   5.650  15.422  0.00  0.00    +0.000 OA
BRANCH  14  17
ATOM     17  C   UNL     1       6.672   3.862  12.421  0.00  0.00    +0.000 C 
BRANCH  17  18
ATOM     18  O   UNL     1       5.358   3.308  12.221  0.00  0.00    +0.000 OA
ATOM     19  C   UNL     1       5.387   2.095  11.476  0.00  0.00    +0.000 C 
ENDBRANCH  17  18
ENDBRANCH  14  17
ENDBRANCH  11  12
ENDBRANCH   1  11
TORSDOF 7
ENDMDL
MODEL 4
REMARK VINA RESULT:      -6.1      1.515      2.109
REMARK  Name = 
REMARK  10 active torsions:
REMARK  status: ('A' for Active; 'I' for Inactive)
REMARK    1  A    between atoms: C_1  and  C_2
REMARK    2  A    between atoms: C_2  and  N_3
REMARK    3  A    between atoms: C_7  and  C_8
REMARK    4  A    between atoms: C_8  and  N_9
REMARK    5  A    between atoms: N_9  and  C_10
REMARK    6  A    between atoms: N_9  and  C_11
REMARK    7  A    between atoms: C_11  and  C_12
REMARK    8  A    between atoms: C_14  and  C_15
REMARK    9  A    between atoms: C_15  and  O_16
REMARK   10  A    between atoms: O_16  and  C_17
REMARK                            x       y       z     vdW  Elec       q    Type
REMARK                         _______ _______ _______ _____ _____    ______ ____
ROOT
ATOM      1  N   UNL     1       5.215   5.419  18.308  0.00  0.00    +0.000 NA
ATOM      2  C   UNL     1       6.570   5.490  18.866  0.00  0.00    +0.000 C 
ENDROOT
BRANCH   1   3
ATOM      3  C   UNL     1       4.760   4.023  18.118  0.00  0.00    +0.000 C 
BRANCH   3   8
ATOM      4  N   UNL     1       3.000   3.529  19.906  0.00  0.00    +0.000 N 
ATOM      5  C   UNL     1       2.947   2.714  20.997  0.00  0.00    +0.000 A 
ATOM      6  N   UNL     1       4.066   2.043  21.104  0.00  0.00    +0.000 NA
ATOM      7  N   UNL     1       4.874   2.429  20.068  0.00  0.00    +0.000 NA
ATOM      8  C   UNL     1       4.229   3.321  19.331  0.00  0.00    +0.000 A 
BRANCH   4  10
ATOM      9  C   UNL     1       1.798   5.599  20.512  0.00  0.00    +0.000 C 
ATOM     10  C   UNL     1       1.951   4.454  19.529  0.00  0.00    +0.000 C 
ENDBRANCH   4  10
ENDBRANCH   3   8
ENDBRANCH   1   3
BRANCH   1  11
ATOM     11  C   UNL     1       5.147   6.226  17.071  0.00  0.00    +0.000 C 
BRANCH  11  12
ATOM     12  C   UNL     1       5.909   5.637  15.930  0.00  0.00    +0.000 A 
ATOM     13  N   UNL     1       5.492   4.882  14.938  0.00  0.00    +0.000 NA
ATOM     14  C   UNL     1       6.641   4.697  14.210  0.00  0.00    +0.000 A 
ATOM     15  N   UNL     1       7.730   5.289  14.719  0.00  0.00    +0.000 NA
ATOM     16  O   UNL     1       7.245   5.919  15.869  0.00  0.00    +0.000 OA
BRANCH  14  17
ATOM     17  C   UNL     1       6.665   3.967  12.906  0.00  0.00    +0.000 C 
BRANCH  17  18
ATOM     18  O   UNL     1       5.604   3.008  12.745  0.00  0.00    +0.000 OA
ATOM     19  C   UNL     1       4.688   3.377  11.720  0.00  0.00    +0.000 C 
ENDBRANCH  17  18
ENDBRANCH  14  17
ENDBRANCH  11  12
ENDBRANCH   1  11
TORSDOF 7
ENDMDL
MODEL 5
REMARK VINA RESULT:      -6.0      1.634      2.059
REMARK  Name = 
REMARK  10 active torsions:
REMARK  status: ('A' for Active; 'I' for Inactive)
REMARK    1  A    between atoms: C_1  and  C_2
REMARK    2  A    between atoms: C_2  and  N_3
REMARK    3  A    between atoms: C_7  and  C_8
REMARK    4  A    between atoms: C_8  and  N_9
REMARK    5  A    between atoms: N_9  and  C_10
REMARK    6  A    between atoms: N_9  and  C_11
REMARK    7  A    between atoms: C_11  and  C_12
REMARK    8  A    between atoms: C_14  and  C_15
REMARK    9  A    between atoms: C_15  and  O_16
REMARK   10  A    between atoms: O_16  and  C_17
REMARK                            x       y       z     vdW  Elec       q    Type
REMARK                         _______ _______ _______ _____ _____    ______ ____
ROOT
ATOM      1  N   UNL     1       6.909   5.584  18.409  0.00  0.00    +0.000 NA
ATOM      2  C   UNL     1       7.937   6.360  19.112  0.00  0.00    +0.000 C 
ENDROOT
BRANCH   1   3
ATOM      3  C   UNL     1       5.890   5.037  19.334  0.00  0.00    +0.000 C 
BRANCH   3   8
ATOM      4  N   UNL     1       3.481   4.211  19.106  0.00  0.00    +0.000 N 
ATOM      5  C   UNL     1       2.353   4.702  18.520  0.00  0.00    +0.000 A 
ATOM      6  N   UNL     1       2.606   5.867  17.978  0.00  0.00    +0.000 NA
ATOM      7  N   UNL     1       3.927   6.144  18.205  0.00  0.00    +0.000 NA
ATOM      8  C   UNL     1       4.461   5.150  18.898  0.00  0.00    +0.000 A 
BRANCH   4  10
ATOM      9  C   UNL     1       2.781   2.845  21.040  0.00  0.00    +0.000 C 
ATOM     10  C   UNL     1       3.568   2.915  19.745  0.00  0.00    +0.000 C 
ENDBRANCH   4  10
ENDBRANCH   3   8
ENDBRANCH   1   3
BRANCH   1  11
ATOM     11  C   UNL     1       7.555   4.547  17.576  0.00  0.00    +0.000 C 
BRANCH  11  12
ATOM     12  C   UNL     1       7.068   4.525  16.165  0.00  0.00    +0.000 A 
ATOM     13  N   UNL     1       6.082   3.844  15.625  0.00  0.00    +0.000 NA
ATOM     14  C   UNL     1       6.112   4.273  14.321  0.00  0.00    +0.000 A 
ATOM     15  N   UNL     1       7.074   5.166  14.046  0.00  0.00    +0.000 NA
ATOM     16  O   UNL     1       7.714   5.337  15.277  0.00  0.00    +0.000 OA
BRANCH  14  17
ATOM     17  C   UNL     1       5.102   3.849  13.305  0.00  0.00    +0.000 C 
BRANCH  17  18
ATOM     18  O   UNL     1       5.666   3.239  12.129  0.00  0.00    +0.000 OA
ATOM     19  C   UNL     1       4.668   2.799  11.213  0.00  0.00    +0.000 C 
ENDBRANCH  17  18
ENDBRANCH  14  17
ENDBRANCH  11  12
ENDBRANCH   1  11
TORSDOF 7
ENDMDL
MODEL 6
REMARK VINA RESULT:      -6.0      1.652      2.189
REMARK  Name = 
REMARK  10 active torsions:
REMARK  status: ('A' for Active; 'I' for Inactive)
REMARK    1  A    between atoms: C_1  and  C_2
REMARK    2  A    between atoms: C_2  and  N_3
REMARK    3  A    between atoms: C_7  and  C_8
REMARK    4  A    between atoms: C_8  and  N_9
REMARK    5  A    between atoms: N_9  and  C_10
REMARK    6  A    between atoms: N_9  and  C_11
REMARK    7  A    between atoms: C_11  and  C_12
REMARK    8  A    between atoms: C_14  and  C_15
REMARK    9  A    between atoms: C_15  and  O_16
REMARK   10  A    between atoms: O_16  and  C_17
REMARK                            x       y       z     vdW  Elec       q    Type
REMARK                         _______ _______ _______ _____ _____    ______ ____
ROOT
ATOM      1  N   UNL     1       3.286   7.136  17.814  0.00  0.00    +0.000 NA
ATOM      2  C   UNL     1       2.515   8.384  17.809  0.00  0.00    +0.000 C 
ENDROOT
BRANCH   1   3
ATOM      3  C   UNL     1       3.000   6.305  19.005  0.00  0.00    +0.000 C 
BRANCH   3   8
ATOM      4  N   UNL     1       1.892   4.117  19.728  0.00  0.00    +0.000 N 
ATOM      5  C   UNL     1       1.256   3.105  19.073  0.00  0.00    +0.000 A 
ATOM      6  N   UNL     1       1.217   3.363  17.790  0.00  0.00    +0.000 NA
ATOM      7  N   UNL     1       1.844   4.564  17.596  0.00  0.00    +0.000 NA
ATOM      8  C   UNL     1       2.246   5.032  18.768  0.00  0.00    +0.000 A 
BRANCH   4  10
ATOM      9  C   UNL     1       1.815   2.807  21.820  0.00  0.00    +0.000 C 
ATOM     10  C   UNL     1       2.162   4.124  21.150  0.00  0.00    +0.000 C 
ENDBRANCH   4  10
ENDBRANCH   3   8
ENDBRANCH   1   3
BRANCH   1  11
ATOM     11  C   UNL     1       4.724   7.444  17.651  0.00  0.00    +0.000 C 
BRANCH  11  12
ATOM     12  C   UNL     1       5.445   6.480  16.768  0.00  0.00    +0.000 A 
ATOM     13  N   UNL     1       5.053   5.319  16.291  0.00  0.00    +0.000 NA
ATOM     14  C   UNL     1       6.131   4.939  15.531  0.00  0.00    +0.000 A 
ATOM     15  N   UNL     1       7.156   5.803  15.536  0.00  0.00    +0.000 NA
ATOM     16  O   UNL     1       6.700   6.835  16.362  0.00  0.00    +0.000 OA
BRANCH  14  17
ATOM     17  C   UNL     1       6.134   3.702  14.691  0.00  0.00    +0.000 C 
BRANCH  17  18
ATOM     18  O   UNL     1       5.602   3.885  13.366  0.00  0.00    +0.000 OA
ATOM     19  C   UNL     1       6.604   3.785  12.360  0.00  0.00    +0.000 C 
ENDBRANCH  17  18
ENDBRANCH  14  17
ENDBRANCH  11  12
ENDBRANCH   1  11
TORSDOF 7
ENDMDL
MODEL 7
REMARK VINA RESULT:      -5.9      1.379      1.632
REMARK  Name = 
REMARK  10 active torsions:
REMARK  status: ('A' for Active; 'I' for Inactive)
REMARK    1  A    between atoms: C_1  and  C_2
REMARK    2  A    between atoms: C_2  and  N_3
REMARK    3  A    between atoms: C_7  and  C_8
REMARK    4  A    between atoms: C_8  and  N_9
REMARK    5  A    between atoms: N_9  and  C_10
REMARK    6  A    between atoms: N_9  and  C_11
REMARK    7  A    between atoms: C_11  and  C_12
REMARK    8  A    between atoms: C_14  and  C_15
REMARK    9  A    between atoms: C_15  and  O_16
REMARK   10  A    between atoms: O_16  and  C_17
REMARK                            x       y       z     vdW  Elec       q    Type
REMARK                         _______ _______ _______ _____ _____    ______ ____
ROOT
ATOM      1  N   UNL     1       3.516   6.300  17.754  0.00  0.00    +0.000 NA
ATOM      2  C   UNL     1       2.655   7.284  18.419  0.00  0.00    +0.000 C 
ENDROOT
BRANCH   1   3
ATOM      3  C   UNL     1       3.689   5.070  18.560  0.00  0.00    +0.000 C 
BRANCH   3   8
ATOM      4  N   UNL     1       2.303   3.124  19.470  0.00  0.00    +0.000 N 
ATOM      5  C   UNL     1       1.222   2.426  19.019  0.00  0.00    +0.000 A 
ATOM      6  N   UNL     1       0.835   2.906  17.864  0.00  0.00    +0.000 NA
ATOM      7  N   UNL     1       1.681   3.934  17.545  0.00  0.00    +0.000 NA
ATOM      8  C   UNL     1       2.565   4.079  18.520  0.00  0.00    +0.000 A 
BRANCH   4  10
ATOM      9  C   UNL     1       2.163   2.982  21.931  0.00  0.00    +0.000 C 
ATOM     10  C   UNL     1       3.019   2.816  20.689  0.00  0.00    +0.000 C 
ENDBRANCH   4  10
ENDBRANCH   3   8
ENDBRANCH   1   3
BRANCH   1  11
ATOM     11  C   UNL     1       4.798   6.937  17.382  0.00  0.00    +0.000 C 
BRANCH  11  12
ATOM     12  C   UNL     1       5.643   6.098  16.481  0.00  0.00    +0.000 A 
ATOM     13  N   UNL     1       5.479   5.796  15.211  0.00  0.00    +0.000 NA
ATOM     14  C   UNL     1       6.589   5.033  14.949  0.00  0.00    +0.000 A 
ATOM     15  N   UNL     1       7.405   4.847  15.996  0.00  0.00    +0.000 NA
ATOM     16  O   UNL     1       6.776   5.559  17.022  0.00  0.00    +0.000 OA
BRANCH  14  17
ATOM     17  C   UNL     1       6.913   4.518  13.583  0.00  0.00    +0.000 C 
BRANCH  17  18
ATOM     18  O   UNL     1       6.297   3.257  13.264  0.00  0.00    +0.000 OA
ATOM     19  C   UNL     1       5.564   3.302  12.045  0.00  0.00    +0.000 C 
ENDBRANCH  17  18
ENDBRANCH  14  17
ENDBRANCH  11  12
ENDBRANCH   1  11
TORSDOF 7
ENDMDL
MODEL 8
REMARK VINA RESULT:      -5.9      1.065      1.209
REMARK  Name = 
REMARK  10 active torsions:
REMARK  status: ('A' for Active; 'I' for Inactive)
REMARK    1  A    between atoms: C_1  and  C_2
REMARK    2  A    between atoms: C_2  and  N_3
REMARK    3  A    between atoms: C_7  and  C_8
REMARK    4  A    between atoms: C_8  and  N_9
REMARK    5  A    between atoms: N_9  and  C_10
REMARK    6  A    between atoms: N_9  and  C_11
REMARK    7  A    between atoms: C_11  and  C_12
REMARK    8  A    between atoms: C_14  and  C_15
REMARK    9  A    between atoms: C_15  and  O_16
REMARK   10  A    between atoms: O_16  and  C_17
REMARK                            x       y       z     vdW  Elec       q    Type
REMARK                         _______ _______ _______ _____ _____    ______ ____
ROOT
ATOM      1  N   UNL     1       4.539   5.324  17.984  0.00  0.00    +0.000 NA
ATOM      2  C   UNL     1       5.201   5.246  19.291  0.00  0.00    +0.000 C 
ENDROOT
BRANCH   1   3
ATOM      3  C   UNL     1       3.102   5.661  18.103  0.00  0.00    +0.000 C 
BRANCH   3   8
ATOM      4  N   UNL     1       1.679   4.063  19.503  0.00  0.00    +0.000 N 
ATOM      5  C   UNL     1       0.889   2.988  19.221  0.00  0.00    +0.000 A 
ATOM      6  N   UNL     1       0.876   2.775  17.929  0.00  0.00    +0.000 NA
ATOM      7  N   UNL     1       1.678   3.722  17.351  0.00  0.00    +0.000 NA
ATOM      8  C   UNL     1       2.159   4.513  18.298  0.00  0.00    +0.000 A 
BRANCH   4  10
ATOM      9  C   UNL     1       2.231   3.407  21.819  0.00  0.00    +0.000 C 
ATOM     10  C   UNL     1       1.962   4.536  20.841  0.00  0.00    +0.000 C 
ENDBRANCH   4  10
ENDBRANCH   3   8
ENDBRANCH   1   3
BRANCH   1  11
ATOM     11  C   UNL     1       4.782   4.074  17.232  0.00  0.00    +0.000 C 
BRANCH  11  12
ATOM     12  C   UNL     1       5.503   4.283  15.942  0.00  0.00    +0.000 A 
ATOM     13  N   UNL     1       5.583   3.506  14.884  0.00  0.00    +0.000 NA
ATOM     14  C   UNL     1       6.349   4.257  14.028  0.00  0.00    +0.000 A 
ATOM     15  N   UNL     1       6.746   5.440  14.520  0.00  0.00    +0.000 NA
ATOM     16  O   UNL     1       6.181   5.461  15.798  0.00  0.00    +0.000 OA
BRANCH  14  17
ATOM     17  C   UNL     1       6.648   3.835  12.626  0.00  0.00    +0.000 C 
BRANCH  17  18
ATOM     18  O   UNL     1       5.848   2.735  12.156  0.00  0.00    +0.000 OA
ATOM     19  C   UNL     1       4.652   3.167  11.516  0.00  0.00    +0.000 C 
ENDBRANCH  17  18
ENDBRANCH  14  17
ENDBRANCH  11  12
ENDBRANCH   1  11
TORSDOF 7
ENDMDL
MODEL 9
REMARK VINA RESULT:      -5.9      1.400      1.664
REMARK  Name = 
REMARK  10 active torsions:
REMARK  status: ('A' for Active; 'I' for Inactive)
REMARK    1  A    between atoms: C_1  and  C_2
REMARK    2  A    between atoms: C_2  and  N_3
REMARK    3  A    between atoms: C_7  and  C_8
REMARK    4  A    between atoms: C_8  and  N_9
REMARK    5  A    between atoms: N_9  and  C_10
REMARK    6  A    between atoms: N_9  and  C_11
REMARK    7  A    between atoms: C_11  and  C_12
REMARK    8  A    between atoms: C_14  and  C_15
REMARK    9  A    between atoms: C_15  and  O_16
REMARK   10  A    between atoms: O_16  and  C_17
REMARK                            x       y       z     vdW  Elec       q    Type
REMARK                         _______ _______ _______ _____ _____    ______ ____
ROOT
ATOM      1  N   UNL     1       6.217   5.218  18.001  0.00  0.00    +0.000 NA
ATOM      2  C   UNL     1       7.431   4.496  17.605  0.00  0.00    +0.000 C 
ENDROOT
BRANCH   1   3
ATOM      3  C   UNL     1       5.304   4.378  18.811  0.00  0.00    +0.000 C 
BRANCH   3   8
ATOM      4  N   UNL     1       2.771   4.665  18.609  0.00  0.00    +0.000 N 
ATOM      5  C   UNL     1       1.802   4.096  17.838  0.00  0.00    +0.000 A 
ATOM      6  N   UNL     1       2.340   3.222  17.024  0.00  0.00    +0.000 NA
ATOM      7  N   UNL     1       3.687   3.212  17.268  0.00  0.00    +0.000 NA
ATOM      8  C   UNL     1       3.957   4.092  18.220  0.00  0.00    +0.000 A 
BRANCH   4  10
ATOM      9  C   UNL     1       1.521   5.127  20.687  0.00  0.00    +0.000 C 
ATOM     10  C   UNL     1       2.515   5.630  19.658  0.00  0.00    +0.000 C 
ENDBRANCH   4  10
ENDBRANCH   3   8
ENDBRANCH   1   3
BRANCH   1  11
ATOM     11  C   UNL     1       5.568   5.790  16.801  0.00  0.00    +0.000 C 
BRANCH  11  12
ATOM     12  C   UNL     1       6.190   5.348  15.518  0.00  0.00    +0.000 A 
ATOM     13  N   UNL     1       5.716   4.558  14.579  0.00  0.00    +0.000 NA
ATOM     14  C   UNL     1       6.729   4.566  13.654  0.00  0.00    +0.000 A 
ATOM     15  N   UNL     1       7.794   5.306  13.992  0.00  0.00    +0.000 NA
ATOM     16  O   UNL     1       7.437   5.831  15.237  0.00  0.00    +0.000 OA
BRANCH  14  17
ATOM     17  C   UNL     1       6.624   3.875  12.332  0.00  0.00    +0.000 C 
BRANCH  17  18
ATOM     18  O   UNL     1       5.655   2.811  12.295  0.00  0.00    +0.000 OA
ATOM     19  C   UNL     1       4.503   3.152  11.533  0.00  0.00    +0.000 C 
ENDBRANCH  17  18
ENDBRANCH  14  17
ENDBRANCH  11  12
ENDBRANCH   1  11
TORSDOF 7
ENDMDL
