MODEL 1
REMARK VINA RESULT:      -8.3      0.000      0.000
REMARK  Name = 
REMARK  6 active torsions:
REMARK  status: ('A' for Active; 'I' for Inactive)
REMARK    1  A    between atoms: C_1  and  C_2
REMARK    2  A    between atoms: C_2  and  C_3
REMARK    3  A    between atoms: C_3  and  C_4
REMARK    4  A    between atoms: C_16  and  C_17
REMARK    5  A    between atoms: C_17  and  C_18
REMARK    6  A    between atoms: C_21  and  C_22
REMARK                            x       y       z     vdW  Elec       q    Type
REMARK                         _______ _______ _______ _____ _____    ______ ____
ROOT
ATOM      1  C   UNL     1       6.125   4.831  18.173  0.00  0.00    +0.000 A 
ATOM      2  N   UNL     1       5.551   4.223  19.268  0.00  0.00    +0.000 NA
ATOM      3  C   UNL     1       4.271   4.110  18.983  0.00  0.00    +0.000 A 
ATOM      4  C   UNL     1       3.170   3.574  19.791  0.00  0.00    +0.000 A 
ATOM      5  C   UNL     1       3.356   3.123  21.098  0.00  0.00    +0.000 A 
ATOM      6  C   UNL     1       2.262   2.668  21.842  0.00  0.00    +0.000 A 
ATOM      7  C   UNL     1       0.982   2.672  21.284  0.00  0.00    +0.000 A 
ATOM      8  C   UNL     1       0.786   3.109  19.972  0.00  0.00    +0.000 A 
ATOM      9  C   UNL     1       1.876   3.552  19.215  0.00  0.00    +0.000 A 
ATOM     10  C   UNL     1       1.684   3.995  17.818  0.00  0.00    +0.000 A 
ATOM     11  C   UNL     1       2.726   4.491  17.131  0.00  0.00    +0.000 A 
ATOM     12  N   UNL     1       3.993   4.582  17.709  0.00  0.00    +0.000 N 
ATOM     13  C   UNL     1       5.166   5.111  17.213  0.00  0.00    +0.000 A 
ENDROOT
BRANCH   1  14
ATOM     14  C   UNL     1       7.597   5.086  18.126  0.00  0.00    +0.000 C 
BRANCH  14  16
ATOM     15  C   UNL     1       7.819   7.576  17.813  0.00  0.00    +0.000 C 
ATOM     16  C   UNL     1       7.990   6.411  18.776  0.00  0.00    +0.000 C 
ENDBRANCH  14  16
ENDBRANCH   1  14
BRANCH  13  17
ATOM     17  C   UNL     1       5.268   5.830  15.909  0.00  0.00    +0.000 C 
BRANCH  17  18
ATOM     18  C   UNL     1       5.880   5.043  14.768  0.00  0.00    +0.000 A 
ATOM     19  C   UNL     1       7.169   5.277  14.270  0.00  0.00    +0.000 A 
ATOM     20  C   UNL     1       7.610   4.635  13.112  0.00  0.00    +0.000 A 
ATOM     21  C   UNL     1       6.777   3.738  12.438  0.00  0.00    +0.000 A 
ATOM     22  C   UNL     1       7.185   3.155  11.120  0.00  0.00    +0.000 C 
ATOM     23  C   UNL     1       5.539   3.411  12.997  0.00  0.00    +0.000 A 
ATOM     24  C   UNL     1       5.095   4.057  14.151  0.00  0.00    +0.000 A 
ENDBRANCH  17  18
ENDBRANCH  13  17
TORSDOF 4
ENDMDL
MODEL 2
REMARK VINA RESULT:      -8.2      0.257      1.014
REMARK  Name = 
REMARK  6 active torsions:
REMARK  status: ('A' for Active; 'I' for Inactive)
REMARK    1  A    between atoms: C_1  and  C_2
REMARK    2  A    between atoms: C_2  and  C_3
REMARK    3  A    between atoms: C_3  and  C_4
REMARK    4  A    between atoms: C_16  and  C_17
REMARK    5  A    between atoms: C_17  and  C_18
REMARK    6  A    between atoms: C_21  and  C_22
REMARK                            x       y       z     vdW  Elec       q    Type
REMARK                         _______ _______ _______ _____ _____    ______ ____
ROOT
ATOM      1  C   UNL     1       6.180   4.696  18.126  0.00  0.00    +0.000 A 
ATOM      2  N   UNL     1       5.604   4.035  19.189  0.00  0.00    +0.000 NA
ATOM      3  C   UNL     1       4.310   4.032  18.947  0.00  0.00    +0.000 A 
ATOM      4  C   UNL     1       3.203   3.502  19.751  0.00  0.00    +0.000 A 
ATOM      5  C   UNL     1       3.402   2.928  21.007  0.00  0.00    +0.000 A 
ATOM      6  C   UNL     1       2.306   2.484  21.753  0.00  0.00    +0.000 A 
ATOM      7  C   UNL     1       1.010   2.621  21.249  0.00  0.00    +0.000 A 
ATOM      8  C   UNL     1       0.801   3.181  19.988  0.00  0.00    +0.000 A 
ATOM      9  C   UNL     1       1.891   3.615  19.227  0.00  0.00    +0.000 A 
ATOM     10  C   UNL     1       1.683   4.189  17.882  0.00  0.00    +0.000 A 
ATOM     11  C   UNL     1       2.732   4.672  17.197  0.00  0.00    +0.000 A 
ATOM     12  N   UNL     1       4.022   4.630  17.729  0.00  0.00    +0.000 N 
ATOM     13  C   UNL     1       5.210   5.120  17.232  0.00  0.00    +0.000 A 
ENDROOT
BRANCH   1  14
ATOM     14  C   UNL     1       7.664   4.856  18.042  0.00  0.00    +0.000 C 
BRANCH  14  16
ATOM     15  C   UNL     1       7.948   7.358  18.138  0.00  0.00    +0.000 C 
ATOM     16  C   UNL     1       8.180   6.039  18.859  0.00  0.00    +0.000 C 
ENDBRANCH  14  16
ENDBRANCH   1  14
BRANCH  13  17
ATOM     17  C   UNL     1       5.317   5.941  15.990  0.00  0.00    +0.000 C 
BRANCH  17  18
ATOM     18  C   UNL     1       5.696   5.187  14.732  0.00  0.00    +0.000 A 
ATOM     19  C   UNL     1       4.827   4.316  14.062  0.00  0.00    +0.000 A 
ATOM     20  C   UNL     1       5.289   3.523  13.010  0.00  0.00    +0.000 A 
ATOM     21  C   UNL     1       6.623   3.598  12.599  0.00  0.00    +0.000 A 
ATOM     22  C   UNL     1       7.163   2.652  11.570  0.00  0.00    +0.000 C 
ATOM     23  C   UNL     1       7.461   4.550  13.184  0.00  0.00    +0.000 A 
ATOM     24  C   UNL     1       7.001   5.338  14.241  0.00  0.00    +0.000 A 
ENDBRANCH  17  18
ENDBRANCH  13  17
TORSDOF 4
ENDMDL
MODEL 3
REMARK VINA RESULT:      -8.1      2.922      7.250
REMARK  Name = 
REMARK  6 active torsions:
REMARK  status: ('A' for Active; 'I' for Inactive)
REMARK    1  A    between atoms: C_1  and  C_2
REMARK    2  A    between atoms: C_2  and  C_3
REMARK    3  A    between atoms: C_3  and  C_4
REMARK    4  A    between atoms: C_16  and  C_17
REMARK    5  A    between atoms: C_17  and  C_18
REMARK    6  A    between atoms: C_21  and  C_22
REMARK                            x       y       z     vdW  Elec       q    Type
REMARK                         _______ _______ _______ _____ _____    ______ ____
ROOT
ATOM      1  C   UNL     1       2.600   4.166  17.897  0.00  0.00    +0.000 A 
ATOM      2  N   UNL     1       3.199   3.760  16.724  0.00  0.00    +0.000 NA
ATOM      3  C   UNL     1       4.317   4.449  16.637  0.00  0.00    +0.000 A 
ATOM      4  C   UNL     1       5.337   4.460  15.583  0.00  0.00    +0.000 A 
ATOM      5  C   UNL     1       5.210   3.708  14.415  0.00  0.00    +0.000 A 
ATOM      6  C   UNL     1       6.189   3.793  13.420  0.00  0.00    +0.000 A 
ATOM      7  C   UNL     1       7.290   4.636  13.587  0.00  0.00    +0.000 A 
ATOM      8  C   UNL     1       7.434   5.383  14.757  0.00  0.00    +0.000 A 
ATOM      9  C   UNL     1       6.469   5.293  15.765  0.00  0.00    +0.000 A 
ATOM     10  C   UNL     1       6.623   6.062  17.018  0.00  0.00    +0.000 A 
ATOM     11  C   UNL     1       5.648   6.025  17.942  0.00  0.00    +0.000 A 
ATOM     12  N   UNL     1       4.497   5.262  17.746  0.00  0.00    +0.000 N 
ATOM     13  C   UNL     1       3.365   5.137  18.523  0.00  0.00    +0.000 A 
ENDROOT
BRANCH   1  14
ATOM     14  C   UNL     1       1.312   3.556  18.347  0.00  0.00    +0.000 C 
BRANCH  14  16
ATOM     15  C   UNL     1       1.151   2.972  20.793  0.00  0.00    +0.000 C 
ATOM     16  C   UNL     1       1.508   2.469  19.402  0.00  0.00    +0.000 C 
ENDBRANCH  14  16
ENDBRANCH   1  14
BRANCH  13  17
ATOM     17  C   UNL     1       3.107   5.941  19.754  0.00  0.00    +0.000 C 
BRANCH  17  18
ATOM     18  C   UNL     1       2.400   7.264  19.541  0.00  0.00    +0.000 A 
ATOM     19  C   UNL     1       1.692   7.933  20.549  0.00  0.00    +0.000 A 
ATOM     20  C   UNL     1       0.923   9.058  20.247  0.00  0.00    +0.000 A 
ATOM     21  C   UNL     1       0.857   9.542  18.938  0.00  0.00    +0.000 A 
ATOM     22  C   UNL     1      -0.075  10.659  18.579  0.00  0.00    +0.000 C 
ATOM     23  C   UNL     1       1.656   8.951  17.956  0.00  0.00    +0.000 A 
ATOM     24  C   UNL     1       2.419   7.822  18.255  0.00  0.00    +0.000 A 
ENDBRANCH  17  18
ENDBRANCH  13  17
TORSDOF 4
ENDMDL
MODEL 4
REMARK VINA RESULT:      -8.1      2.956      7.273
REMARK  Name = 
REMARK  6 active torsions:
REMARK  status: ('A' for Active; 'I' for Inactive)
REMARK    1  A    between atoms: C_1  and  C_2
REMARK    2  A    between atoms: C_2  and  C_3
REMARK    3  A    between atoms: C_3  and  C_4
REMARK    4  A    between atoms: C_16  and  C_17
REMARK    5  A    between atoms: C_17  and  C_18
REMARK    6  A    between atoms: C_21  and  C_22
REMARK                            x       y       z     vdW  Elec       q    Type
REMARK                         _______ _______ _______ _____ _____    ______ ____
ROOT
ATOM      1  C   UNL     1       2.704   4.084  17.901  0.00  0.00    +0.000 A 
ATOM      2  N   UNL     1       3.293   3.658  16.731  0.00  0.00    +0.000 NA
ATOM      3  C   UNL     1       4.373   4.397  16.586  0.00  0.00    +0.000 A 
ATOM      4  C   UNL     1       5.366   4.413  15.506  0.00  0.00    +0.000 A 
ATOM      5  C   UNL     1       5.248   3.606  14.374  0.00  0.00    +0.000 A 
ATOM      6  C   UNL     1       6.197   3.696  13.350  0.00  0.00    +0.000 A 
ATOM      7  C   UNL     1       7.258   4.598  13.453  0.00  0.00    +0.000 A 
ATOM      8  C   UNL     1       7.394   5.400  14.587  0.00  0.00    +0.000 A 
ATOM      9  C   UNL     1       6.458   5.307  15.623  0.00  0.00    +0.000 A 
ATOM     10  C   UNL     1       6.604   6.135  16.839  0.00  0.00    +0.000 A 
ATOM     11  C   UNL     1       5.656   6.090  17.789  0.00  0.00    +0.000 A 
ATOM     12  N   UNL     1       4.539   5.264  17.655  0.00  0.00    +0.000 N 
ATOM     13  C   UNL     1       3.434   5.117  18.466  0.00  0.00    +0.000 A 
ENDROOT
BRANCH   1  14
ATOM     14  C   UNL     1       1.460   3.432  18.410  0.00  0.00    +0.000 C 
BRANCH  14  16
ATOM     15  C   UNL     1       1.218   3.013  20.883  0.00  0.00    +0.000 C 
ATOM     16  C   UNL     1       1.726   2.462  19.559  0.00  0.00    +0.000 C 
ENDBRANCH  14  16
ENDBRANCH   1  14
BRANCH  13  17
ATOM     17  C   UNL     1       3.166   5.960  19.669  0.00  0.00    +0.000 C 
BRANCH  17  18
ATOM     18  C   UNL     1       2.347   7.211  19.429  0.00  0.00    +0.000 A 
ATOM     19  C   UNL     1       2.303   7.882  18.200  0.00  0.00    +0.000 A 
ATOM     20  C   UNL     1       1.666   9.120  18.090  0.00  0.00    +0.000 A 
ATOM     21  C   UNL     1       1.050   9.701  19.202  0.00  0.00    +0.000 A 
ATOM     22  C   UNL     1       0.490  11.089  19.130  0.00  0.00    +0.000 C 
ATOM     23  C   UNL     1       0.988   8.980  20.397  0.00  0.00    +0.000 A 
ATOM     24  C   UNL     1       1.630   7.746  20.509  0.00  0.00    +0.000 A 
ENDBRANCH  17  18
ENDBRANCH  13  17
TORSDOF 4
ENDMDL
MODEL 5
REMARK VINA RESULT:      -8.0      1.546      6.544
REMARK  Name = 
REMARK  6 active torsions:
REMARK  status: ('A' for Active; 'I' for Inactive)
REMARK    1  A    between atoms: C_1  and  C_2
REMARK    2  A    between atoms: C_2  and  C_3
REMARK    3  A    between atoms: C_3  and  C_4
REMARK    4  A    between atoms: C_16  and  C_17
REMARK    5  A    between atoms: C_17  and  C_18
REMARK    6  A    between atoms: C_21  and  C_22
REMARK                            x       y       z     vdW  Elec       q    Type
REMARK                         _______ _______ _______ _____ _____    ______ ____
ROOT
ATOM      1  C   UNL     1       7.520   6.541  17.622  0.00  0.00    +0.000 A 
ATOM      2  N   UNL     1       7.769   6.489  16.268  0.00  0.00    +0.000 NA
ATOM      3  C   UNL     1       7.030   5.502  15.807  0.00  0.00    +0.000 A 
ATOM      4  C   UNL     1       6.918   4.965  14.446  0.00  0.00    +0.000 A 
ATOM      5  C   UNL     1       7.689   5.450  13.389  0.00  0.00    +0.000 A 
ATOM      6  C   UNL     1       7.578   4.868  12.121  0.00  0.00    +0.000 A 
ATOM      7  C   UNL     1       6.705   3.799  11.912  0.00  0.00    +0.000 A 
ATOM      8  C   UNL     1       5.919   3.316  12.960  0.00  0.00    +0.000 A 
ATOM      9  C   UNL     1       6.011   3.899  14.227  0.00  0.00    +0.000 A 
ATOM     10  C   UNL     1       5.167   3.411  15.338  0.00  0.00    +0.000 A 
ATOM     11  C   UNL     1       5.324   3.930  16.567  0.00  0.00    +0.000 A 
ATOM     12  N   UNL     1       6.261   4.934  16.812  0.00  0.00    +0.000 N 
ATOM     13  C   UNL     1       6.625   5.549  17.991  0.00  0.00    +0.000 A 
ENDROOT
BRANCH   1  14
ATOM     14  C   UNL     1       8.166   7.582  18.478  0.00  0.00    +0.000 C 
BRANCH  14  16
ATOM     15  C   UNL     1       8.925   9.978  18.661  0.00  0.00    +0.000 C 
ATOM     16  C   UNL     1       8.107   8.977  17.859  0.00  0.00    +0.000 C 
ENDBRANCH  14  16
ENDBRANCH   1  14
BRANCH  13  17
ATOM     17  C   UNL     1       6.114   5.143  19.334  0.00  0.00    +0.000 C 
BRANCH  17  18
ATOM     18  C   UNL     1       4.651   4.756  19.392  0.00  0.00    +0.000 A 
ATOM     19  C   UNL     1       3.601   5.681  19.315  0.00  0.00    +0.000 A 
ATOM     20  C   UNL     1       2.284   5.281  19.545  0.00  0.00    +0.000 A 
ATOM     21  C   UNL     1       1.990   3.948  19.842  0.00  0.00    +0.000 A 
ATOM     22  C   UNL     1       0.602   3.537  20.231  0.00  0.00    +0.000 C 
ATOM     23  C   UNL     1       3.016   3.001  19.802  0.00  0.00    +0.000 A 
ATOM     24  C   UNL     1       4.334   3.401  19.579  0.00  0.00    +0.000 A 
ENDBRANCH  17  18
ENDBRANCH  13  17
TORSDOF 4
ENDMDL
MODEL 6
REMARK VINA RESULT:      -7.9      1.528      6.371
REMARK  Name = 
REMARK  6 active torsions:
REMARK  status: ('A' for Active; 'I' for Inactive)
REMARK    1  A    between atoms: C_1  and  C_2
REMARK    2  A    between atoms: C_2  and  C_3
REMARK    3  A    between atoms: C_3  and  C_4
REMARK    4  A    between atoms: C_16  and  C_17
REMARK    5  A    between atoms: C_17  and  C_18
REMARK    6  A    between atoms: C_21  and  C_22
REMARK                            x       y       z     vdW  Elec       q    Type
REMARK                         _______ _______ _______ _____ _____    ______ ____
ROOT
ATOM      1  C   UNL     1       7.456   6.521  17.610  0.00  0.00    +0.000 A 
ATOM      2  N   UNL     1       7.718   6.471  16.258  0.00  0.00    +0.000 NA
ATOM      3  C   UNL     1       6.991   5.477  15.791  0.00  0.00    +0.000 A 
ATOM      4  C   UNL     1       6.896   4.939  14.430  0.00  0.00    +0.000 A 
ATOM      5  C   UNL     1       7.672   5.429  13.379  0.00  0.00    +0.000 A 
ATOM      6  C   UNL     1       7.578   4.846  12.111  0.00  0.00    +0.000 A 
ATOM      7  C   UNL     1       6.715   3.769  11.895  0.00  0.00    +0.000 A 
ATOM      8  C   UNL     1       5.924   3.280  12.935  0.00  0.00    +0.000 A 
ATOM      9  C   UNL     1       6.000   3.865  14.203  0.00  0.00    +0.000 A 
ATOM     10  C   UNL     1       5.150   3.370  15.307  0.00  0.00    +0.000 A 
ATOM     11  C   UNL     1       5.291   3.891  16.537  0.00  0.00    +0.000 A 
ATOM     12  N   UNL     1       6.218   4.903  16.790  0.00  0.00    +0.000 N 
ATOM     13  C   UNL     1       6.566   5.522  17.971  0.00  0.00    +0.000 A 
ENDROOT
BRANCH   1  14
ATOM     14  C   UNL     1       8.085   7.568  18.470  0.00  0.00    +0.000 C 
BRANCH  14  16
ATOM     15  C   UNL     1       8.907   9.945  18.629  0.00  0.00    +0.000 C 
ATOM     16  C   UNL     1       8.104   8.945  17.810  0.00  0.00    +0.000 C 
ENDBRANCH  14  16
ENDBRANCH   1  14
BRANCH  13  17
ATOM     17  C   UNL     1       6.046   5.113  19.310  0.00  0.00    +0.000 C 
BRANCH  17  18
ATOM     18  C   UNL     1       4.652   4.522  19.322  0.00  0.00    +0.000 A 
ATOM     19  C   UNL     1       4.389   3.164  19.552  0.00  0.00    +0.000 A 
ATOM     20  C   UNL     1       3.101   2.653  19.383  0.00  0.00    +0.000 A 
ATOM     21  C   UNL     1       2.051   3.489  18.996  0.00  0.00    +0.000 A 
ATOM     22  C   UNL     1       0.700   2.926  18.674  0.00  0.00    +0.000 C 
ATOM     23  C   UNL     1       2.284   4.863  18.884  0.00  0.00    +0.000 A 
ATOM     24  C   UNL     1       3.572   5.374  19.046  0.00  0.00    +0.000 A 
ENDBRANCH  17  18
ENDBRANCH  13  17
TORSDOF 4
ENDMDL
MODEL 7
REMARK VINA RESULT:      -7.7      5.089      6.741
REMARK  Name = 
REMARK  6 active torsions:
REMARK  status: ('A' for Active; 'I' for Inactive)
REMARK    1  A    between atoms: C_1  and  C_2
REMARK    2  A    between atoms: C_2  and  C_3
REMARK    3  A    between atoms: C_3  and  C_4
REMARK    4  A    between atoms: C_16  and  C_17
REMARK    5  A    between atoms: C_17  and  C_18
REMARK    6  A    between atoms: C_21  and  C_22
REMARK                            x       y       z     vdW  Elec       q    Type
REMARK                         _______ _______ _______ _____ _____    ______ ____
ROOT
ATOM      1  C   UNL     1       1.864   6.716  20.482  0.00  0.00    +0.000 A 
ATOM      2  N   UNL     1       1.120   7.528  21.310  0.00  0.00    +0.000 NA
ATOM      3  C   UNL     1       0.985   8.667  20.664  0.00  0.00    +0.000 A 
ATOM      4  C   UNL     1       0.321   9.909  21.075  0.00  0.00    +0.000 A 
ATOM      5  C   UNL     1      -0.258  10.063  22.336  0.00  0.00    +0.000 A 
ATOM      6  C   UNL     1      -0.834  11.286  22.694  0.00  0.00    +0.000 A 
ATOM      7  C   UNL     1      -0.824  12.358  21.798  0.00  0.00    +0.000 A 
ATOM      8  C   UNL     1      -0.260  12.210  20.530  0.00  0.00    +0.000 A 
ATOM      9  C   UNL     1       0.306  10.987  20.156  0.00  0.00    +0.000 A 
ATOM     10  C   UNL     1       0.886  10.813  18.808  0.00  0.00    +0.000 A 
ATOM     11  C   UNL     1       1.494   9.658  18.492  0.00  0.00    +0.000 A 
ATOM     12  N   UNL     1       1.577   8.611  19.412  0.00  0.00    +0.000 N 
ATOM     13  C   UNL     1       2.203   7.387  19.319  0.00  0.00    +0.000 A 
ENDROOT
BRANCH   1  14
ATOM     14  C   UNL     1       2.184   5.311  20.878  0.00  0.00    +0.000 C 
BRANCH  14  16
ATOM     15  C   UNL     1       1.388   2.925  21.031  0.00  0.00    +0.000 C 
ATOM     16  C   UNL     1       1.024   4.348  20.635  0.00  0.00    +0.000 C 
ENDBRANCH  14  16
ENDBRANCH   1  14
BRANCH  13  17
ATOM     17  C   UNL     1       3.060   6.976  18.167  0.00  0.00    +0.000 C 
BRANCH  17  18
ATOM     18  C   UNL     1       3.276   5.485  18.005  0.00  0.00    +0.000 A 
ATOM     19  C   UNL     1       2.322   4.621  17.451  0.00  0.00    +0.000 A 
ATOM     20  C   UNL     1       2.513   3.239  17.486  0.00  0.00    +0.000 A 
ATOM     21  C   UNL     1       3.665   2.696  18.060  0.00  0.00    +0.000 A 
ATOM     22  C   UNL     1       3.812   1.214  18.230  0.00  0.00    +0.000 C 
ATOM     23  C   UNL     1       4.672   3.557  18.504  0.00  0.00    +0.000 A 
ATOM     24  C   UNL     1       4.479   4.938  18.477  0.00  0.00    +0.000 A 
ENDBRANCH  17  18
ENDBRANCH  13  17
TORSDOF 4
ENDMDL
MODEL 8
REMARK VINA RESULT:      -7.7      6.028      8.427
REMARK  Name = 
REMARK  6 active torsions:
REMARK  status: ('A' for Active; 'I' for Inactive)
REMARK    1  A    between atoms: C_1  and  C_2
REMARK    2  A    between atoms: C_2  and  C_3
REMARK    3  A    between atoms: C_3  and  C_4
REMARK    4  A    between atoms: C_16  and  C_17
REMARK    5  A    between atoms: C_17  and  C_18
REMARK    6  A    between atoms: C_21  and  C_22
REMARK                            x       y       z     vdW  Elec       q    Type
REMARK                         _______ _______ _______ _____ _____    ______ ____
ROOT
ATOM      1  C   UNL     1       0.600   8.624  20.996  0.00  0.00    +0.000 A 
ATOM      2  N   UNL     1       1.195   7.382  21.055  0.00  0.00    +0.000 NA
ATOM      3  C   UNL     1       1.917   7.281  19.958  0.00  0.00    +0.000 A 
ATOM      4  C   UNL     1       2.735   6.165  19.469  0.00  0.00    +0.000 A 
ATOM      5  C   UNL     1       2.815   4.948  20.145  0.00  0.00    +0.000 A 
ATOM      6  C   UNL     1       3.571   3.900  19.609  0.00  0.00    +0.000 A 
ATOM      7  C   UNL     1       4.238   4.065  18.393  0.00  0.00    +0.000 A 
ATOM      8  C   UNL     1       4.176   5.284  17.715  0.00  0.00    +0.000 A 
ATOM      9  C   UNL     1       3.435   6.343  18.250  0.00  0.00    +0.000 A 
ATOM     10  C   UNL     1       3.380   7.645  17.552  0.00  0.00    +0.000 A 
ATOM     11  C   UNL     1       2.602   8.625  18.039  0.00  0.00    +0.000 A 
ATOM     12  N   UNL     1       1.853   8.442  19.202  0.00  0.00    +0.000 N 
ATOM     13  C   UNL     1       0.954   9.279  19.828  0.00  0.00    +0.000 A 
ENDROOT
BRANCH   1  14
ATOM     14  C   UNL     1      -0.273   9.104  22.110  0.00  0.00    +0.000 C 
BRANCH  14  16
ATOM     15  C   UNL     1      -1.202  11.309  22.901  0.00  0.00    +0.000 C 
ATOM     16  C   UNL     1       0.056  10.530  22.547  0.00  0.00    +0.000 C 
ENDBRANCH  14  16
ENDBRANCH   1  14
BRANCH  13  17
ATOM     17  C   UNL     1       0.509  10.590  19.268  0.00  0.00    +0.000 C 
BRANCH  17  18
ATOM     18  C   UNL     1      -0.885  10.615  18.678  0.00  0.00    +0.000 A 
ATOM     19  C   UNL     1      -1.274   9.840  17.578  0.00  0.00    +0.000 A 
ATOM     20  C   UNL     1      -2.519  10.033  16.977  0.00  0.00    +0.000 A 
ATOM     21  C   UNL     1      -3.403  10.995  17.474  0.00  0.00    +0.000 A 
ATOM     22  C   UNL     1      -4.679  11.309  16.752  0.00  0.00    +0.000 C 
ATOM     23  C   UNL     1      -3.070  11.685  18.642  0.00  0.00    +0.000 A 
ATOM     24  C   UNL     1      -1.822  11.497  19.238  0.00  0.00    +0.000 A 
ENDBRANCH  17  18
ENDBRANCH  13  17
TORSDOF 4
ENDMDL
MODEL 9
REMARK VINA RESULT:      -7.7      5.621      7.919
REMARK  Name = 
REMARK  6 active torsions:
REMARK  status: ('A' for Active; 'I' for Inactive)
REMARK    1  A    between atoms: C_1  and  C_2
REMARK    2  A    between atoms: C_2  and  C_3
REMARK    3  A    between atoms: C_3  and  C_4
REMARK    4  A    between atoms: C_16  and  C_17
REMARK    5  A    between atoms: C_17  and  C_18
REMARK    6  A    between atoms: C_21  and  C_22
REMARK                            x       y       z     vdW  Elec       q    Type
REMARK                         _______ _______ _______ _____ _____    ______ ____
ROOT
ATOM      1  C   UNL     1       1.280   8.452  21.103  0.00  0.00    +0.000 A 
ATOM      2  N   UNL     1       1.381   7.121  21.443  0.00  0.00    +0.000 NA
ATOM      3  C   UNL     1       1.758   6.500  20.345  0.00  0.00    +0.000 A 
ATOM      4  C   UNL     1       1.987   5.071  20.102  0.00  0.00    +0.000 A 
ATOM      5  C   UNL     1       1.765   4.104  21.082  0.00  0.00    +0.000 A 
ATOM      6  C   UNL     1       1.952   2.751  20.782  0.00  0.00    +0.000 A 
ATOM      7  C   UNL     1       2.351   2.363  19.501  0.00  0.00    +0.000 A 
ATOM      8  C   UNL     1       2.590   3.324  18.517  0.00  0.00    +0.000 A 
ATOM      9  C   UNL     1       2.420   4.681  18.811  0.00  0.00    +0.000 A 
ATOM     10  C   UNL     1       2.692   5.708  17.783  0.00  0.00    +0.000 A 
ATOM     11  C   UNL     1       2.449   7.000  18.058  0.00  0.00    +0.000 A 
ATOM     12  N   UNL     1       1.958   7.393  19.303  0.00  0.00    +0.000 N 
ATOM     13  C   UNL     1       1.584   8.637  19.764  0.00  0.00    +0.000 A 
ENDROOT
BRANCH   1  14
ATOM     14  C   UNL     1       0.907   9.474  22.127  0.00  0.00    +0.000 C 
BRANCH  14  16
ATOM     15  C   UNL     1      -1.085  10.710  23.052  0.00  0.00    +0.000 C 
ATOM     16  C   UNL     1      -0.553   9.371  22.564  0.00  0.00    +0.000 C 
ENDBRANCH  14  16
ENDBRANCH   1  14
BRANCH  13  17
ATOM     17  C   UNL     1       1.536   9.861  18.911  0.00  0.00    +0.000 C 
BRANCH  17  18
ATOM     18  C   UNL     1       0.158  10.445  18.674  0.00  0.00    +0.000 A 
ATOM     19  C   UNL     1      -0.331  11.572  19.348  0.00  0.00    +0.000 A 
ATOM     20  C   UNL     1      -1.665  11.959  19.209  0.00  0.00    +0.000 A 
ATOM     21  C   UNL     1      -2.530  11.235  18.385  0.00  0.00    +0.000 A 
ATOM     22  C   UNL     1      -3.994  11.554  18.340  0.00  0.00    +0.000 C 
ATOM     23  C   UNL     1      -2.018  10.185  17.618  0.00  0.00    +0.000 A 
ATOM     24  C   UNL     1      -0.686   9.794  17.762  0.00  0.00    +0.000 A 
ENDBRANCH  17  18
ENDBRANCH  13  17
TORSDOF 4
ENDMDL
