MODEL 1
REMARK VINA RESULT:      -8.7      0.000      0.000
REMARK  Name = 
REMARK  2 active torsions:
REMARK  status: ('A' for Active; 'I' for Inactive)
REMARK    1  A    between atoms: C_2  and  C_3
REMARK    2  A    between atoms: C_7  and  N_8
REMARK                            x       y       z     vdW  Elec       q    Type
REMARK                         _______ _______ _______ _____ _____    ______ ____
ROOT
ATOM      1  C   UNL     1       1.113   9.585  19.196  0.00  0.00    +0.000 A 
ATOM      2  C   UNL     1       1.636   9.724  17.921  0.00  0.00    +0.000 A 
ATOM      3  N   UNL     1       2.429   8.801  17.332  0.00  0.00    +0.000 NA
ATOM      4  C   UNL     1       2.687   7.680  18.056  0.00  0.00    +0.000 A 
ATOM      5  C   UNL     1       2.245   7.425  19.359  0.00  0.00    +0.000 A 
ATOM      6  C   UNL     1       1.516   8.470  19.940  0.00  0.00    +0.000 A 
ENDROOT
BRANCH   1   8
ATOM      7  O   UNL     1       0.410  11.210  20.701  0.00  0.00    +0.000 OA
ATOM      8  C   UNL     1       0.134  10.603  19.667  0.00  0.00    +0.000 C 
ATOM      9  N   UNL     1      -1.006  10.902  18.906  0.00  0.00    +0.000 N 
ATOM     10  C   UNL     1      -1.340  10.288  17.610  0.00  0.00    +0.000 C 
ATOM     11  C   UNL     1      -2.389  11.021  16.776  0.00  0.00    +0.000 C 
ATOM     12  C   UNL     1      -3.570  11.351  17.642  0.00  0.00    +0.000 A 
ATOM     13  C   UNL     1      -4.884  11.203  17.192  0.00  0.00    +0.000 A 
ATOM     14  C   UNL     1      -5.943  11.542  18.031  0.00  0.00    +0.000 A 
ATOM     15  C   UNL     1      -5.692  12.044  19.309  0.00  0.00    +0.000 A 
ATOM     16  C   UNL     1      -4.379  12.196  19.760  0.00  0.00    +0.000 A 
ATOM     17  C   UNL     1      -3.309  11.833  18.937  0.00  0.00    +0.000 A 
ATOM     18  C   UNL     1      -1.872  11.992  19.379  0.00  0.00    +0.000 C 
ENDBRANCH   1   8
BRANCH   5  19
ATOM     19  N   UNL     1       2.493   6.240  20.024  0.00  0.00    +0.000 N 
ATOM     20  C   UNL     1       3.614   5.370  19.650  0.00  0.00    +0.000 C 
ATOM     21  C   UNL     1       3.149   3.963  20.005  0.00  0.00    +0.000 C 
ATOM     22  C   UNL     1       2.344   3.266  18.917  0.00  0.00    +0.000 C 
ATOM     23  N   UNL     1       1.408   2.388  19.632  0.00  0.00    +0.000 NA
ATOM     24  C   UNL     1       1.207   2.954  20.977  0.00  0.00    +0.000 C 
ATOM     25  C   UNL     1       2.126   4.158  21.109  0.00  0.00    +0.000 C 
ATOM     26  C   UNL     1       1.460   5.491  20.748  0.00  0.00    +0.000 C 
ATOM     27  H   UNL     1       1.823   1.459  19.725  0.00  0.00    +0.000 HD
ENDBRANCH   5  19
TORSDOF 2
ENDMDL
MODEL 2
REMARK VINA RESULT:      -8.1      2.275      2.840
REMARK  Name = 
REMARK  2 active torsions:
REMARK  status: ('A' for Active; 'I' for Inactive)
REMARK    1  A    between atoms: C_2  and  C_3
REMARK    2  A    between atoms: C_7  and  N_8
REMARK                            x       y       z     vdW  Elec       q    Type
REMARK                         _______ _______ _______ _____ _____    ______ ____
ROOT
ATOM      1  C   UNL     1       0.898   9.519  21.047  0.00  0.00    +0.000 A 
ATOM      2  C   UNL     1       0.943  10.189  19.836  0.00  0.00    +0.000 A 
ATOM      3  N   UNL     1       1.425   9.643  18.696  0.00  0.00    +0.000 NA
ATOM      4  C   UNL     1       1.860   8.358  18.781  0.00  0.00    +0.000 A 
ATOM      5  C   UNL     1       1.892   7.579  19.943  0.00  0.00    +0.000 A 
ATOM      6  C   UNL     1       1.475   8.246  21.102  0.00  0.00    +0.000 A 
ENDROOT
BRANCH   1   8
ATOM      7  O   UNL     1       0.589   9.891  23.320  0.00  0.00    +0.000 OA
ATOM      8  C   UNL     1       0.205  10.181  22.187  0.00  0.00    +0.000 C 
ATOM      9  N   UNL     1      -0.782  11.150  21.957  0.00  0.00    +0.000 N 
ATOM     10  C   UNL     1      -1.213  11.617  20.629  0.00  0.00    +0.000 C 
ATOM     11  C   UNL     1      -1.993  12.930  20.604  0.00  0.00    +0.000 C 
ATOM     12  C   UNL     1      -3.080  12.880  21.640  0.00  0.00    +0.000 A 
ATOM     13  C   UNL     1      -4.366  13.364  21.389  0.00  0.00    +0.000 A 
ATOM     14  C   UNL     1      -5.331  13.311  22.392  0.00  0.00    +0.000 A 
ATOM     15  C   UNL     1      -5.009  12.793  23.647  0.00  0.00    +0.000 A 
ATOM     16  C   UNL     1      -3.723  12.313  23.902  0.00  0.00    +0.000 A 
ATOM     17  C   UNL     1      -2.754  12.336  22.895  0.00  0.00    +0.000 A 
ATOM     18  C   UNL     1      -1.346  11.836  23.129  0.00  0.00    +0.000 C 
ENDBRANCH   1   8
BRANCH   5  19
ATOM     19  N   UNL     1       2.293   6.257  19.956  0.00  0.00    +0.000 N 
ATOM     20  C   UNL     1       3.221   5.726  18.951  0.00  0.00    +0.000 C 
ATOM     21  C   UNL     1       2.842   4.257  18.811  0.00  0.00    +0.000 C 
ATOM     22  C   UNL     1       1.724   3.981  17.815  0.00  0.00    +0.000 C 
ATOM     23  N   UNL     1       1.022   2.802  18.340  0.00  0.00    +0.000 NA
ATOM     24  C   UNL     1       1.256   2.756  19.794  0.00  0.00    +0.000 C 
ATOM     25  C   UNL     1       2.208   3.889  20.140  0.00  0.00    +0.000 C 
ATOM     26  C   UNL     1       1.506   5.182  20.571  0.00  0.00    +0.000 C 
ATOM     27  H   UNL     1       1.417   1.960  17.917  0.00  0.00    +0.000 HD
ENDBRANCH   5  19
TORSDOF 2
ENDMDL
MODEL 3
REMARK VINA RESULT:      -8.1      1.871      8.216
REMARK  Name = 
REMARK  2 active torsions:
REMARK  status: ('A' for Active; 'I' for Inactive)
REMARK    1  A    between atoms: C_2  and  C_3
REMARK    2  A    between atoms: C_7  and  N_8
REMARK                            x       y       z     vdW  Elec       q    Type
REMARK                         _______ _______ _______ _____ _____    ______ ____
ROOT
ATOM      1  C   UNL     1       1.415   9.669  18.075  0.00  0.00    +0.000 A 
ATOM      2  C   UNL     1       2.066  10.848  18.397  0.00  0.00    +0.000 A 
ATOM      3  N   UNL     1       1.424  11.984  18.755  0.00  0.00    +0.000 NA
ATOM      4  C   UNL     1       0.067  11.917  18.809  0.00  0.00    +0.000 A 
ATOM      5  C   UNL     1      -0.712  10.800  18.487  0.00  0.00    +0.000 A 
ATOM      6  C   UNL     1       0.017   9.697  18.026  0.00  0.00    +0.000 A 
ENDROOT
BRANCH   1   8
ATOM      7  O   UNL     1       3.007   8.469  16.882  0.00  0.00    +0.000 OA
ATOM      8  C   UNL     1       2.243   8.453  17.846  0.00  0.00    +0.000 C 
ATOM      9  N   UNL     1       2.200   7.380  18.749  0.00  0.00    +0.000 N 
ATOM     10  C   UNL     1       1.387   7.341  19.976  0.00  0.00    +0.000 C 
ATOM     11  C   UNL     1       1.777   6.278  21.001  0.00  0.00    +0.000 C 
ATOM     12  C   UNL     1       1.938   4.956  20.308  0.00  0.00    +0.000 A 
ATOM     13  C   UNL     1       1.460   3.766  20.860  0.00  0.00    +0.000 A 
ATOM     14  C   UNL     1       1.653   2.564  20.183  0.00  0.00    +0.000 A 
ATOM     15  C   UNL     1       2.338   2.547  18.967  0.00  0.00    +0.000 A 
ATOM     16  C   UNL     1       2.820   3.735  18.414  0.00  0.00    +0.000 A 
ATOM     17  C   UNL     1       2.608   4.950  19.071  0.00  0.00    +0.000 A 
ATOM     18  C   UNL     1       3.123   6.259  18.516  0.00  0.00    +0.000 C 
ENDBRANCH   1   8
BRANCH   5  19
ATOM     19  N   UNL     1      -2.087  10.774  18.616  0.00  0.00    +0.000 N 
ATOM     20  C   UNL     1      -2.911   9.819  17.865  0.00  0.00    +0.000 C 
ATOM     21  C   UNL     1      -4.244  10.531  17.665  0.00  0.00    +0.000 C 
ATOM     22  C   UNL     1      -4.305  11.432  16.440  0.00  0.00    +0.000 C 
ATOM     23  N   UNL     1      -5.225  12.518  16.806  0.00  0.00    +0.000 NA
ATOM     24  C   UNL     1      -5.216  12.633  18.274  0.00  0.00    +0.000 C 
ATOM     25  C   UNL     1      -4.335  11.517  18.814  0.00  0.00    +0.000 C 
ATOM     26  C   UNL     1      -2.878  11.932  19.047  0.00  0.00    +0.000 C 
ATOM     27  H   UNL     1      -6.170  12.274  16.501  0.00  0.00    +0.000 HD
ENDBRANCH   5  19
TORSDOF 2
ENDMDL
MODEL 4
REMARK VINA RESULT:      -8.0      3.226      5.495
REMARK  Name = 
REMARK  2 active torsions:
REMARK  status: ('A' for Active; 'I' for Inactive)
REMARK    1  A    between atoms: C_2  and  C_3
REMARK    2  A    between atoms: C_7  and  N_8
REMARK                            x       y       z     vdW  Elec       q    Type
REMARK                         _______ _______ _______ _____ _____    ______ ____
ROOT
ATOM      1  C   UNL     1       2.162   5.122  19.091  0.00  0.00    +0.000 A 
ATOM      2  C   UNL     1       1.220   4.140  18.835  0.00  0.00    +0.000 A 
ATOM      3  N   UNL     1       1.438   3.090  18.011  0.00  0.00    +0.000 NA
ATOM      4  C   UNL     1       2.668   3.020  17.439  0.00  0.00    +0.000 A 
ATOM      5  C   UNL     1       3.699   3.954  17.592  0.00  0.00    +0.000 A 
ATOM      6  C   UNL     1       3.363   5.065  18.376  0.00  0.00    +0.000 A 
ENDROOT
BRANCH   1   8
ATOM      7  O   UNL     1       1.830   5.756  21.302  0.00  0.00    +0.000 OA
ATOM      8  C   UNL     1       1.848   6.139  20.132  0.00  0.00    +0.000 C 
ATOM      9  N   UNL     1       1.666   7.485  19.784  0.00  0.00    +0.000 N 
ATOM     10  C   UNL     1       1.778   8.026  18.419  0.00  0.00    +0.000 C 
ATOM     11  C   UNL     1       1.934   9.541  18.313  0.00  0.00    +0.000 C 
ATOM     12  C   UNL     1       0.901  10.209  19.174  0.00  0.00    +0.000 A 
ATOM     13  C   UNL     1       0.197  11.337  18.748  0.00  0.00    +0.000 A 
ATOM     14  C   UNL     1      -0.738  11.928  19.596  0.00  0.00    +0.000 A 
ATOM     15  C   UNL     1      -0.956  11.405  20.871  0.00  0.00    +0.000 A 
ATOM     16  C   UNL     1      -0.250  10.279  21.301  0.00  0.00    +0.000 A 
ATOM     17  C   UNL     1       0.670   9.662  20.449  0.00  0.00    +0.000 A 
ATOM     18  C   UNL     1       1.464   8.448  20.876  0.00  0.00    +0.000 C 
ENDBRANCH   1   8
BRANCH   5  19
ATOM     19  N   UNL     1       4.951   3.799  17.029  0.00  0.00    +0.000 N 
ATOM     20  C   UNL     1       6.176   3.998  17.814  0.00  0.00    +0.000 C 
ATOM     21  C   UNL     1       7.209   4.480  16.804  0.00  0.00    +0.000 C 
ATOM     22  C   UNL     1       7.209   5.983  16.562  0.00  0.00    +0.000 C 
ATOM     23  N   UNL     1       7.627   6.149  15.163  0.00  0.00    +0.000 NA
ATOM     24  C   UNL     1       7.290   4.906  14.448  0.00  0.00    +0.000 C 
ATOM     25  C   UNL     1       6.741   3.925  15.471  0.00  0.00    +0.000 C 
ATOM     26  C   UNL     1       5.212   3.944  15.593  0.00  0.00    +0.000 C 
ATOM     27  H   UNL     1       8.639   6.284  15.129  0.00  0.00    +0.000 HD
ENDBRANCH   5  19
TORSDOF 2
ENDMDL
MODEL 5
REMARK VINA RESULT:      -7.9      2.988      3.469
REMARK  Name = 
REMARK  2 active torsions:
REMARK  status: ('A' for Active; 'I' for Inactive)
REMARK    1  A    between atoms: C_2  and  C_3
REMARK    2  A    between atoms: C_7  and  N_8
REMARK                            x       y       z     vdW  Elec       q    Type
REMARK                         _______ _______ _______ _____ _____    ______ ____
ROOT
ATOM      1  C   UNL     1       0.788   8.974  20.325  0.00  0.00    +0.000 A 
ATOM      2  C   UNL     1       0.669   9.756  19.188  0.00  0.00    +0.000 A 
ATOM      3  N   UNL     1       1.323   9.501  18.032  0.00  0.00    +0.000 NA
ATOM      4  C   UNL     1       2.115   8.397  18.019  0.00  0.00    +0.000 A 
ATOM      5  C   UNL     1       2.342   7.538  19.101  0.00  0.00    +0.000 A 
ATOM      6  C   UNL     1       1.713   7.925  20.291  0.00  0.00    +0.000 A 
ENDROOT
BRANCH   1   8
ATOM      7  O   UNL     1      -0.518   8.321  22.132  0.00  0.00    +0.000 OA
ATOM      8  C   UNL     1      -0.101   9.277  21.480  0.00  0.00    +0.000 C 
ATOM      9  N   UNL     1      -0.372  10.605  21.842  0.00  0.00    +0.000 N 
ATOM     10  C   UNL     1       0.180  11.793  21.169  0.00  0.00    +0.000 C 
ATOM     11  C   UNL     1       0.083  13.104  21.946  0.00  0.00    +0.000 C 
ATOM     12  C   UNL     1      -1.313  13.268  22.473  0.00  0.00    +0.000 A 
ATOM     13  C   UNL     1      -1.980  14.494  22.437  0.00  0.00    +0.000 A 
ATOM     14  C   UNL     1      -3.269  14.594  22.958  0.00  0.00    +0.000 A 
ATOM     15  C   UNL     1      -3.882  13.478  23.528  0.00  0.00    +0.000 A 
ATOM     16  C   UNL     1      -3.217  12.252  23.568  0.00  0.00    +0.000 A 
ATOM     17  C   UNL     1      -1.934  12.133  23.025  0.00  0.00    +0.000 A 
ATOM     18  C   UNL     1      -1.171  10.828  23.056  0.00  0.00    +0.000 C 
ENDBRANCH   1   8
BRANCH   5  19
ATOM     19  N   UNL     1       3.115   6.397  19.011  0.00  0.00    +0.000 N 
ATOM     20  C   UNL     1       3.717   5.975  17.741  0.00  0.00    +0.000 C 
ATOM     21  C   UNL     1       3.798   4.456  17.835  0.00  0.00    +0.000 C 
ATOM     22  C   UNL     1       2.539   3.724  17.395  0.00  0.00    +0.000 C 
ATOM     23  N   UNL     1       2.495   2.505  18.213  0.00  0.00    +0.000 NA
ATOM     24  C   UNL     1       3.255   2.770  19.447  0.00  0.00    +0.000 C 
ATOM     25  C   UNL     1       3.857   4.161  19.323  0.00  0.00    +0.000 C 
ATOM     26  C   UNL     1       2.997   5.269  19.942  0.00  0.00    +0.000 C 
ATOM     27  H   UNL     1       2.947   1.743  17.706  0.00  0.00    +0.000 HD
ENDBRANCH   5  19
TORSDOF 2
ENDMDL
MODEL 6
REMARK VINA RESULT:      -7.9      0.944      1.235
REMARK  Name = 
REMARK  2 active torsions:
REMARK  status: ('A' for Active; 'I' for Inactive)
REMARK    1  A    between atoms: C_2  and  C_3
REMARK    2  A    between atoms: C_7  and  N_8
REMARK                            x       y       z     vdW  Elec       q    Type
REMARK                         _______ _______ _______ _____ _____    ______ ____
ROOT
ATOM      1  C   UNL     1       1.474   9.257  18.994  0.00  0.00    +0.000 A 
ATOM      2  C   UNL     1       2.295   9.502  17.906  0.00  0.00    +0.000 A 
ATOM      3  N   UNL     1       3.030   8.547  17.293  0.00  0.00    +0.000 NA
ATOM      4  C   UNL     1       2.914   7.287  17.789  0.00  0.00    +0.000 A 
ATOM      5  C   UNL     1       2.143   6.909  18.894  0.00  0.00    +0.000 A 
ATOM      6  C   UNL     1       1.493   7.968  19.538  0.00  0.00    +0.000 A 
ENDROOT
BRANCH   1   8
ATOM      7  O   UNL     1       1.007  11.013  20.443  0.00  0.00    +0.000 OA
ATOM      8  C   UNL     1       0.604  10.364  19.478  0.00  0.00    +0.000 C 
ATOM      9  N   UNL     1      -0.580  10.691  18.799  0.00  0.00    +0.000 N 
ATOM     10  C   UNL     1      -1.065  10.024  17.580  0.00  0.00    +0.000 C 
ATOM     11  C   UNL     1      -2.138  10.773  16.792  0.00  0.00    +0.000 C 
ATOM     12  C   UNL     1      -3.215  11.231  17.732  0.00  0.00    +0.000 A 
ATOM     13  C   UNL     1      -4.570  11.144  17.407  0.00  0.00    +0.000 A 
ATOM     14  C   UNL     1      -5.527  11.602  18.310  0.00  0.00    +0.000 A 
ATOM     15  C   UNL     1      -5.133  12.162  19.525  0.00  0.00    +0.000 A 
ATOM     16  C   UNL     1      -3.778  12.255  19.852  0.00  0.00    +0.000 A 
ATOM     17  C   UNL     1      -2.810  11.773  18.966  0.00  0.00    +0.000 A 
ATOM     18  C   UNL     1      -1.332  11.862  19.272  0.00  0.00    +0.000 C 
ENDBRANCH   1   8
BRANCH   5  19
ATOM     19  N   UNL     1       2.020   5.600  19.318  0.00  0.00    +0.000 N 
ATOM     20  C   UNL     1       2.684   5.122  20.537  0.00  0.00    +0.000 C 
ATOM     21  C   UNL     1       2.957   3.646  20.277  0.00  0.00    +0.000 C 
ATOM     22  C   UNL     1       4.260   3.360  19.544  0.00  0.00    +0.000 C 
ATOM     23  N   UNL     1       4.002   2.147  18.755  0.00  0.00    +0.000 NA
ATOM     24  C   UNL     1       2.551   2.074  18.516  0.00  0.00    +0.000 C 
ATOM     25  C   UNL     1       1.905   3.227  19.267  0.00  0.00    +0.000 C 
ATOM     26  C   UNL     1       1.703   4.487  18.417  0.00  0.00    +0.000 C 
ATOM     27  H   UNL     1       4.288   1.328  19.295  0.00  0.00    +0.000 HD
ENDBRANCH   5  19
TORSDOF 2
ENDMDL
MODEL 7
REMARK VINA RESULT:      -7.9      2.038      2.719
REMARK  Name = 
REMARK  2 active torsions:
REMARK  status: ('A' for Active; 'I' for Inactive)
REMARK    1  A    between atoms: C_2  and  C_3
REMARK    2  A    between atoms: C_7  and  N_8
REMARK                            x       y       z     vdW  Elec       q    Type
REMARK                         _______ _______ _______ _____ _____    ______ ____
ROOT
ATOM      1  C   UNL     1       1.522   8.509  20.522  0.00  0.00    +0.000 A 
ATOM      2  C   UNL     1       1.880   9.020  19.286  0.00  0.00    +0.000 A 
ATOM      3  N   UNL     1       2.249   8.252  18.236  0.00  0.00    +0.000 NA
ATOM      4  C   UNL     1       2.235   6.908  18.440  0.00  0.00    +0.000 A 
ATOM      5  C   UNL     1       1.920   6.264  19.641  0.00  0.00    +0.000 A 
ATOM      6  C   UNL     1       1.649   7.128  20.710  0.00  0.00    +0.000 A 
ENDROOT
BRANCH   1   8
ATOM      7  O   UNL     1       1.482   9.393  22.671  0.00  0.00    +0.000 OA
ATOM      8  C   UNL     1       0.992   9.453  21.544  0.00  0.00    +0.000 C 
ATOM      9  N   UNL     1       0.034  10.417  21.196  0.00  0.00    +0.000 N 
ATOM     10  C   UNL     1      -0.516  10.611  19.844  0.00  0.00    +0.000 C 
ATOM     11  C   UNL     1      -1.229  11.939  19.598  0.00  0.00    +0.000 C 
ATOM     12  C   UNL     1      -2.197  12.197  20.716  0.00  0.00    +0.000 A 
ATOM     13  C   UNL     1      -3.477  12.705  20.487  0.00  0.00    +0.000 A 
ATOM     14  C   UNL     1      -4.328  12.944  21.564  0.00  0.00    +0.000 A 
ATOM     15  C   UNL     1      -3.896  12.694  22.867  0.00  0.00    +0.000 A 
ATOM     16  C   UNL     1      -2.615  12.189  23.100  0.00  0.00    +0.000 A 
ATOM     17  C   UNL     1      -1.763  11.919  22.025  0.00  0.00    +0.000 A 
ATOM     18  C   UNL     1      -0.364  11.383  22.230  0.00  0.00    +0.000 C 
ENDBRANCH   1   8
BRANCH   5  19
ATOM     19  N   UNL     1       1.869   4.890  19.772  0.00  0.00    +0.000 N 
ATOM     20  C   UNL     1       2.347   4.216  20.986  0.00  0.00    +0.000 C 
ATOM     21  C   UNL     1       2.827   2.851  20.507  0.00  0.00    +0.000 C 
ATOM     22  C   UNL     1       4.266   2.821  20.013  0.00  0.00    +0.000 C 
ATOM     23  N   UNL     1       4.295   1.786  18.971  0.00  0.00    +0.000 NA
ATOM     24  C   UNL     1       2.930   1.659  18.433  0.00  0.00    +0.000 C 
ATOM     25  C   UNL     1       2.031   2.579  19.244  0.00  0.00    +0.000 C 
ATOM     26  C   UNL     1       1.849   3.971  18.629  0.00  0.00    +0.000 C 
ATOM     27  H   UNL     1       4.567   0.895  19.390  0.00  0.00    +0.000 HD
ENDBRANCH   5  19
TORSDOF 2
ENDMDL
MODEL 8
REMARK VINA RESULT:      -7.9      1.858      8.308
REMARK  Name = 
REMARK  2 active torsions:
REMARK  status: ('A' for Active; 'I' for Inactive)
REMARK    1  A    between atoms: C_2  and  C_3
REMARK    2  A    between atoms: C_7  and  N_8
REMARK                            x       y       z     vdW  Elec       q    Type
REMARK                         _______ _______ _______ _____ _____    ______ ____
ROOT
ATOM      1  C   UNL     1       0.701  10.624  18.578  0.00  0.00    +0.000 A 
ATOM      2  C   UNL     1       1.226  11.750  19.191  0.00  0.00    +0.000 A 
ATOM      3  N   UNL     1       0.467  12.738  19.717  0.00  0.00    +0.000 NA
ATOM      4  C   UNL     1      -0.880  12.570  19.638  0.00  0.00    +0.000 A 
ATOM      5  C   UNL     1      -1.538  11.497  19.027  0.00  0.00    +0.000 A 
ATOM      6  C   UNL     1      -0.687  10.567  18.415  0.00  0.00    +0.000 A 
ENDROOT
BRANCH   1   8
ATOM      7  O   UNL     1       2.339   9.746  17.184  0.00  0.00    +0.000 OA
ATOM      8  C   UNL     1       1.642   9.542  18.177  0.00  0.00    +0.000 C 
ATOM      9  N   UNL     1       1.774   8.384  18.958  0.00  0.00    +0.000 N 
ATOM     10  C   UNL     1       1.047   8.126  20.212  0.00  0.00    +0.000 C 
ATOM     11  C   UNL     1       1.615   7.015  21.094  0.00  0.00    +0.000 C 
ATOM     12  C   UNL     1       1.877   5.799  20.254  0.00  0.00    +0.000 A 
ATOM     13  C   UNL     1       1.568   4.511  20.696  0.00  0.00    +0.000 A 
ATOM     14  C   UNL     1       1.851   3.416  19.883  0.00  0.00    +0.000 A 
ATOM     15  C   UNL     1       2.457   3.604  18.640  0.00  0.00    +0.000 A 
ATOM     16  C   UNL     1       2.771   4.890  18.197  0.00  0.00    +0.000 A 
ATOM     17  C   UNL     1       2.466   5.998  18.992  0.00  0.00    +0.000 A 
ATOM     18  C   UNL     1       2.798   7.408  18.558  0.00  0.00    +0.000 C 
ENDBRANCH   1   8
BRANCH   5  19
ATOM     19  N   UNL     1      -2.911  11.352  19.028  0.00  0.00    +0.000 N 
ATOM     20  C   UNL     1      -3.585  10.417  18.118  0.00  0.00    +0.000 C 
ATOM     21  C   UNL     1      -4.953  11.040  17.866  0.00  0.00    +0.000 C 
ATOM     22  C   UNL     1      -4.990  12.054  16.732  0.00  0.00    +0.000 C 
ATOM     23  N   UNL     1      -6.027  13.023  17.114  0.00  0.00    +0.000 NA
ATOM     24  C   UNL     1      -6.149  12.988  18.581  0.00  0.00    +0.000 C 
ATOM     25  C   UNL     1      -5.224  11.894  19.091  0.00  0.00    +0.000 C 
ATOM     26  C   UNL     1      -3.831  12.395  19.493  0.00  0.00    +0.000 C 
ATOM     27  H   UNL     1      -6.919  12.739  16.703  0.00  0.00    +0.000 HD
ENDBRANCH   5  19
TORSDOF 2
ENDMDL
MODEL 9
REMARK VINA RESULT:      -7.8      3.165      4.913
REMARK  Name = 
REMARK  2 active torsions:
REMARK  status: ('A' for Active; 'I' for Inactive)
REMARK    1  A    between atoms: C_2  and  C_3
REMARK    2  A    between atoms: C_7  and  N_8
REMARK                            x       y       z     vdW  Elec       q    Type
REMARK                         _______ _______ _______ _____ _____    ______ ____
ROOT
ATOM      1  C   UNL     1       2.259   7.518  18.905  0.00  0.00    +0.000 A 
ATOM      2  C   UNL     1       1.802   7.012  20.110  0.00  0.00    +0.000 A 
ATOM      3  N   UNL     1       2.222   5.839  20.637  0.00  0.00    +0.000 NA
ATOM      4  C   UNL     1       3.160   5.161  19.924  0.00  0.00    +0.000 A 
ATOM      5  C   UNL     1       3.686   5.546  18.686  0.00  0.00    +0.000 A 
ATOM      6  C   UNL     1       3.128   6.717  18.157  0.00  0.00    +0.000 A 
ENDROOT
BRANCH   1   8
ATOM      7  O   UNL     1       2.125   9.267  17.381  0.00  0.00    +0.000 OA
ATOM      8  C   UNL     1       1.830   8.889  18.514  0.00  0.00    +0.000 C 
ATOM      9  N   UNL     1       1.052   9.669  19.383  0.00  0.00    +0.000 N 
ATOM     10  C   UNL     1       0.577   9.236  20.708  0.00  0.00    +0.000 C 
ATOM     11  C   UNL     1      -0.560  10.059  21.310  0.00  0.00    +0.000 C 
ATOM     12  C   UNL     1      -0.227  11.519  21.204  0.00  0.00    +0.000 A 
ATOM     13  C   UNL     1      -0.474  12.414  22.247  0.00  0.00    +0.000 A 
ATOM     14  C   UNL     1      -0.162  13.762  22.088  0.00  0.00    +0.000 A 
ATOM     15  C   UNL     1       0.377  14.219  20.885  0.00  0.00    +0.000 A 
ATOM     16  C   UNL     1       0.621  13.328  19.839  0.00  0.00    +0.000 A 
ATOM     17  C   UNL     1       0.338  11.968  19.997  0.00  0.00    +0.000 A 
ATOM     18  C   UNL     1       0.576  10.969  18.888  0.00  0.00    +0.000 C 
ENDBRANCH   1   8
BRANCH   5  19
ATOM     19  N   UNL     1       4.681   4.843  18.035  0.00  0.00    +0.000 N 
ATOM     20  C   UNL     1       6.056   4.806  18.547  0.00  0.00    +0.000 C 
ATOM     21  C   UNL     1       6.927   4.643  17.308  0.00  0.00    +0.000 C 
ATOM     22  C   UNL     1       7.299   5.947  16.617  0.00  0.00    +0.000 C 
ATOM     23  N   UNL     1       7.419   5.609  15.192  0.00  0.00    +0.000 NA
ATOM     24  C   UNL     1       6.590   4.416  14.948  0.00  0.00    +0.000 C 
ATOM     25  C   UNL     1       6.031   3.965  16.288  0.00  0.00    +0.000 C 
ATOM     26  C   UNL     1       4.640   4.529  16.603  0.00  0.00    +0.000 C 
ATOM     27  H   UNL     1       8.392   5.382  14.981  0.00  0.00    +0.000 HD
ENDBRANCH   5  19
TORSDOF 2
ENDMDL
