MODEL 1
REMARK VINA RESULT:      -7.8      0.000      0.000
REMARK  Name = 
REMARK  4 active torsions:
REMARK  status: ('A' for Active; 'I' for Inactive)
REMARK    1  A    between atoms: C_1  and  C_2
REMARK    2  A    between atoms: C_7  and  C_8
REMARK    3  A    between atoms: C_11  and  C_12
REMARK    4  A    between atoms: C_12  and  N_14
REMARK                            x       y       z     vdW  Elec       q    Type
REMARK                         _______ _______ _______ _____ _____    ______ ____
ROOT
ATOM      1  C   UNL     1       3.522   5.735  18.048  0.00  0.00    +0.000 A 
ATOM      2  C   UNL     1       3.245   4.548  17.401  0.00  0.00    +0.000 A 
ATOM      3  C   UNL     1       4.490   3.985  17.037  0.00  0.00    +0.000 A 
ATOM      4  C   UNL     1       5.470   4.879  17.438  0.00  0.00    +0.000 A 
ATOM      5  O   UNL     1       4.872   5.948  18.062  0.00  0.00    +0.000 OA
ENDROOT
BRANCH   1  12
ATOM      6  C   UNL     1       1.399  10.262  18.075  0.00  0.00    +0.000 C 
ATOM      7  C   UNL     1       1.673   8.955  18.761  0.00  0.00    +0.000 A 
ATOM      8  C   UNL     1       1.261   8.739  20.082  0.00  0.00    +0.000 A 
ATOM      9  C   UNL     1       1.543   7.527  20.711  0.00  0.00    +0.000 A 
ATOM     10  C   UNL     1       2.251   6.540  20.030  0.00  0.00    +0.000 A 
ATOM     11  F   UNL     1       2.516   5.395  20.680  0.00  0.00    +0.000 F 
ATOM     12  C   UNL     1       2.688   6.729  18.713  0.00  0.00    +0.000 A 
ATOM     13  C   UNL     1       2.372   7.942  18.082  0.00  0.00    +0.000 A 
ENDBRANCH   1  12
BRANCH   4  14
ATOM     14  C   UNL     1       6.915   4.804  17.308  0.00  0.00    +0.000 C 
ATOM     15  O   UNL     1       7.511   5.011  16.255  0.00  0.00    +0.000 OA
BRANCH  14  16
ATOM     16  N   UNL     1       7.518   4.527  18.514  0.00  0.00    +0.000 NA
ATOM     17  C   UNL     1       8.039   5.501  19.182  0.00  0.00    +0.000 C 
ATOM     18  N   UNL     1       8.110   6.816  18.866  0.00  0.00    +0.000 N 
ATOM     19  N   UNL     1       8.544   5.269  20.412  0.00  0.00    +0.000 N 
ATOM     20  H   UNL     1       7.930   7.009  17.883  0.00  0.00    +0.000 HD
ATOM     21  H   UNL     1       8.919   7.320  19.205  0.00  0.00    +0.000 HD
ATOM     22  H   UNL     1       8.649   4.289  20.646  0.00  0.00    +0.000 HD
ATOM     23  H   UNL     1       9.261   5.875  20.777  0.00  0.00    +0.000 HD
ENDBRANCH  14  16
ENDBRANCH   4  14
TORSDOF 3
ENDMDL
MODEL 2
REMARK VINA RESULT:      -7.7      2.966      4.121
REMARK  Name = 
REMARK  4 active torsions:
REMARK  status: ('A' for Active; 'I' for Inactive)
REMARK    1  A    between atoms: C_1  and  C_2
REMARK    2  A    between atoms: C_7  and  C_8
REMARK    3  A    between atoms: C_11  and  C_12
REMARK    4  A    between atoms: C_12  and  N_14
REMARK                            x       y       z     vdW  Elec       q    Type
REMARK                         _______ _______ _______ _____ _____    ______ ____
ROOT
ATOM      1  C   UNL     1       3.952   5.520  17.745  0.00  0.00    +0.000 A 
ATOM      2  C   UNL     1       4.145   6.740  17.131  0.00  0.00    +0.000 A 
ATOM      3  C   UNL     1       5.264   6.593  16.279  0.00  0.00    +0.000 A 
ATOM      4  C   UNL     1       5.732   5.301  16.448  0.00  0.00    +0.000 A 
ATOM      5  O   UNL     1       4.921   4.644  17.343  0.00  0.00    +0.000 OA
ENDROOT
BRANCH   1  12
ATOM      6  C   UNL     1       0.592   2.017  18.948  0.00  0.00    +0.000 C 
ATOM      7  C   UNL     1       1.264   3.325  19.248  0.00  0.00    +0.000 A 
ATOM      8  C   UNL     1       0.832   4.126  20.313  0.00  0.00    +0.000 A 
ATOM      9  C   UNL     1       1.454   5.348  20.564  0.00  0.00    +0.000 A 
ATOM     10  C   UNL     1       2.492   5.781  19.743  0.00  0.00    +0.000 A 
ATOM     11  F   UNL     1       3.050   6.972  20.010  0.00  0.00    +0.000 F 
ATOM     12  C   UNL     1       2.940   5.011  18.662  0.00  0.00    +0.000 A 
ATOM     13  C   UNL     1       2.324   3.769  18.439  0.00  0.00    +0.000 A 
ENDBRANCH   1  12
BRANCH   4  14
ATOM     14  C   UNL     1       6.856   4.623  15.824  0.00  0.00    +0.000 C 
ATOM     15  O   UNL     1       7.949   4.486  16.367  0.00  0.00    +0.000 OA
BRANCH  14  16
ATOM     16  N   UNL     1       6.521   4.120  14.587  0.00  0.00    +0.000 NA
ATOM     17  C   UNL     1       7.100   4.611  13.544  0.00  0.00    +0.000 C 
ATOM     18  N   UNL     1       8.015   5.607  13.459  0.00  0.00    +0.000 N 
ATOM     19  N   UNL     1       6.865   4.064  12.332  0.00  0.00    +0.000 N 
ATOM     20  H   UNL     1       8.076   6.177  14.301  0.00  0.00    +0.000 HD
ATOM     21  H   UNL     1       7.991   6.175  12.622  0.00  0.00    +0.000 HD
ATOM     22  H   UNL     1       6.089   3.414  12.308  0.00  0.00    +0.000 HD
ATOM     23  H   UNL     1       6.979   4.625  11.503  0.00  0.00    +0.000 HD
ENDBRANCH  14  16
ENDBRANCH   4  14
TORSDOF 3
ENDMDL
MODEL 3
REMARK VINA RESULT:      -7.7      3.647      4.878
REMARK  Name = 
REMARK  4 active torsions:
REMARK  status: ('A' for Active; 'I' for Inactive)
REMARK    1  A    between atoms: C_1  and  C_2
REMARK    2  A    between atoms: C_7  and  C_8
REMARK    3  A    between atoms: C_11  and  C_12
REMARK    4  A    between atoms: C_12  and  N_14
REMARK                            x       y       z     vdW  Elec       q    Type
REMARK                         _______ _______ _______ _____ _____    ______ ____
ROOT
ATOM      1  C   UNL     1       4.081   5.005  17.458  0.00  0.00    +0.000 A 
ATOM      2  C   UNL     1       4.337   6.359  17.383  0.00  0.00    +0.000 A 
ATOM      3  C   UNL     1       5.331   6.528  16.393  0.00  0.00    +0.000 A 
ATOM      4  C   UNL     1       5.671   5.264  15.940  0.00  0.00    +0.000 A 
ATOM      5  O   UNL     1       4.898   4.333  16.592  0.00  0.00    +0.000 OA
ENDROOT
BRANCH   1  12
ATOM      6  C   UNL     1       2.228   3.556  21.870  0.00  0.00    +0.000 C 
ATOM      7  C   UNL     1       2.233   3.459  20.372  0.00  0.00    +0.000 A 
ATOM      8  C   UNL     1       1.439   2.513  19.712  0.00  0.00    +0.000 A 
ATOM      9  C   UNL     1       1.473   2.422  18.322  0.00  0.00    +0.000 A 
ATOM     10  C   UNL     1       2.312   3.260  17.591  0.00  0.00    +0.000 A 
ATOM     11  F   UNL     1       2.326   3.127  16.256  0.00  0.00    +0.000 F 
ATOM     12  C   UNL     1       3.128   4.208  18.221  0.00  0.00    +0.000 A 
ATOM     13  C   UNL     1       3.062   4.309  19.620  0.00  0.00    +0.000 A 
ENDBRANCH   1  12
BRANCH   4  14
ATOM     14  C   UNL     1       6.637   4.858  14.934  0.00  0.00    +0.000 C 
ATOM     15  O   UNL     1       7.739   5.384  14.803  0.00  0.00    +0.000 OA
BRANCH  14  16
ATOM     16  N   UNL     1       6.181   3.789  14.196  0.00  0.00    +0.000 NA
ATOM     17  C   UNL     1       6.490   3.728  12.944  0.00  0.00    +0.000 C 
ATOM     18  N   UNL     1       7.209   4.597  12.194  0.00  0.00    +0.000 N 
ATOM     19  N   UNL     1       6.142   2.639  12.225  0.00  0.00    +0.000 N 
ATOM     20  H   UNL     1       7.321   5.512  12.626  0.00  0.00    +0.000 HD
ATOM     21  H   UNL     1       6.954   4.672  11.218  0.00  0.00    +0.000 HD
ATOM     22  H   UNL     1       5.484   2.023  12.687  0.00  0.00    +0.000 HD
ATOM     23  H   UNL     1       6.024   2.720  11.228  0.00  0.00    +0.000 HD
ENDBRANCH  14  16
ENDBRANCH   4  14
TORSDOF 3
ENDMDL
MODEL 4
REMARK VINA RESULT:      -7.6      2.850      4.303
REMARK  Name = 
REMARK  4 active torsions:
REMARK  status: ('A' for Active; 'I' for Inactive)
REMARK    1  A    between atoms: C_1  and  C_2
REMARK    2  A    between atoms: C_7  and  C_8
REMARK    3  A    between atoms: C_11  and  C_12
REMARK    4  A    between atoms: C_12  and  N_14
REMARK                            x       y       z     vdW  Elec       q    Type
REMARK                         _______ _______ _______ _____ _____    ______ ____
ROOT
ATOM      1  C   UNL     1       3.734   5.200  18.308  0.00  0.00    +0.000 A 
ATOM      2  C   UNL     1       3.817   6.506  17.870  0.00  0.00    +0.000 A 
ATOM      3  C   UNL     1       5.109   6.668  17.320  0.00  0.00    +0.000 A 
ATOM      4  C   UNL     1       5.775   5.466  17.491  0.00  0.00    +0.000 A 
ATOM      5  O   UNL     1       4.926   4.566  18.092  0.00  0.00    +0.000 OA
ENDROOT
BRANCH   1  12
ATOM      6  C   UNL     1       1.886   2.630  22.178  0.00  0.00    +0.000 C 
ATOM      7  C   UNL     1       1.755   3.113  20.763  0.00  0.00    +0.000 A 
ATOM      8  C   UNL     1       0.690   2.695  19.957  0.00  0.00    +0.000 A 
ATOM      9  C   UNL     1       0.596   3.137  18.638  0.00  0.00    +0.000 A 
ATOM     10  C   UNL     1       1.574   3.980  18.118  0.00  0.00    +0.000 A 
ATOM     11  F   UNL     1       1.454   4.367  16.838  0.00  0.00    +0.000 F 
ATOM     12  C   UNL     1       2.660   4.408  18.892  0.00  0.00    +0.000 A 
ATOM     13  C   UNL     1       2.726   3.978  20.227  0.00  0.00    +0.000 A 
ENDBRANCH   1  12
BRANCH   4  14
ATOM     14  C   UNL     1       7.124   5.081  17.116  0.00  0.00    +0.000 C 
ATOM     15  O   UNL     1       7.853   4.394  17.827  0.00  0.00    +0.000 OA
BRANCH  14  16
ATOM     16  N   UNL     1       7.451   5.537  15.859  0.00  0.00    +0.000 NA
ATOM     17  C   UNL     1       7.117   4.823  14.837  0.00  0.00    +0.000 C 
ATOM     18  N   UNL     1       6.482   3.627  14.797  0.00  0.00    +0.000 N 
ATOM     19  N   UNL     1       7.335   5.299  13.593  0.00  0.00    +0.000 N 
ATOM     20  H   UNL     1       6.474   3.139  15.691  0.00  0.00    +0.000 HD
ATOM     21  H   UNL     1       6.727   3.009  14.034  0.00  0.00    +0.000 HD
ATOM     22  H   UNL     1       7.931   6.117  13.554  0.00  0.00    +0.000 HD
ATOM     23  H   UNL     1       7.443   4.653  12.827  0.00  0.00    +0.000 HD
ENDBRANCH  14  16
ENDBRANCH   4  14
TORSDOF 3
ENDMDL
MODEL 5
REMARK VINA RESULT:      -7.6      3.424      4.694
REMARK  Name = 
REMARK  4 active torsions:
REMARK  status: ('A' for Active; 'I' for Inactive)
REMARK    1  A    between atoms: C_1  and  C_2
REMARK    2  A    between atoms: C_7  and  C_8
REMARK    3  A    between atoms: C_11  and  C_12
REMARK    4  A    between atoms: C_12  and  N_14
REMARK                            x       y       z     vdW  Elec       q    Type
REMARK                         _______ _______ _______ _____ _____    ______ ____
ROOT
ATOM      1  C   UNL     1       5.154   4.275  17.841  0.00  0.00    +0.000 A 
ATOM      2  C   UNL     1       6.411   4.561  18.332  0.00  0.00    +0.000 A 
ATOM      3  C   UNL     1       7.246   4.770  17.210  0.00  0.00    +0.000 A 
ATOM      4  C   UNL     1       6.470   4.557  16.083  0.00  0.00    +0.000 A 
ATOM      5  O   UNL     1       5.185   4.259  16.475  0.00  0.00    +0.000 OA
ENDROOT
BRANCH   1  12
ATOM      6  C   UNL     1       1.442   5.860  20.792  0.00  0.00    +0.000 C 
ATOM      7  C   UNL     1       2.054   4.781  19.947  0.00  0.00    +0.000 A 
ATOM      8  C   UNL     1       1.476   3.508  19.880  0.00  0.00    +0.000 A 
ATOM      9  C   UNL     1       2.071   2.512  19.107  0.00  0.00    +0.000 A 
ATOM     10  C   UNL     1       3.251   2.779  18.418  0.00  0.00    +0.000 A 
ATOM     11  F   UNL     1       3.799   1.785  17.701  0.00  0.00    +0.000 F 
ATOM     12  C   UNL     1       3.863   4.037  18.475  0.00  0.00    +0.000 A 
ATOM     13  C   UNL     1       3.237   5.040  19.234  0.00  0.00    +0.000 A 
ENDBRANCH   1  12
BRANCH   4  14
ATOM     14  C   UNL     1       6.821   4.633  14.676  0.00  0.00    +0.000 C 
ATOM     15  O   UNL     1       7.650   5.421  14.228  0.00  0.00    +0.000 OA
BRANCH  14  16
ATOM     16  N   UNL     1       6.151   3.688  13.933  0.00  0.00    +0.000 NA
ATOM     17  C   UNL     1       6.423   3.584  12.676  0.00  0.00    +0.000 C 
ATOM     18  N   UNL     1       7.290   4.303  11.924  0.00  0.00    +0.000 N 
ATOM     19  N   UNL     1       5.855   2.596  11.952  0.00  0.00    +0.000 N 
ATOM     20  H   UNL     1       7.589   5.171  12.364  0.00  0.00    +0.000 HD
ATOM     21  H   UNL     1       7.041   4.441  10.953  0.00  0.00    +0.000 HD
ATOM     22  H   UNL     1       5.094   2.117  12.418  0.00  0.00    +0.000 HD
ATOM     23  H   UNL     1       5.741   2.713  10.957  0.00  0.00    +0.000 HD
ENDBRANCH  14  16
ENDBRANCH   4  14
TORSDOF 3
ENDMDL
MODEL 6
REMARK VINA RESULT:      -7.6      2.297      3.090
REMARK  Name = 
REMARK  4 active torsions:
REMARK  status: ('A' for Active; 'I' for Inactive)
REMARK    1  A    between atoms: C_1  and  C_2
REMARK    2  A    between atoms: C_7  and  C_8
REMARK    3  A    between atoms: C_11  and  C_12
REMARK    4  A    between atoms: C_12  and  N_14
REMARK                            x       y       z     vdW  Elec       q    Type
REMARK                         _______ _______ _______ _____ _____    ______ ____
ROOT
ATOM      1  C   UNL     1       3.951   4.013  17.626  0.00  0.00    +0.000 A 
ATOM      2  C   UNL     1       4.019   3.526  16.336  0.00  0.00    +0.000 A 
ATOM      3  C   UNL     1       5.331   3.780  15.876  0.00  0.00    +0.000 A 
ATOM      4  C   UNL     1       5.992   4.453  16.889  0.00  0.00    +0.000 A 
ATOM      5  O   UNL     1       5.144   4.589  17.963  0.00  0.00    +0.000 OA
ENDROOT
BRANCH   1  12
ATOM      6  C   UNL     1       1.217   6.435  21.040  0.00  0.00    +0.000 C 
ATOM      7  C   UNL     1       1.592   5.156  20.351  0.00  0.00    +0.000 A 
ATOM      8  C   UNL     1       1.064   3.931  20.776  0.00  0.00    +0.000 A 
ATOM      9  C   UNL     1       1.439   2.750  20.138  0.00  0.00    +0.000 A 
ATOM     10  C   UNL     1       2.355   2.788  19.090  0.00  0.00    +0.000 A 
ATOM     11  F   UNL     1       2.702   1.625  18.516  0.00  0.00    +0.000 F 
ATOM     12  C   UNL     1       2.913   3.994  18.648  0.00  0.00    +0.000 A 
ATOM     13  C   UNL     1       2.504   5.179  19.281  0.00  0.00    +0.000 A 
ENDBRANCH   1  12
BRANCH   4  14
ATOM     14  C   UNL     1       7.354   4.956  16.947  0.00  0.00    +0.000 C 
ATOM     15  O   UNL     1       8.332   4.237  17.136  0.00  0.00    +0.000 OA
BRANCH  14  16
ATOM     16  N   UNL     1       7.405   6.311  16.714  0.00  0.00    +0.000 NA
ATOM     17  C   UNL     1       7.769   7.090  17.677  0.00  0.00    +0.000 C 
ATOM     18  N   UNL     1       8.108   6.778  18.951  0.00  0.00    +0.000 N 
ATOM     19  N   UNL     1       7.926   8.410  17.442  0.00  0.00    +0.000 N 
ATOM     20  H   UNL     1       7.820   5.842  19.232  0.00  0.00    +0.000 HD
ATOM     21  H   UNL     1       7.890   7.466  19.660  0.00  0.00    +0.000 HD
ATOM     22  H   UNL     1       7.554   8.727  16.555  0.00  0.00    +0.000 HD
ATOM     23  H   UNL     1       7.832   9.064  18.204  0.00  0.00    +0.000 HD
ENDBRANCH  14  16
ENDBRANCH   4  14
TORSDOF 3
ENDMDL
MODEL 7
REMARK VINA RESULT:      -7.6      3.107      4.484
REMARK  Name = 
REMARK  4 active torsions:
REMARK  status: ('A' for Active; 'I' for Inactive)
REMARK    1  A    between atoms: C_1  and  C_2
REMARK    2  A    between atoms: C_7  and  C_8
REMARK    3  A    between atoms: C_11  and  C_12
REMARK    4  A    between atoms: C_12  and  N_14
REMARK                            x       y       z     vdW  Elec       q    Type
REMARK                         _______ _______ _______ _____ _____    ______ ____
ROOT
ATOM      1  C   UNL     1       3.501   5.398  18.048  0.00  0.00    +0.000 A 
ATOM      2  C   UNL     1       3.603   6.763  17.872  0.00  0.00    +0.000 A 
ATOM      3  C   UNL     1       4.711   6.980  17.020  0.00  0.00    +0.000 A 
ATOM      4  C   UNL     1       5.264   5.739  16.753  0.00  0.00    +0.000 A 
ATOM      5  O   UNL     1       4.516   4.771  17.381  0.00  0.00    +0.000 OA
ENDROOT
BRANCH   1  12
ATOM      6  C   UNL     1       2.147   2.905  22.164  0.00  0.00    +0.000 C 
ATOM      7  C   UNL     1       1.883   3.291  20.738  0.00  0.00    +0.000 A 
ATOM      8  C   UNL     1       0.812   2.733  20.031  0.00  0.00    +0.000 A 
ATOM      9  C   UNL     1       0.594   3.087  18.700  0.00  0.00    +0.000 A 
ATOM     10  C   UNL     1       1.455   3.982  18.070  0.00  0.00    +0.000 A 
ATOM     11  F   UNL     1       1.219   4.282  16.783  0.00  0.00    +0.000 F 
ATOM     12  C   UNL     1       2.543   4.549  18.745  0.00  0.00    +0.000 A 
ATOM     13  C   UNL     1       2.734   4.205  20.093  0.00  0.00    +0.000 A 
ENDBRANCH   1  12
BRANCH   4  14
ATOM     14  C   UNL     1       6.415   5.382  15.941  0.00  0.00    +0.000 C 
ATOM     15  O   UNL     1       7.517   5.910  16.062  0.00  0.00    +0.000 OA
BRANCH  14  16
ATOM     16  N   UNL     1       6.123   4.356  15.071  0.00  0.00    +0.000 NA
ATOM     17  C   UNL     1       6.640   4.383  13.889  0.00  0.00    +0.000 C 
ATOM     18  N   UNL     1       7.450   5.313  13.328  0.00  0.00    +0.000 N 
ATOM     19  N   UNL     1       6.452   3.337  13.056  0.00  0.00    +0.000 N 
ATOM     20  H   UNL     1       7.460   6.200  13.829  0.00  0.00    +0.000 HD
ATOM     21  H   UNL     1       7.362   5.447  12.329  0.00  0.00    +0.000 HD
ATOM     22  H   UNL     1       5.745   2.679  13.360  0.00  0.00    +0.000 HD
ATOM     23  H   UNL     1       6.503   3.481  12.060  0.00  0.00    +0.000 HD
ENDBRANCH  14  16
ENDBRANCH   4  14
TORSDOF 3
ENDMDL
MODEL 8
REMARK VINA RESULT:      -7.5      2.747      4.285
REMARK  Name = 
REMARK  4 active torsions:
REMARK  status: ('A' for Active; 'I' for Inactive)
REMARK    1  A    between atoms: C_1  and  C_2
REMARK    2  A    between atoms: C_7  and  C_8
REMARK    3  A    between atoms: C_11  and  C_12
REMARK    4  A    between atoms: C_12  and  N_14
REMARK                            x       y       z     vdW  Elec       q    Type
REMARK                         _______ _______ _______ _____ _____    ______ ____
ROOT
ATOM      1  C   UNL     1       2.932   5.847  18.315  0.00  0.00    +0.000 A 
ATOM      2  C   UNL     1       2.647   7.186  18.140  0.00  0.00    +0.000 A 
ATOM      3  C   UNL     1       3.730   7.740  17.419  0.00  0.00    +0.000 A 
ATOM      4  C   UNL     1       4.650   6.723  17.228  0.00  0.00    +0.000 A 
ATOM      5  O   UNL     1       4.154   5.562  17.774  0.00  0.00    +0.000 OA
ENDROOT
BRANCH   1  12
ATOM      6  C   UNL     1       2.105   2.793  22.187  0.00  0.00    +0.000 C 
ATOM      7  C   UNL     1       1.803   3.208  20.776  0.00  0.00    +0.000 A 
ATOM      8  C   UNL     1       0.932   2.456  19.979  0.00  0.00    +0.000 A 
ATOM      9  C   UNL     1       0.679   2.844  18.664  0.00  0.00    +0.000 A 
ATOM     10  C   UNL     1       1.309   3.969  18.139  0.00  0.00    +0.000 A 
ATOM     11  F   UNL     1       1.050   4.296  16.863  0.00  0.00    +0.000 F 
ATOM     12  C   UNL     1       2.195   4.736  18.905  0.00  0.00    +0.000 A 
ATOM     13  C   UNL     1       2.418   4.351  20.237  0.00  0.00    +0.000 A 
ENDBRANCH   1  12
BRANCH   4  14
ATOM     14  C   UNL     1       5.938   6.740  16.556  0.00  0.00    +0.000 C 
ATOM     15  O   UNL     1       6.890   7.415  16.938  0.00  0.00    +0.000 OA
BRANCH  14  16
ATOM     16  N   UNL     1       5.964   5.874  15.486  0.00  0.00    +0.000 NA
ATOM     17  C   UNL     1       6.470   4.699  15.655  0.00  0.00    +0.000 C 
ATOM     18  N   UNL     1       7.027   4.157  16.764  0.00  0.00    +0.000 N 
ATOM     19  N   UNL     1       6.413   3.799  14.651  0.00  0.00    +0.000 N 
ATOM     20  H   UNL     1       7.273   4.844  17.475  0.00  0.00    +0.000 HD
ATOM     21  H   UNL     1       7.771   3.487  16.617  0.00  0.00    +0.000 HD
ATOM     22  H   UNL     1       6.139   4.185  13.756  0.00  0.00    +0.000 HD
ATOM     23  H   UNL     1       7.096   3.060  14.608  0.00  0.00    +0.000 HD
ENDBRANCH  14  16
ENDBRANCH   4  14
TORSDOF 3
ENDMDL
MODEL 9
REMARK VINA RESULT:      -7.5      2.013      2.758
REMARK  Name = 
REMARK  4 active torsions:
REMARK  status: ('A' for Active; 'I' for Inactive)
REMARK    1  A    between atoms: C_1  and  C_2
REMARK    2  A    between atoms: C_7  and  C_8
REMARK    3  A    between atoms: C_11  and  C_12
REMARK    4  A    between atoms: C_12  and  N_14
REMARK                            x       y       z     vdW  Elec       q    Type
REMARK                         _______ _______ _______ _____ _____    ______ ____
ROOT
ATOM      1  C   UNL     1       2.812   6.261  18.712  0.00  0.00    +0.000 A 
ATOM      2  C   UNL     1       2.293   5.011  18.442  0.00  0.00    +0.000 A 
ATOM      3  C   UNL     1       3.393   4.169  18.159  0.00  0.00    +0.000 A 
ATOM      4  C   UNL     1       4.531   4.954  18.224  0.00  0.00    +0.000 A 
ATOM      5  O   UNL     1       4.171   6.236  18.569  0.00  0.00    +0.000 OA
ENDROOT
BRANCH   1  12
ATOM      6  C   UNL     1       0.449   8.961  22.194  0.00  0.00    +0.000 C 
ATOM      7  C   UNL     1       1.024   8.847  20.813  0.00  0.00    +0.000 A 
ATOM      8  C   UNL     1       0.865   9.881  19.883  0.00  0.00    +0.000 A 
ATOM      9  C   UNL     1       1.388   9.750  18.597  0.00  0.00    +0.000 A 
ATOM     10  C   UNL     1       2.050   8.580  18.233  0.00  0.00    +0.000 A 
ATOM     11  F   UNL     1       2.522   8.489  16.979  0.00  0.00    +0.000 F 
ATOM     12  C   UNL     1       2.215   7.521  19.134  0.00  0.00    +0.000 A 
ATOM     13  C   UNL     1       1.709   7.679  20.435  0.00  0.00    +0.000 A 
ENDBRANCH   1  12
BRANCH   4  14
ATOM     14  C   UNL     1       5.925   4.602  18.016  0.00  0.00    +0.000 C 
ATOM     15  O   UNL     1       6.716   4.404  18.935  0.00  0.00    +0.000 OA
BRANCH  14  16
ATOM     16  N   UNL     1       6.222   4.472  16.678  0.00  0.00    +0.000 NA
ATOM     17  C   UNL     1       6.950   5.377  16.116  0.00  0.00    +0.000 C 
ATOM     18  N   UNL     1       7.481   6.503  16.649  0.00  0.00    +0.000 N 
ATOM     19  N   UNL     1       7.339   5.217  14.834  0.00  0.00    +0.000 N 
ATOM     20  H   UNL     1       7.062   6.771  17.538  0.00  0.00    +0.000 HD
ATOM     21  H   UNL     1       7.580   7.296  16.028  0.00  0.00    +0.000 HD
ATOM     22  H   UNL     1       6.861   4.473  14.339  0.00  0.00    +0.000 HD
ATOM     23  H   UNL     1       7.559   6.028  14.277  0.00  0.00    +0.000 HD
ENDBRANCH  14  16
ENDBRANCH   4  14
TORSDOF 3
ENDMDL
