MODEL 1
REMARK VINA RESULT:      -8.9      0.000      0.000
REMARK  Name = 
REMARK  8 active torsions:
REMARK  status: ('A' for Active; 'I' for Inactive)
REMARK    1  A    between atoms: N_3  and  N_4
REMARK    2  A    between atoms: C_5  and  C_6
REMARK    3  A    between atoms: C_5  and  C_15
REMARK    4  A    between atoms: C_7  and  C_8
REMARK    5  A    between atoms: C_13  and  O_14
REMARK    6  A    between atoms: C_17  and  O_18
REMARK    7  A    between atoms: C_21  and  O_22
REMARK    8  A    between atoms: N_23  and  C_24
REMARK                            x       y       z     vdW  Elec       q    Type
REMARK                         _______ _______ _______ _____ _____    ______ ____
ROOT
ATOM      1  N   UNL     1       5.371   4.787  18.768  0.00  0.00    +0.000 NA
ATOM      2  C   UNL     1       4.149   5.163  19.027  0.00  0.00    +0.000 C 
ENDROOT
BRANCH   1   5
ATOM      3  O   UNL     1       7.652   6.680  16.875  0.00  0.00    +0.000 OA
ATOM      4  C   UNL     1       6.827   5.810  17.135  0.00  0.00    +0.000 C 
ATOM      5  N   UNL     1       6.290   5.729  18.410  0.00  0.00    +0.000 N 
ATOM      6  N   UNL     1       6.329   4.857  16.278  0.00  0.00    +0.000 N 
ATOM      7  H   UNL     1       6.578   6.446  19.066  0.00  0.00    +0.000 HD
ATOM      8  H   UNL     1       5.634   4.274  16.731  0.00  0.00    +0.000 HD
BRANCH   6   9
ATOM      9  C   UNL     1       6.618   4.669  14.913  0.00  0.00    +0.000 A 
ATOM     10  C   UNL     1       7.639   5.350  14.238  0.00  0.00    +0.000 A 
ATOM     11  C   UNL     1       7.855   5.142  12.871  0.00  0.00    +0.000 A 
ATOM     12  C   UNL     1       7.050   4.248  12.178  0.00  0.00    +0.000 A 
ATOM     13  F   UNL     1       7.247   4.059  10.867  0.00  0.00    +0.000 F 
ATOM     14  C   UNL     1       6.042   3.549  12.829  0.00  0.00    +0.000 A 
ATOM     15  C   UNL     1       5.829   3.755  14.198  0.00  0.00    +0.000 A 
ENDBRANCH   6   9
ENDBRANCH   1   5
BRANCH   2  16
ATOM     16  C   UNL     1       3.136   4.062  19.262  0.00  0.00    +0.000 A 
ATOM     17  C   UNL     1       2.776   3.796  20.597  0.00  0.00    +0.000 A 
ATOM     18  C   UNL     1       1.831   2.816  20.891  0.00  0.00    +0.000 A 
ATOM     19  C   UNL     1       1.226   2.084  19.880  0.00  0.00    +0.000 A 
ATOM     20  C   UNL     1       1.574   2.327  18.553  0.00  0.00    +0.000 A 
ATOM     21  C   UNL     1       2.522   3.311  18.244  0.00  0.00    +0.000 A 
BRANCH  18  22
ATOM     22  O   UNL     1       1.463   2.540  22.175  0.00  0.00    +0.000 OA
ATOM     23  H   UNL     1       1.655   1.605  22.366  0.00  0.00    +0.000 HD
ENDBRANCH  18  22
BRANCH  21  24
ATOM     24  O   UNL     1       2.811   3.534  16.926  0.00  0.00    +0.000 OA
ATOM     25  H   UNL     1       2.462   2.803  16.388  0.00  0.00    +0.000 HD
ENDBRANCH  21  24
ENDBRANCH   2  16
BRANCH   2  26
ATOM     26  C   UNL     1       3.589   6.557  19.061  0.00  0.00    +0.000 C 
ATOM     27  C   UNL     1       2.415   6.865  19.637  0.00  0.00    +0.000 C 
BRANCH  27  28
ATOM     28  C   UNL     1       1.786   8.179  19.434  0.00  0.00    +0.000 A 
ATOM     29  C   UNL     1       1.839   8.731  18.144  0.00  0.00    +0.000 A 
ATOM     30  C   UNL     1       1.274   9.980  17.877  0.00  0.00    +0.000 A 
ATOM     31  C   UNL     1       0.641  10.691  18.894  0.00  0.00    +0.000 A 
ATOM     32  C   UNL     1       0.578  10.157  20.180  0.00  0.00    +0.000 A 
ATOM     33  C   UNL     1       1.152   8.907  20.449  0.00  0.00    +0.000 A 
BRANCH  33  34
ATOM     34  O   UNL     1       1.093   8.391  21.715  0.00  0.00    +0.000 OA
ATOM     35  H   UNL     1       1.747   7.677  21.792  0.00  0.00    +0.000 HD
ENDBRANCH  33  34
ENDBRANCH  27  28
ENDBRANCH   2  26
TORSDOF 8
ENDMDL
MODEL 2
REMARK VINA RESULT:      -8.7      1.151      1.479
REMARK  Name = 
REMARK  8 active torsions:
REMARK  status: ('A' for Active; 'I' for Inactive)
REMARK    1  A    between atoms: N_3  and  N_4
REMARK    2  A    between atoms: C_5  and  C_6
REMARK    3  A    between atoms: C_5  and  C_15
REMARK    4  A    between atoms: C_7  and  C_8
REMARK    5  A    between atoms: C_13  and  O_14
REMARK    6  A    between atoms: C_17  and  O_18
REMARK    7  A    between atoms: C_21  and  O_22
REMARK    8  A    between atoms: N_23  and  C_24
REMARK                            x       y       z     vdW  Elec       q    Type
REMARK                         _______ _______ _______ _____ _____    ______ ____
ROOT
ATOM      1  N   UNL     1       4.490   5.389  18.593  0.00  0.00    +0.000 NA
ATOM      2  C   UNL     1       3.227   5.606  18.838  0.00  0.00    +0.000 C 
ENDROOT
BRANCH   1   5
ATOM      3  O   UNL     1       6.584   7.315  16.526  0.00  0.00    +0.000 OA
ATOM      4  C   UNL     1       5.907   6.362  16.897  0.00  0.00    +0.000 C 
ATOM      5  N   UNL     1       5.256   6.412  18.120  0.00  0.00    +0.000 N 
ATOM      6  N   UNL     1       5.687   5.187  16.217  0.00  0.00    +0.000 N 
ATOM      7  H   UNL     1       5.336   7.281  18.636  0.00  0.00    +0.000 HD
ATOM      8  H   UNL     1       5.064   4.571  16.727  0.00  0.00    +0.000 HD
BRANCH   6   9
ATOM      9  C   UNL     1       6.154   4.812  14.943  0.00  0.00    +0.000 A 
ATOM     10  C   UNL     1       7.367   5.254  14.403  0.00  0.00    +0.000 A 
ATOM     11  C   UNL     1       7.760   4.870  13.116  0.00  0.00    +0.000 A 
ATOM     12  C   UNL     1       6.938   4.037  12.369  0.00  0.00    +0.000 A 
ATOM     13  F   UNL     1       7.306   3.680  11.131  0.00  0.00    +0.000 F 
ATOM     14  C   UNL     1       5.738   3.572  12.889  0.00  0.00    +0.000 A 
ATOM     15  C   UNL     1       5.347   3.954  14.178  0.00  0.00    +0.000 A 
ENDBRANCH   6   9
ENDBRANCH   1   5
BRANCH   2  16
ATOM     16  C   UNL     1       2.391   4.399  19.209  0.00  0.00    +0.000 A 
ATOM     17  C   UNL     1       2.372   4.024  20.566  0.00  0.00    +0.000 A 
ATOM     18  C   UNL     1       1.604   2.941  20.987  0.00  0.00    +0.000 A 
ATOM     19  C   UNL     1       0.844   2.212  20.084  0.00  0.00    +0.000 A 
ATOM     20  C   UNL     1       0.855   2.562  18.736  0.00  0.00    +0.000 A 
ATOM     21  C   UNL     1       1.622   3.650  18.300  0.00  0.00    +0.000 A 
BRANCH  18  22
ATOM     22  O   UNL     1       1.566   2.558  22.296  0.00  0.00    +0.000 OA
ATOM     23  H   UNL     1       1.408   1.599  22.341  0.00  0.00    +0.000 HD
ENDBRANCH  18  22
BRANCH  21  24
ATOM     24  O   UNL     1       1.580   3.975  16.971  0.00  0.00    +0.000 OA
ATOM     25  H   UNL     1       2.126   4.762  16.811  0.00  0.00    +0.000 HD
ENDBRANCH  21  24
ENDBRANCH   2  16
BRANCH   2  26
ATOM     26  C   UNL     1       2.466   6.898  18.738  0.00  0.00    +0.000 C 
ATOM     27  C   UNL     1       2.249   7.708  19.787  0.00  0.00    +0.000 C 
BRANCH  27  28
ATOM     28  C   UNL     1       1.296   8.826  19.706  0.00  0.00    +0.000 A 
ATOM     29  C   UNL     1       0.501   9.083  20.834  0.00  0.00    +0.000 A 
ATOM     30  C   UNL     1      -0.435  10.120  20.828  0.00  0.00    +0.000 A 
ATOM     31  C   UNL     1      -0.583  10.919  19.696  0.00  0.00    +0.000 A 
ATOM     32  C   UNL     1       0.200  10.677  18.569  0.00  0.00    +0.000 A 
ATOM     33  C   UNL     1       1.133   9.632  18.573  0.00  0.00    +0.000 A 
BRANCH  33  34
ATOM     34  O   UNL     1       1.893   9.396  17.460  0.00  0.00    +0.000 OA
ATOM     35  H   UNL     1       2.613   8.789  17.697  0.00  0.00    +0.000 HD
ENDBRANCH  33  34
ENDBRANCH  27  28
ENDBRANCH   2  26
TORSDOF 8
ENDMDL
MODEL 3
REMARK VINA RESULT:      -8.7      3.722      7.934
REMARK  Name = 
REMARK  8 active torsions:
REMARK  status: ('A' for Active; 'I' for Inactive)
REMARK    1  A    between atoms: N_3  and  N_4
REMARK    2  A    between atoms: C_5  and  C_6
REMARK    3  A    between atoms: C_5  and  C_15
REMARK    4  A    between atoms: C_7  and  C_8
REMARK    5  A    between atoms: C_13  and  O_14
REMARK    6  A    between atoms: C_17  and  O_18
REMARK    7  A    between atoms: C_21  and  O_22
REMARK    8  A    between atoms: N_23  and  C_24
REMARK                            x       y       z     vdW  Elec       q    Type
REMARK                         _______ _______ _______ _____ _____    ______ ____
ROOT
ATOM      1  N   UNL     1       2.687   6.509  18.809  0.00  0.00    +0.000 NA
ATOM      2  C   UNL     1       3.171   5.351  18.453  0.00  0.00    +0.000 C 
ENDROOT
BRANCH   1   5
ATOM      3  O   UNL     1       2.285   9.677  17.335  0.00  0.00    +0.000 OA
ATOM      4  C   UNL     1       2.132   8.762  18.137  0.00  0.00    +0.000 C 
ATOM      5  N   UNL     1       2.811   7.567  17.958  0.00  0.00    +0.000 N 
ATOM      6  N   UNL     1       1.340   8.768  19.261  0.00  0.00    +0.000 N 
ATOM      7  H   UNL     1       3.457   7.529  17.176  0.00  0.00    +0.000 HD
ATOM      8  H   UNL     1       1.412   7.897  19.774  0.00  0.00    +0.000 HD
BRANCH   6   9
ATOM      9  C   UNL     1       0.548   9.815  19.768  0.00  0.00    +0.000 A 
ATOM     10  C   UNL     1       0.769  10.420  21.012  0.00  0.00    +0.000 A 
ATOM     11  C   UNL     1      -0.075  11.436  21.474  0.00  0.00    +0.000 A 
ATOM     12  C   UNL     1      -1.141  11.851  20.688  0.00  0.00    +0.000 A 
ATOM     13  F   UNL     1      -1.958  12.815  21.135  0.00  0.00    +0.000 F 
ATOM     14  C   UNL     1      -1.371  11.279  19.444  0.00  0.00    +0.000 A 
ATOM     15  C   UNL     1      -0.524  10.264  18.981  0.00  0.00    +0.000 A 
ENDBRANCH   6   9
ENDBRANCH   1   5
BRANCH   2  16
ATOM     16  C   UNL     1       3.148   4.256  19.499  0.00  0.00    +0.000 A 
ATOM     17  C   UNL     1       4.197   3.318  19.468  0.00  0.00    +0.000 A 
ATOM     18  C   UNL     1       4.258   2.298  20.416  0.00  0.00    +0.000 A 
ATOM     19  C   UNL     1       3.292   2.186  21.404  0.00  0.00    +0.000 A 
ATOM     20  C   UNL     1       2.242   3.100  21.447  0.00  0.00    +0.000 A 
ATOM     21  C   UNL     1       2.170   4.131  20.501  0.00  0.00    +0.000 A 
BRANCH  18  22
ATOM     22  O   UNL     1       5.264   1.377  20.410  0.00  0.00    +0.000 OA
ATOM     23  H   UNL     1       6.022   1.740  19.918  0.00  0.00    +0.000 HD
ENDBRANCH  18  22
BRANCH  21  24
ATOM     24  O   UNL     1       1.137   5.022  20.600  0.00  0.00    +0.000 OA
ATOM     25  H   UNL     1       1.486   5.929  20.577  0.00  0.00    +0.000 HD
ENDBRANCH  21  24
ENDBRANCH   2  16
BRANCH   2  26
ATOM     26  C   UNL     1       3.815   4.970  17.149  0.00  0.00    +0.000 C 
ATOM     27  C   UNL     1       5.143   4.843  16.994  0.00  0.00    +0.000 C 
BRANCH  27  28
ATOM     28  C   UNL     1       5.747   4.717  15.659  0.00  0.00    +0.000 A 
ATOM     29  C   UNL     1       5.096   3.892  14.728  0.00  0.00    +0.000 A 
ATOM     30  C   UNL     1       5.616   3.713  13.444  0.00  0.00    +0.000 A 
ATOM     31  C   UNL     1       6.791   4.363  13.071  0.00  0.00    +0.000 A 
ATOM     32  C   UNL     1       7.449   5.185  13.983  0.00  0.00    +0.000 A 
ATOM     33  C   UNL     1       6.931   5.358  15.273  0.00  0.00    +0.000 A 
BRANCH  33  34
ATOM     34  O   UNL     1       7.586   6.162  16.166  0.00  0.00    +0.000 OA
ATOM     35  H   UNL     1       7.774   5.649  16.969  0.00  0.00    +0.000 HD
ENDBRANCH  33  34
ENDBRANCH  27  28
ENDBRANCH   2  26
TORSDOF 8
ENDMDL
MODEL 4
REMARK VINA RESULT:      -8.6      3.821      7.645
REMARK  Name = 
REMARK  8 active torsions:
REMARK  status: ('A' for Active; 'I' for Inactive)
REMARK    1  A    between atoms: N_3  and  N_4
REMARK    2  A    between atoms: C_5  and  C_6
REMARK    3  A    between atoms: C_5  and  C_15
REMARK    4  A    between atoms: C_7  and  C_8
REMARK    5  A    between atoms: C_13  and  O_14
REMARK    6  A    between atoms: C_17  and  O_18
REMARK    7  A    between atoms: C_21  and  O_22
REMARK    8  A    between atoms: N_23  and  C_24
REMARK                            x       y       z     vdW  Elec       q    Type
REMARK                         _______ _______ _______ _____ _____    ______ ____
ROOT
ATOM      1  N   UNL     1       2.031   7.284  18.957  0.00  0.00    +0.000 NA
ATOM      2  C   UNL     1       2.506   6.172  18.467  0.00  0.00    +0.000 C 
ENDROOT
BRANCH   1   5
ATOM      3  O   UNL     1       2.087  10.544  17.638  0.00  0.00    +0.000 OA
ATOM      4  C   UNL     1       1.625   9.499  18.085  0.00  0.00    +0.000 C 
ATOM      5  N   UNL     1       2.476   8.470  18.454  0.00  0.00    +0.000 N 
ATOM      6  N   UNL     1       0.298   9.201  18.292  0.00  0.00    +0.000 N 
ATOM      7  H   UNL     1       3.470   8.660  18.379  0.00  0.00    +0.000 HD
ATOM      8  H   UNL     1       0.181   8.282  18.701  0.00  0.00    +0.000 HD
BRANCH   6   9
ATOM      9  C   UNL     1      -0.828  10.017  18.069  0.00  0.00    +0.000 A 
ATOM     10  C   UNL     1      -1.204  11.064  18.919  0.00  0.00    +0.000 A 
ATOM     11  C   UNL     1      -2.354  11.818  18.659  0.00  0.00    +0.000 A 
ATOM     12  C   UNL     1      -3.128  11.526  17.544  0.00  0.00    +0.000 A 
ATOM     13  F   UNL     1      -4.237  12.238  17.302  0.00  0.00    +0.000 F 
ATOM     14  C   UNL     1      -2.766  10.502  16.678  0.00  0.00    +0.000 A 
ATOM     15  C   UNL     1      -1.614   9.751  16.937  0.00  0.00    +0.000 A 
ENDBRANCH   6   9
ENDBRANCH   1   5
BRANCH   2  16
ATOM     16  C   UNL     1       2.097   4.893  19.169  0.00  0.00    +0.000 A 
ATOM     17  C   UNL     1       2.494   4.744  20.511  0.00  0.00    +0.000 A 
ATOM     18  C   UNL     1       2.131   3.607  21.231  0.00  0.00    +0.000 A 
ATOM     19  C   UNL     1       1.376   2.603  20.644  0.00  0.00    +0.000 A 
ATOM     20  C   UNL     1       0.979   2.729  19.314  0.00  0.00    +0.000 A 
ATOM     21  C   UNL     1       1.336   3.868  18.580  0.00  0.00    +0.000 A 
BRANCH  18  22
ATOM     22  O   UNL     1       2.500   3.438  22.532  0.00  0.00    +0.000 OA
ATOM     23  H   UNL     1       3.468   3.517  22.600  0.00  0.00    +0.000 HD
ENDBRANCH  18  22
BRANCH  21  24
ATOM     24  O   UNL     1       0.901   3.961  17.287  0.00  0.00    +0.000 OA
ATOM     25  H   UNL     1       1.582   3.613  16.688  0.00  0.00    +0.000 HD
ENDBRANCH  21  24
ENDBRANCH   2  16
BRANCH   2  26
ATOM     26  C   UNL     1       3.467   5.990  17.326  0.00  0.00    +0.000 C 
ATOM     27  C   UNL     1       4.233   4.896  17.176  0.00  0.00    +0.000 C 
BRANCH  27  28
ATOM     28  C   UNL     1       5.332   4.862  16.199  0.00  0.00    +0.000 A 
ATOM     29  C   UNL     1       5.067   4.289  14.946  0.00  0.00    +0.000 A 
ATOM     30  C   UNL     1       6.064   4.209  13.970  0.00  0.00    +0.000 A 
ATOM     31  C   UNL     1       7.338   4.708  14.234  0.00  0.00    +0.000 A 
ATOM     32  C   UNL     1       7.618   5.280  15.474  0.00  0.00    +0.000 A 
ATOM     33  C   UNL     1       6.618   5.353  16.454  0.00  0.00    +0.000 A 
BRANCH  33  34
ATOM     34  O   UNL     1       6.901   5.910  17.671  0.00  0.00    +0.000 OA
ATOM     35  H   UNL     1       7.163   5.204  18.284  0.00  0.00    +0.000 HD
ENDBRANCH  33  34
ENDBRANCH  27  28
ENDBRANCH   2  26
TORSDOF 8
ENDMDL
MODEL 5
REMARK VINA RESULT:      -8.6      3.689      8.040
REMARK  Name = 
REMARK  8 active torsions:
REMARK  status: ('A' for Active; 'I' for Inactive)
REMARK    1  A    between atoms: N_3  and  N_4
REMARK    2  A    between atoms: C_5  and  C_6
REMARK    3  A    between atoms: C_5  and  C_15
REMARK    4  A    between atoms: C_7  and  C_8
REMARK    5  A    between atoms: C_13  and  O_14
REMARK    6  A    between atoms: C_17  and  O_18
REMARK    7  A    between atoms: C_21  and  O_22
REMARK    8  A    between atoms: N_23  and  C_24
REMARK                            x       y       z     vdW  Elec       q    Type
REMARK                         _______ _______ _______ _____ _____    ______ ____
ROOT
ATOM      1  N   UNL     1       3.163   6.538  18.212  0.00  0.00    +0.000 NA
ATOM      2  C   UNL     1       3.685   5.501  17.616  0.00  0.00    +0.000 C 
ENDROOT
BRANCH   1   5
ATOM      3  O   UNL     1       2.635   9.926  17.433  0.00  0.00    +0.000 OA
ATOM      4  C   UNL     1       2.502   8.852  18.009  0.00  0.00    +0.000 C 
ATOM      5  N   UNL     1       3.261   7.761  17.617  0.00  0.00    +0.000 N 
ATOM      6  N   UNL     1       1.659   8.573  19.059  0.00  0.00    +0.000 N 
ATOM      7  H   UNL     1       3.943   7.927  16.885  0.00  0.00    +0.000 HD
ATOM      8  H   UNL     1       1.761   7.616  19.376  0.00  0.00    +0.000 HD
BRANCH   6   9
ATOM      9  C   UNL     1       0.781   9.443  19.733  0.00  0.00    +0.000 A 
ATOM     10  C   UNL     1      -0.201  10.204  19.087  0.00  0.00    +0.000 A 
ATOM     11  C   UNL     1      -1.022  11.076  19.810  0.00  0.00    +0.000 A 
ATOM     12  C   UNL     1      -0.862  11.185  21.185  0.00  0.00    +0.000 A 
ATOM     13  F   UNL     1      -1.638  12.030  21.877  0.00  0.00    +0.000 F 
ATOM     14  C   UNL     1       0.094  10.429  21.851  0.00  0.00    +0.000 A 
ATOM     15  C   UNL     1       0.912   9.554  21.126  0.00  0.00    +0.000 A 
ENDBRANCH   6   9
ENDBRANCH   1   5
BRANCH   2  16
ATOM     16  C   UNL     1       3.687   4.202  18.395  0.00  0.00    +0.000 A 
ATOM     17  C   UNL     1       2.555   3.375  18.266  0.00  0.00    +0.000 A 
ATOM     18  C   UNL     1       2.496   2.152  18.930  0.00  0.00    +0.000 A 
ATOM     19  C   UNL     1       3.546   1.723  19.727  0.00  0.00    +0.000 A 
ATOM     20  C   UNL     1       4.673   2.530  19.873  0.00  0.00    +0.000 A 
ATOM     21  C   UNL     1       4.745   3.762  19.210  0.00  0.00    +0.000 A 
BRANCH  18  22
ATOM     22  O   UNL     1       1.412   1.332  18.820  0.00  0.00    +0.000 OA
ATOM     23  H   UNL     1       1.418   0.914  17.941  0.00  0.00    +0.000 HD
ENDBRANCH  18  22
BRANCH  21  24
ATOM     24  O   UNL     1       5.882   4.506  19.361  0.00  0.00    +0.000 OA
ATOM     25  H   UNL     1       6.573   3.965  19.779  0.00  0.00    +0.000 HD
ENDBRANCH  21  24
ENDBRANCH   2  16
BRANCH   2  26
ATOM     26  C   UNL     1       4.352   5.436  16.271  0.00  0.00    +0.000 C 
ATOM     27  C   UNL     1       5.002   4.349  15.823  0.00  0.00    +0.000 C 
BRANCH  27  28
ATOM     28  C   UNL     1       5.847   4.406  14.621  0.00  0.00    +0.000 A 
ATOM     29  C   UNL     1       5.413   3.699  13.489  0.00  0.00    +0.000 A 
ATOM     30  C   UNL     1       6.168   3.696  12.314  0.00  0.00    +0.000 A 
ATOM     31  C   UNL     1       7.366   4.405  12.254  0.00  0.00    +0.000 A 
ATOM     32  C   UNL     1       7.811   5.112  13.369  0.00  0.00    +0.000 A 
ATOM     33  C   UNL     1       7.056   5.109  14.549  0.00  0.00    +0.000 A 
BRANCH  33  34
ATOM     34  O   UNL     1       7.503   5.800  15.643  0.00  0.00    +0.000 OA
ATOM     35  H   UNL     1       8.376   6.175  15.440  0.00  0.00    +0.000 HD
ENDBRANCH  33  34
ENDBRANCH  27  28
ENDBRANCH   2  26
TORSDOF 8
ENDMDL
MODEL 6
REMARK VINA RESULT:      -8.5      0.906      1.535
REMARK  Name = 
REMARK  8 active torsions:
REMARK  status: ('A' for Active; 'I' for Inactive)
REMARK    1  A    between atoms: N_3  and  N_4
REMARK    2  A    between atoms: C_5  and  C_6
REMARK    3  A    between atoms: C_5  and  C_15
REMARK    4  A    between atoms: C_7  and  C_8
REMARK    5  A    between atoms: C_13  and  O_14
REMARK    6  A    between atoms: C_17  and  O_18
REMARK    7  A    between atoms: C_21  and  O_22
REMARK    8  A    between atoms: N_23  and  C_24
REMARK                            x       y       z     vdW  Elec       q    Type
REMARK                         _______ _______ _______ _____ _____    ______ ____
ROOT
ATOM      1  N   UNL     1       5.246   4.693  18.706  0.00  0.00    +0.000 NA
ATOM      2  C   UNL     1       4.073   5.084  19.121  0.00  0.00    +0.000 C 
ENDROOT
BRANCH   1   5
ATOM      3  O   UNL     1       7.512   6.585  16.795  0.00  0.00    +0.000 OA
ATOM      4  C   UNL     1       6.687   5.718  17.061  0.00  0.00    +0.000 C 
ATOM      5  N   UNL     1       6.165   5.632  18.342  0.00  0.00    +0.000 N 
ATOM      6  N   UNL     1       6.172   4.772  16.205  0.00  0.00    +0.000 N 
ATOM      7  H   UNL     1       6.465   6.344  18.999  0.00  0.00    +0.000 HD
ATOM      8  H   UNL     1       5.481   4.190  16.663  0.00  0.00    +0.000 HD
BRANCH   6   9
ATOM      9  C   UNL     1       6.443   4.591  14.836  0.00  0.00    +0.000 A 
ATOM     10  C   UNL     1       5.712   3.728  14.010  0.00  0.00    +0.000 A 
ATOM     11  C   UNL     1       6.052   3.568  12.662  0.00  0.00    +0.000 A 
ATOM     12  C   UNL     1       7.125   4.276  12.137  0.00  0.00    +0.000 A 
ATOM     13  F   UNL     1       7.461   4.113  10.851  0.00  0.00    +0.000 F 
ATOM     14  C   UNL     1       7.855   5.150  12.932  0.00  0.00    +0.000 A 
ATOM     15  C   UNL     1       7.512   5.312  14.280  0.00  0.00    +0.000 A 
ENDBRANCH   6   9
ENDBRANCH   1   5
BRANCH   2  16
ATOM     16  C   UNL     1       3.042   4.001  19.359  0.00  0.00    +0.000 A 
ATOM     17  C   UNL     1       2.707   3.717  20.697  0.00  0.00    +0.000 A 
ATOM     18  C   UNL     1       1.747   2.752  20.994  0.00  0.00    +0.000 A 
ATOM     19  C   UNL     1       1.103   2.054  19.984  0.00  0.00    +0.000 A 
ATOM     20  C   UNL     1       1.425   2.315  18.654  0.00  0.00    +0.000 A 
ATOM     21  C   UNL     1       2.388   3.283  18.342  0.00  0.00    +0.000 A 
BRANCH  18  22
ATOM     22  O   UNL     1       1.403   2.460  22.281  0.00  0.00    +0.000 OA
ATOM     23  H   UNL     1       2.068   2.841  22.881  0.00  0.00    +0.000 HD
ENDBRANCH  18  22
BRANCH  21  24
ATOM     24  O   UNL     1       2.651   3.526  17.022  0.00  0.00    +0.000 OA
ATOM     25  H   UNL     1       2.621   4.482  16.854  0.00  0.00    +0.000 HD
ENDBRANCH  21  24
ENDBRANCH   2  16
BRANCH   2  26
ATOM     26  C   UNL     1       3.579   6.488  19.336  0.00  0.00    +0.000 C 
ATOM     27  C   UNL     1       2.280   6.797  19.480  0.00  0.00    +0.000 C 
BRANCH  27  28
ATOM     28  C   UNL     1       1.818   8.193  19.436  0.00  0.00    +0.000 A 
ATOM     29  C   UNL     1       1.227   8.716  20.597  0.00  0.00    +0.000 A 
ATOM     30  C   UNL     1       0.753  10.030  20.628  0.00  0.00    +0.000 A 
ATOM     31  C   UNL     1       0.870  10.840  19.500  0.00  0.00    +0.000 A 
ATOM     32  C   UNL     1       1.455  10.336  18.340  0.00  0.00    +0.000 A 
ATOM     33  C   UNL     1       1.924   9.016  18.308  0.00  0.00    +0.000 A 
BRANCH  33  34
ATOM     34  O   UNL     1       2.491   8.525  17.164  0.00  0.00    +0.000 OA
ATOM     35  H   UNL     1       2.379   9.179  16.454  0.00  0.00    +0.000 HD
ENDBRANCH  33  34
ENDBRANCH  27  28
ENDBRANCH   2  26
TORSDOF 8
ENDMDL
MODEL 7
REMARK VINA RESULT:      -8.5      3.892      7.736
REMARK  Name = 
REMARK  8 active torsions:
REMARK  status: ('A' for Active; 'I' for Inactive)
REMARK    1  A    between atoms: N_3  and  N_4
REMARK    2  A    between atoms: C_5  and  C_6
REMARK    3  A    between atoms: C_5  and  C_15
REMARK    4  A    between atoms: C_7  and  C_8
REMARK    5  A    between atoms: C_13  and  O_14
REMARK    6  A    between atoms: C_17  and  O_18
REMARK    7  A    between atoms: C_21  and  O_22
REMARK    8  A    between atoms: N_23  and  C_24
REMARK                            x       y       z     vdW  Elec       q    Type
REMARK                         _______ _______ _______ _____ _____    ______ ____
ROOT
ATOM      1  N   UNL     1       1.930   7.219  18.982  0.00  0.00    +0.000 NA
ATOM      2  C   UNL     1       2.364   6.086  18.503  0.00  0.00    +0.000 C 
ENDROOT
BRANCH   1   5
ATOM      3  O   UNL     1       2.057  10.444  17.583  0.00  0.00    +0.000 OA
ATOM      4  C   UNL     1       1.572   9.420  18.054  0.00  0.00    +0.000 C 
ATOM      5  N   UNL     1       2.401   8.384  18.452  0.00  0.00    +0.000 N 
ATOM      6  N   UNL     1       0.239   9.154  18.263  0.00  0.00    +0.000 N 
ATOM      7  H   UNL     1       3.399   8.552  18.377  0.00  0.00    +0.000 HD
ATOM      8  H   UNL     1       0.102   8.247  18.694  0.00  0.00    +0.000 HD
BRANCH   6   9
ATOM      9  C   UNL     1      -0.869   9.986  18.015  0.00  0.00    +0.000 A 
ATOM     10  C   UNL     1      -1.204  11.087  18.813  0.00  0.00    +0.000 A 
ATOM     11  C   UNL     1      -2.338  11.857  18.532  0.00  0.00    +0.000 A 
ATOM     12  C   UNL     1      -3.139  11.526  17.447  0.00  0.00    +0.000 A 
ATOM     13  F   UNL     1      -4.233  12.253  17.185  0.00  0.00    +0.000 F 
ATOM     14  C   UNL     1      -2.819  10.448  16.632  0.00  0.00    +0.000 A 
ATOM     15  C   UNL     1      -1.682   9.682  16.912  0.00  0.00    +0.000 A 
ENDBRANCH   6   9
ENDBRANCH   1   5
BRANCH   2  16
ATOM     16  C   UNL     1       1.930   4.832  19.232  0.00  0.00    +0.000 A 
ATOM     17  C   UNL     1       1.385   3.793  18.454  0.00  0.00    +0.000 A 
ATOM     18  C   UNL     1       0.988   2.598  19.051  0.00  0.00    +0.000 A 
ATOM     19  C   UNL     1       1.122   2.406  20.418  0.00  0.00    +0.000 A 
ATOM     20  C   UNL     1       1.653   3.424  21.207  0.00  0.00    +0.000 A 
ATOM     21  C   UNL     1       2.057   4.630  20.618  0.00  0.00    +0.000 A 
BRANCH  18  22
ATOM     22  O   UNL     1       0.459   1.576  18.320  0.00  0.00    +0.000 OA
ATOM     23  H   UNL     1       0.265   1.897  17.422  0.00  0.00    +0.000 HD
ENDBRANCH  18  22
BRANCH  21  24
ATOM     24  O   UNL     1       2.599   5.590  21.428  0.00  0.00    +0.000 OA
ATOM     25  H   UNL     1       3.295   5.196  21.980  0.00  0.00    +0.000 HD
ENDBRANCH  21  24
ENDBRANCH   2  16
BRANCH   2  26
ATOM     26  C   UNL     1       3.300   5.857  17.350  0.00  0.00    +0.000 C 
ATOM     27  C   UNL     1       4.260   4.918  17.356  0.00  0.00    +0.000 C 
BRANCH  27  28
ATOM     28  C   UNL     1       5.308   4.890  16.324  0.00  0.00    +0.000 A 
ATOM     29  C   UNL     1       5.014   4.234  15.119  0.00  0.00    +0.000 A 
ATOM     30  C   UNL     1       5.963   4.155  14.097  0.00  0.00    +0.000 A 
ATOM     31  C   UNL     1       7.217   4.739  14.264  0.00  0.00    +0.000 A 
ATOM     32  C   UNL     1       7.525   5.395  15.454  0.00  0.00    +0.000 A 
ATOM     33  C   UNL     1       6.575   5.467  16.482  0.00  0.00    +0.000 A 
BRANCH  33  34
ATOM     34  O   UNL     1       6.886   6.107  17.650  0.00  0.00    +0.000 OA
ATOM     35  H   UNL     1       6.942   5.448  18.362  0.00  0.00    +0.000 HD
ENDBRANCH  33  34
ENDBRANCH  27  28
ENDBRANCH   2  26
TORSDOF 8
ENDMDL
MODEL 8
REMARK VINA RESULT:      -8.5      3.911      8.003
REMARK  Name = 
REMARK  8 active torsions:
REMARK  status: ('A' for Active; 'I' for Inactive)
REMARK    1  A    between atoms: N_3  and  N_4
REMARK    2  A    between atoms: C_5  and  C_6
REMARK    3  A    between atoms: C_5  and  C_15
REMARK    4  A    between atoms: C_7  and  C_8
REMARK    5  A    between atoms: C_13  and  O_14
REMARK    6  A    between atoms: C_17  and  O_18
REMARK    7  A    between atoms: C_21  and  O_22
REMARK    8  A    between atoms: N_23  and  C_24
REMARK                            x       y       z     vdW  Elec       q    Type
REMARK                         _______ _______ _______ _____ _____    ______ ____
ROOT
ATOM      1  N   UNL     1       2.048   7.285  18.953  0.00  0.00    +0.000 NA
ATOM      2  C   UNL     1       2.510   6.168  18.462  0.00  0.00    +0.000 C 
ENDROOT
BRANCH   1   5
ATOM      3  O   UNL     1       2.223  10.666  18.000  0.00  0.00    +0.000 OA
ATOM      4  C   UNL     1       1.757   9.633  18.471  0.00  0.00    +0.000 C 
ATOM      5  N   UNL     1       2.504   8.467  18.450  0.00  0.00    +0.000 N 
ATOM      6  N   UNL     1       0.524   9.473  19.059  0.00  0.00    +0.000 N 
ATOM      7  H   UNL     1       3.446   8.543  18.081  0.00  0.00    +0.000 HD
ATOM      8  H   UNL     1       0.391   8.526  19.395  0.00  0.00    +0.000 HD
BRANCH   6   9
ATOM      9  C   UNL     1      -0.471  10.442  19.285  0.00  0.00    +0.000 A 
ATOM     10  C   UNL     1      -1.488  10.735  18.368  0.00  0.00    +0.000 A 
ATOM     11  C   UNL     1      -2.430  11.734  18.638  0.00  0.00    +0.000 A 
ATOM     12  C   UNL     1      -2.357  12.440  19.832  0.00  0.00    +0.000 A 
ATOM     13  F   UNL     1      -3.249  13.406  20.086  0.00  0.00    +0.000 F 
ATOM     14  C   UNL     1      -1.367  12.156  20.764  0.00  0.00    +0.000 A 
ATOM     15  C   UNL     1      -0.428  11.154  20.494  0.00  0.00    +0.000 A 
ENDBRANCH   6   9
ENDBRANCH   1   5
BRANCH   2  16
ATOM     16  C   UNL     1       2.090   4.894  19.164  0.00  0.00    +0.000 A 
ATOM     17  C   UNL     1       2.483   4.742  20.508  0.00  0.00    +0.000 A 
ATOM     18  C   UNL     1       2.110   3.609  21.228  0.00  0.00    +0.000 A 
ATOM     19  C   UNL     1       1.348   2.611  20.640  0.00  0.00    +0.000 A 
ATOM     20  C   UNL     1       0.955   2.738  19.309  0.00  0.00    +0.000 A 
ATOM     21  C   UNL     1       1.322   3.874  18.575  0.00  0.00    +0.000 A 
BRANCH  18  22
ATOM     22  O   UNL     1       2.476   3.438  22.530  0.00  0.00    +0.000 OA
ATOM     23  H   UNL     1       3.007   2.626  22.607  0.00  0.00    +0.000 HD
ENDBRANCH  18  22
BRANCH  21  24
ATOM     24  O   UNL     1       0.890   3.969  17.281  0.00  0.00    +0.000 OA
ATOM     25  H   UNL     1       1.596   4.344  16.728  0.00  0.00    +0.000 HD
ENDBRANCH  21  24
ENDBRANCH   2  16
BRANCH   2  26
ATOM     26  C   UNL     1       3.467   5.976  17.319  0.00  0.00    +0.000 C 
ATOM     27  C   UNL     1       4.247   4.892  17.186  0.00  0.00    +0.000 C 
BRANCH  27  28
ATOM     28  C   UNL     1       5.341   4.852  16.203  0.00  0.00    +0.000 A 
ATOM     29  C   UNL     1       5.073   4.261  14.959  0.00  0.00    +0.000 A 
ATOM     30  C   UNL     1       6.065   4.176  13.978  0.00  0.00    +0.000 A 
ATOM     31  C   UNL     1       7.336   4.689  14.228  0.00  0.00    +0.000 A 
ATOM     32  C   UNL     1       7.618   5.280  15.457  0.00  0.00    +0.000 A 
ATOM     33  C   UNL     1       6.625   5.358  16.443  0.00  0.00    +0.000 A 
BRANCH  33  34
ATOM     34  O   UNL     1       6.910   5.934  17.651  0.00  0.00    +0.000 OA
ATOM     35  H   UNL     1       7.588   5.400  18.098  0.00  0.00    +0.000 HD
ENDBRANCH  33  34
ENDBRANCH  27  28
ENDBRANCH   2  26
TORSDOF 8
ENDMDL
MODEL 9
REMARK VINA RESULT:      -8.4      3.916      8.041
REMARK  Name = 
REMARK  8 active torsions:
REMARK  status: ('A' for Active; 'I' for Inactive)
REMARK    1  A    between atoms: N_3  and  N_4
REMARK    2  A    between atoms: C_5  and  C_6
REMARK    3  A    between atoms: C_5  and  C_15
REMARK    4  A    between atoms: C_7  and  C_8
REMARK    5  A    between atoms: C_13  and  O_14
REMARK    6  A    between atoms: C_17  and  O_18
REMARK    7  A    between atoms: C_21  and  O_22
REMARK    8  A    between atoms: N_23  and  C_24
REMARK                            x       y       z     vdW  Elec       q    Type
REMARK                         _______ _______ _______ _____ _____    ______ ____
ROOT
ATOM      1  N   UNL     1       2.063   7.214  18.733  0.00  0.00    +0.000 NA
ATOM      2  C   UNL     1       2.472   6.041  18.334  0.00  0.00    +0.000 C 
ENDROOT
BRANCH   1   5
ATOM      3  O   UNL     1       2.387  10.527  17.599  0.00  0.00    +0.000 OA
ATOM      4  C   UNL     1       1.913   9.562  18.189  0.00  0.00    +0.000 C 
ATOM      5  N   UNL     1       2.536   8.327  18.104  0.00  0.00    +0.000 N 
ATOM      6  N   UNL     1       0.787   9.544  18.978  0.00  0.00    +0.000 N 
ATOM      7  H   UNL     1       3.406   8.297  17.583  0.00  0.00    +0.000 HD
ATOM      8  H   UNL     1       0.625   8.627  19.378  0.00  0.00    +0.000 HD
BRANCH   6   9
ATOM      9  C   UNL     1      -0.063  10.614  19.315  0.00  0.00    +0.000 A 
ATOM     10  C   UNL     1       0.112  11.414  20.451  0.00  0.00    +0.000 A 
ATOM     11  C   UNL     1      -0.787  12.444  20.748  0.00  0.00    +0.000 A 
ATOM     12  C   UNL     1      -1.865  12.676  19.904  0.00  0.00    +0.000 A 
ATOM     13  F   UNL     1      -2.735  13.653  20.194  0.00  0.00    +0.000 F 
ATOM     14  C   UNL     1      -2.052  11.907  18.763  0.00  0.00    +0.000 A 
ATOM     15  C   UNL     1      -1.149  10.880  18.465  0.00  0.00    +0.000 A 
ENDBRANCH   6   9
ENDBRANCH   1   5
BRANCH   2  16
ATOM     16  C   UNL     1       2.041   4.853  19.168  0.00  0.00    +0.000 A 
ATOM     17  C   UNL     1       1.642   3.694  18.475  0.00  0.00    +0.000 A 
ATOM     18  C   UNL     1       1.258   2.552  19.175  0.00  0.00    +0.000 A 
ATOM     19  C   UNL     1       1.261   2.531  20.562  0.00  0.00    +0.000 A 
ATOM     20  C   UNL     1       1.645   3.670  21.266  0.00  0.00    +0.000 A 
ATOM     21  C   UNL     1       2.035   4.824  20.574  0.00  0.00    +0.000 A 
BRANCH  18  22
ATOM     22  O   UNL     1       0.869   1.416  18.529  0.00  0.00    +0.000 OA
ATOM     23  H   UNL     1       1.557   1.165  17.888  0.00  0.00    +0.000 HD
ENDBRANCH  18  22
BRANCH  21  24
ATOM     24  O   UNL     1       2.432   5.909  21.307  0.00  0.00    +0.000 OA
ATOM     25  H   UNL     1       3.178   5.660  21.879  0.00  0.00    +0.000 HD
ENDBRANCH  21  24
ENDBRANCH   2  16
BRANCH   2  26
ATOM     26  C   UNL     1       3.378   5.711  17.181  0.00  0.00    +0.000 C 
ATOM     27  C   UNL     1       4.510   5.001  17.314  0.00  0.00    +0.000 C 
BRANCH  27  28
ATOM     28  C   UNL     1       5.490   4.913  16.221  0.00  0.00    +0.000 A 
ATOM     29  C   UNL     1       5.122   4.187  15.077  0.00  0.00    +0.000 A 
ATOM     30  C   UNL     1       6.004   4.049  14.002  0.00  0.00    +0.000 A 
ATOM     31  C   UNL     1       7.264   4.642  14.055  0.00  0.00    +0.000 A 
ATOM     32  C   UNL     1       7.645   5.366  15.182  0.00  0.00    +0.000 A 
ATOM     33  C   UNL     1       6.762   5.498  16.263  0.00  0.00    +0.000 A 
BRANCH  33  34
ATOM     34  O   UNL     1       7.145   6.205  17.370  0.00  0.00    +0.000 OA
ATOM     35  H   UNL     1       7.977   6.665  17.174  0.00  0.00    +0.000 HD
ENDBRANCH  33  34
ENDBRANCH  27  28
ENDBRANCH   2  26
TORSDOF 8
ENDMDL
