MODEL 1
REMARK VINA RESULT:      -7.4      0.000      0.000
REMARK  Name = 
REMARK  5 active torsions:
REMARK  status: ('A' for Active; 'I' for Inactive)
REMARK    1  A    between atoms: O_1  and  C_2
REMARK    2  A    between atoms: C_2  and  CA_3
REMARK    3  A    between atoms: CA_3  and  N_4
REMARK    4  A    between atoms: CA_3  and  C_15
REMARK    5  A    between atoms: N_4  and  C_5
REMARK                            x       y       z     vdW  Elec       q    Type
REMARK                         _______ _______ _______ _____ _____    ______ ____
ROOT
ATOM      1  N   UNL     1       4.821   3.519  17.960  0.00  0.00    +0.000 N 
ATOM      2  H   UNL     1       4.993   2.581  17.616  0.00  0.00    +0.000 HD
ENDROOT
BRANCH   1   3
ATOM      3  C   UNL     1       5.745   4.398  17.389  0.00  0.00    +0.000 A 
ATOM      4  N   UNL     1       6.420   5.265  18.171  0.00  0.00    +0.000 NA
ATOM      5  C   UNL     1       7.303   6.109  17.609  0.00  0.00    +0.000 A 
ATOM      6  N   UNL     1       7.643   6.192  16.321  0.00  0.00    +0.000 NA
ATOM      7  C   UNL     1       6.986   5.297  15.566  0.00  0.00    +0.000 A 
ATOM      8  S   UNL     1       7.272   5.201  13.888  0.00  0.00    +0.000 S 
ATOM      9  C   UNL     1       6.158   3.943  13.726  0.00  0.00    +0.000 A 
ATOM     10 BR   UNL     1       5.779   3.113  12.085  0.00  0.00    +0.000 Br
ATOM     11  C   UNL     1       5.560   3.585  14.906  0.00  0.00    +0.000 A 
ATOM     12  C   UNL     1       6.043   4.380  16.004  0.00  0.00    +0.000 A 
ENDBRANCH   1   3
BRANCH   1  13
ATOM     13  CA  UNL     1       3.386   3.874  17.885  0.00  0.00    +0.000 C 
BRANCH  13  14
ATOM     14  C   UNL     1       2.688   3.408  19.166  0.00  0.00    +0.000 A 
ATOM     15  C   UNL     1       1.295   3.544  19.294  0.00  0.00    +0.000 A 
ATOM     16  C   UNL     1       0.655   3.205  20.489  0.00  0.00    +0.000 A 
ATOM     17  C   UNL     1       1.393   2.719  21.567  0.00  0.00    +0.000 A 
ATOM     18  C   UNL     1       2.774   2.578  21.457  0.00  0.00    +0.000 A 
ATOM     19  C   UNL     1       3.418   2.932  20.271  0.00  0.00    +0.000 A 
ENDBRANCH  13  14
BRANCH  13  20
ATOM     20  C   UNL     1       3.156   5.407  17.771  0.00  0.00    +0.000 C 
BRANCH  20  21
ATOM     21  O   UNL     1       3.456   6.134  18.959  0.00  0.00    +0.000 OA
ATOM     22  H   UNL     1       3.096   7.033  18.819  0.00  0.00    +0.000 HD
ENDBRANCH  20  21
ENDBRANCH  13  20
ENDBRANCH   1  13
TORSDOF 5
ENDMDL
MODEL 2
REMARK VINA RESULT:      -7.4      1.540      1.995
REMARK  Name = 
REMARK  5 active torsions:
REMARK  status: ('A' for Active; 'I' for Inactive)
REMARK    1  A    between atoms: O_1  and  C_2
REMARK    2  A    between atoms: C_2  and  CA_3
REMARK    3  A    between atoms: CA_3  and  N_4
REMARK    4  A    between atoms: CA_3  and  C_15
REMARK    5  A    between atoms: N_4  and  C_5
REMARK                            x       y       z     vdW  Elec       q    Type
REMARK                         _______ _______ _______ _____ _____    ______ ____
ROOT
ATOM      1  N   UNL     1       4.803   3.252  17.899  0.00  0.00    +0.000 N 
ATOM      2  H   UNL     1       3.915   3.331  17.416  0.00  0.00    +0.000 HD
ENDROOT
BRANCH   1   3
ATOM      3  C   UNL     1       5.694   4.199  17.387  0.00  0.00    +0.000 A 
ATOM      4  N   UNL     1       6.302   5.068  18.220  0.00  0.00    +0.000 NA
ATOM      5  C   UNL     1       7.154   5.978  17.716  0.00  0.00    +0.000 A 
ATOM      6  N   UNL     1       7.522   6.129  16.442  0.00  0.00    +0.000 NA
ATOM      7  C   UNL     1       6.932   5.233  15.635  0.00  0.00    +0.000 A 
ATOM      8  S   UNL     1       7.266   5.219  13.963  0.00  0.00    +0.000 S 
ATOM      9  C   UNL     1       6.223   3.913  13.722  0.00  0.00    +0.000 A 
ATOM     10 BR   UNL     1       5.930   3.131  12.040  0.00  0.00    +0.000 Br
ATOM     11  C   UNL     1       5.615   3.478  14.870  0.00  0.00    +0.000 A 
ATOM     12  C   UNL     1       6.027   4.252  16.011  0.00  0.00    +0.000 A 
ENDBRANCH   1   3
BRANCH   1  13
ATOM     13  CA  UNL     1       4.624   3.191  19.367  0.00  0.00    +0.000 C 
BRANCH  13  14
ATOM     14  C   UNL     1       3.226   3.705  19.722  0.00  0.00    +0.000 A 
ATOM     15  C   UNL     1       3.044   5.050  20.083  0.00  0.00    +0.000 A 
ATOM     16  C   UNL     1       1.791   5.512  20.494  0.00  0.00    +0.000 A 
ATOM     17  C   UNL     1       0.703   4.642  20.541  0.00  0.00    +0.000 A 
ATOM     18  C   UNL     1       0.865   3.306  20.186  0.00  0.00    +0.000 A 
ATOM     19  C   UNL     1       2.119   2.838  19.792  0.00  0.00    +0.000 A 
ENDBRANCH  13  14
BRANCH  13  20
ATOM     20  C   UNL     1       4.733   1.744  19.922  0.00  0.00    +0.000 C 
BRANCH  20  21
ATOM     21  O   UNL     1       5.203   1.665  21.265  0.00  0.00    +0.000 OA
ATOM     22  H   UNL     1       4.419   1.450  21.809  0.00  0.00    +0.000 HD
ENDBRANCH  20  21
ENDBRANCH  13  20
ENDBRANCH   1  13
TORSDOF 5
ENDMDL
MODEL 3
REMARK VINA RESULT:      -7.4      0.073      1.082
REMARK  Name = 
REMARK  5 active torsions:
REMARK  status: ('A' for Active; 'I' for Inactive)
REMARK    1  A    between atoms: O_1  and  C_2
REMARK    2  A    between atoms: C_2  and  CA_3
REMARK    3  A    between atoms: CA_3  and  N_4
REMARK    4  A    between atoms: CA_3  and  C_15
REMARK    5  A    between atoms: N_4  and  C_5
REMARK                            x       y       z     vdW  Elec       q    Type
REMARK                         _______ _______ _______ _____ _____    ______ ____
ROOT
ATOM      1  N   UNL     1       4.795   3.565  17.976  0.00  0.00    +0.000 N 
ATOM      2  H   UNL     1       4.946   2.627  17.622  0.00  0.00    +0.000 HD
ENDROOT
BRANCH   1   3
ATOM      3  C   UNL     1       5.731   4.431  17.405  0.00  0.00    +0.000 A 
ATOM      4  N   UNL     1       6.400   5.306  18.184  0.00  0.00    +0.000 NA
ATOM      5  C   UNL     1       7.295   6.137  17.623  0.00  0.00    +0.000 A 
ATOM      6  N   UNL     1       7.654   6.199  16.339  0.00  0.00    +0.000 NA
ATOM      7  C   UNL     1       7.004   5.297  15.588  0.00  0.00    +0.000 A 
ATOM      8  S   UNL     1       7.314   5.174  13.916  0.00  0.00    +0.000 S 
ATOM      9  C   UNL     1       6.195   3.920  13.756  0.00  0.00    +0.000 A 
ATOM     10 BR   UNL     1       5.836   3.068  12.122  0.00  0.00    +0.000 Br
ATOM     11  C   UNL     1       5.579   3.583  14.932  0.00  0.00    +0.000 A 
ATOM     12  C   UNL     1       6.049   4.391  16.025  0.00  0.00    +0.000 A 
ENDBRANCH   1   3
BRANCH   1  13
ATOM     13  CA  UNL     1       3.367   3.950  17.915  0.00  0.00    +0.000 C 
BRANCH  13  14
ATOM     14  C   UNL     1       2.684   3.547  19.225  0.00  0.00    +0.000 A 
ATOM     15  C   UNL     1       3.444   3.002  20.273  0.00  0.00    +0.000 A 
ATOM     16  C   UNL     1       2.822   2.549  21.440  0.00  0.00    +0.000 A 
ATOM     17  C   UNL     1       1.438   2.642  21.580  0.00  0.00    +0.000 A 
ATOM     18  C   UNL     1       0.670   3.179  20.550  0.00  0.00    +0.000 A 
ATOM     19  C   UNL     1       1.286   3.617  19.378  0.00  0.00    +0.000 A 
ENDBRANCH  13  14
BRANCH  13  20
ATOM     20  C   UNL     1       3.168   5.481  17.748  0.00  0.00    +0.000 C 
BRANCH  20  21
ATOM     21  O   UNL     1       3.467   6.242  18.915  0.00  0.00    +0.000 OA
ATOM     22  H   UNL     1       3.367   5.626  19.668  0.00  0.00    +0.000 HD
ENDBRANCH  20  21
ENDBRANCH  13  20
ENDBRANCH   1  13
TORSDOF 5
ENDMDL
MODEL 4
REMARK VINA RESULT:      -7.3      3.605      6.870
REMARK  Name = 
REMARK  5 active torsions:
REMARK  status: ('A' for Active; 'I' for Inactive)
REMARK    1  A    between atoms: O_1  and  C_2
REMARK    2  A    between atoms: C_2  and  CA_3
REMARK    3  A    between atoms: CA_3  and  N_4
REMARK    4  A    between atoms: CA_3  and  C_15
REMARK    5  A    between atoms: N_4  and  C_5
REMARK                            x       y       z     vdW  Elec       q    Type
REMARK                         _______ _______ _______ _____ _____    ______ ____
ROOT
ATOM      1  N   UNL     1       4.666   4.375  16.325  0.00  0.00    +0.000 N 
ATOM      2  H   UNL     1       4.117   4.321  15.475  0.00  0.00    +0.000 HD
ENDROOT
BRANCH   1   3
ATOM      3  C   UNL     1       3.973   3.747  17.364  0.00  0.00    +0.000 A 
ATOM      4  N   UNL     1       4.008   2.403  17.478  0.00  0.00    +0.000 NA
ATOM      5  C   UNL     1       3.335   1.809  18.478  0.00  0.00    +0.000 A 
ATOM      6  N   UNL     1       2.623   2.398  19.441  0.00  0.00    +0.000 NA
ATOM      7  C   UNL     1       2.631   3.736  19.330  0.00  0.00    +0.000 A 
ATOM      8  S   UNL     1       1.805   4.705  20.464  0.00  0.00    +0.000 S 
ATOM      9  C   UNL     1       2.284   6.117  19.670  0.00  0.00    +0.000 A 
ATOM     10 BR   UNL     1       1.810   7.836  20.259  0.00  0.00    +0.000 Br
ATOM     11  C   UNL     1       3.053   5.887  18.560  0.00  0.00    +0.000 A 
ATOM     12  C   UNL     1       3.266   4.480  18.348  0.00  0.00    +0.000 A 
ENDBRANCH   1   3
BRANCH   1  13
ATOM     13  CA  UNL     1       6.074   3.982  16.093  0.00  0.00    +0.000 C 
BRANCH  13  14
ATOM     14  C   UNL     1       6.412   4.182  14.613  0.00  0.00    +0.000 A 
ATOM     15  C   UNL     1       5.738   3.434  13.633  0.00  0.00    +0.000 A 
ATOM     16  C   UNL     1       6.096   3.541  12.286  0.00  0.00    +0.000 A 
ATOM     17  C   UNL     1       7.123   4.401  11.900  0.00  0.00    +0.000 A 
ATOM     18  C   UNL     1       7.801   5.149  12.858  0.00  0.00    +0.000 A 
ATOM     19  C   UNL     1       7.457   5.031  14.205  0.00  0.00    +0.000 A 
ENDBRANCH  13  14
BRANCH  13  20
ATOM     20  C   UNL     1       7.077   4.842  16.910  0.00  0.00    +0.000 C 
BRANCH  20  21
ATOM     21  O   UNL     1       8.095   4.092  17.566  0.00  0.00    +0.000 OA
ATOM     22  H   UNL     1       8.170   4.472  18.464  0.00  0.00    +0.000 HD
ENDBRANCH  20  21
ENDBRANCH  13  20
ENDBRANCH   1  13
TORSDOF 5
ENDMDL
MODEL 5
REMARK VINA RESULT:      -7.2      3.459      6.616
REMARK  Name = 
REMARK  5 active torsions:
REMARK  status: ('A' for Active; 'I' for Inactive)
REMARK    1  A    between atoms: O_1  and  C_2
REMARK    2  A    between atoms: C_2  and  CA_3
REMARK    3  A    between atoms: CA_3  and  N_4
REMARK    4  A    between atoms: CA_3  and  C_15
REMARK    5  A    between atoms: N_4  and  C_5
REMARK                            x       y       z     vdW  Elec       q    Type
REMARK                         _______ _______ _______ _____ _____    ______ ____
ROOT
ATOM      1  N   UNL     1       4.659   4.336  16.207  0.00  0.00    +0.000 N 
ATOM      2  H   UNL     1       4.058   3.749  15.639  0.00  0.00    +0.000 HD
ENDROOT
BRANCH   1   3
ATOM      3  C   UNL     1       4.163   4.378  17.513  0.00  0.00    +0.000 A 
ATOM      4  N   UNL     1       4.356   3.330  18.339  0.00  0.00    +0.000 NA
ATOM      5  C   UNL     1       3.871   3.380  19.592  0.00  0.00    +0.000 A 
ATOM      6  N   UNL     1       3.216   4.390  20.170  0.00  0.00    +0.000 NA
ATOM      7  C   UNL     1       3.066   5.435  19.343  0.00  0.00    +0.000 A 
ATOM      8  S   UNL     1       2.276   6.852  19.869  0.00  0.00    +0.000 S 
ATOM      9  C   UNL     1       2.505   7.590  18.367  0.00  0.00    +0.000 A 
ATOM     10 BR   UNL     1       1.919   9.331  17.980  0.00  0.00    +0.000 Br
ATOM     11  C   UNL     1       3.161   6.797  17.462  0.00  0.00    +0.000 A 
ATOM     12  C   UNL     1       3.499   5.519  18.028  0.00  0.00    +0.000 A 
ENDBRANCH   1   3
BRANCH   1  13
ATOM     13  CA  UNL     1       6.088   3.997  16.019  0.00  0.00    +0.000 C 
BRANCH  13  14
ATOM     14  C   UNL     1       6.470   4.233  14.555  0.00  0.00    +0.000 A 
ATOM     15  C   UNL     1       5.869   3.466  13.542  0.00  0.00    +0.000 A 
ATOM     16  C   UNL     1       6.271   3.607  12.211  0.00  0.00    +0.000 A 
ATOM     17  C   UNL     1       7.267   4.521  11.872  0.00  0.00    +0.000 A 
ATOM     18  C   UNL     1       7.872   5.289  12.863  0.00  0.00    +0.000 A 
ATOM     19  C   UNL     1       7.486   5.137  14.195  0.00  0.00    +0.000 A 
ENDBRANCH  13  14
BRANCH  13  20
ATOM     20  C   UNL     1       7.029   4.881  16.883  0.00  0.00    +0.000 C 
BRANCH  20  21
ATOM     21  O   UNL     1       7.581   4.217  18.017  0.00  0.00    +0.000 OA
ATOM     22  H   UNL     1       6.920   4.313  18.731  0.00  0.00    +0.000 HD
ENDBRANCH  20  21
ENDBRANCH  13  20
ENDBRANCH   1  13
TORSDOF 5
ENDMDL
MODEL 6
REMARK VINA RESULT:      -7.2      1.585      1.958
REMARK  Name = 
REMARK  5 active torsions:
REMARK  status: ('A' for Active; 'I' for Inactive)
REMARK    1  A    between atoms: O_1  and  C_2
REMARK    2  A    between atoms: C_2  and  CA_3
REMARK    3  A    between atoms: CA_3  and  N_4
REMARK    4  A    between atoms: CA_3  and  C_15
REMARK    5  A    between atoms: N_4  and  C_5
REMARK                            x       y       z     vdW  Elec       q    Type
REMARK                         _______ _______ _______ _____ _____    ______ ____
ROOT
ATOM      1  N   UNL     1       4.606   3.379  17.724  0.00  0.00    +0.000 N 
ATOM      2  H   UNL     1       3.700   3.638  17.349  0.00  0.00    +0.000 HD
ENDROOT
BRANCH   1   3
ATOM      3  C   UNL     1       5.578   4.250  17.227  0.00  0.00    +0.000 A 
ATOM      4  N   UNL     1       6.225   5.085  18.067  0.00  0.00    +0.000 NA
ATOM      5  C   UNL     1       7.156   5.922  17.578  0.00  0.00    +0.000 A 
ATOM      6  N   UNL     1       7.571   6.026  16.314  0.00  0.00    +0.000 NA
ATOM      7  C   UNL     1       6.942   5.163  15.501  0.00  0.00    +0.000 A 
ATOM      8  S   UNL     1       7.323   5.098  13.840  0.00  0.00    +0.000 S 
ATOM      9  C   UNL     1       6.194   3.869  13.585  0.00  0.00    +0.000 A 
ATOM     10 BR   UNL     1       5.895   3.084  11.905  0.00  0.00    +0.000 Br
ATOM     11  C   UNL     1       5.522   3.498  14.720  0.00  0.00    +0.000 A 
ATOM     12  C   UNL     1       5.956   4.257  15.862  0.00  0.00    +0.000 A 
ENDBRANCH   1   3
BRANCH   1  13
ATOM     13  CA  UNL     1       4.549   3.164  19.188  0.00  0.00    +0.000 C 
BRANCH  13  14
ATOM     14  C   UNL     1       3.231   3.727  19.726  0.00  0.00    +0.000 A 
ATOM     15  C   UNL     1       2.100   2.898  19.816  0.00  0.00    +0.000 A 
ATOM     16  C   UNL     1       0.868   3.419  20.221  0.00  0.00    +0.000 A 
ATOM     17  C   UNL     1       0.750   4.768  20.550  0.00  0.00    +0.000 A 
ATOM     18  C   UNL     1       1.861   5.603  20.467  0.00  0.00    +0.000 A 
ATOM     19  C   UNL     1       3.088   5.090  20.046  0.00  0.00    +0.000 A 
ENDBRANCH  13  14
BRANCH  13  20
ATOM     20  C   UNL     1       4.594   1.659  19.572  0.00  0.00    +0.000 C 
BRANCH  20  21
ATOM     21  O   UNL     1       5.412   1.367  20.701  0.00  0.00    +0.000 OA
ATOM     22  H   UNL     1       6.254   1.025  20.340  0.00  0.00    +0.000 HD
ENDBRANCH  20  21
ENDBRANCH  13  20
ENDBRANCH   1  13
TORSDOF 5
ENDMDL
MODEL 7
REMARK VINA RESULT:      -7.2      3.495      6.692
REMARK  Name = 
REMARK  5 active torsions:
REMARK  status: ('A' for Active; 'I' for Inactive)
REMARK    1  A    between atoms: O_1  and  C_2
REMARK    2  A    between atoms: C_2  and  CA_3
REMARK    3  A    between atoms: CA_3  and  N_4
REMARK    4  A    between atoms: CA_3  and  C_15
REMARK    5  A    between atoms: N_4  and  C_5
REMARK                            x       y       z     vdW  Elec       q    Type
REMARK                         _______ _______ _______ _____ _____    ______ ____
ROOT
ATOM      1  N   UNL     1       4.820   4.825  16.233  0.00  0.00    +0.000 N 
ATOM      2  H   UNL     1       4.140   4.518  15.546  0.00  0.00    +0.000 HD
ENDROOT
BRANCH   1   3
ATOM      3  C   UNL     1       4.237   4.806  17.502  0.00  0.00    +0.000 A 
ATOM      4  N   UNL     1       4.396   3.729  18.299  0.00  0.00    +0.000 NA
ATOM      5  C   UNL     1       3.827   3.720  19.517  0.00  0.00    +0.000 A 
ATOM      6  N   UNL     1       3.114   4.693  20.088  0.00  0.00    +0.000 NA
ATOM      7  C   UNL     1       2.998   5.769  19.294  0.00  0.00    +0.000 A 
ATOM      8  S   UNL     1       2.146   7.149  19.820  0.00  0.00    +0.000 S 
ATOM      9  C   UNL     1       2.459   7.950  18.368  0.00  0.00    +0.000 A 
ATOM     10 BR   UNL     1       1.865   9.695  18.009  0.00  0.00    +0.000 Br
ATOM     11  C   UNL     1       3.191   7.207  17.479  0.00  0.00    +0.000 A 
ATOM     12  C   UNL     1       3.517   5.913  18.016  0.00  0.00    +0.000 A 
ENDBRANCH   1   3
BRANCH   1  13
ATOM     13  CA  UNL     1       6.121   4.140  16.056  0.00  0.00    +0.000 C 
BRANCH  13  14
ATOM     14  C   UNL     1       6.514   4.186  14.577  0.00  0.00    +0.000 A 
ATOM     15  C   UNL     1       7.483   5.102  14.137  0.00  0.00    +0.000 A 
ATOM     16  C   UNL     1       7.788   5.216  12.778  0.00  0.00    +0.000 A 
ATOM     17  C   UNL     1       7.139   4.412  11.843  0.00  0.00    +0.000 A 
ATOM     18  C   UNL     1       6.175   3.499  12.262  0.00  0.00    +0.000 A 
ATOM     19  C   UNL     1       5.856   3.395  13.616  0.00  0.00    +0.000 A 
ENDBRANCH  13  14
BRANCH  13  20
ATOM     20  C   UNL     1       7.267   4.821  16.854  0.00  0.00    +0.000 C 
BRANCH  20  21
ATOM     21  O   UNL     1       7.497   4.260  18.144  0.00  0.00    +0.000 OA
ATOM     22  H   UNL     1       8.423   4.482  18.369  0.00  0.00    +0.000 HD
ENDBRANCH  20  21
ENDBRANCH  13  20
ENDBRANCH   1  13
TORSDOF 5
ENDMDL
MODEL 8
REMARK VINA RESULT:      -7.2      3.461      6.427
REMARK  Name = 
REMARK  5 active torsions:
REMARK  status: ('A' for Active; 'I' for Inactive)
REMARK    1  A    between atoms: O_1  and  C_2
REMARK    2  A    between atoms: C_2  and  CA_3
REMARK    3  A    between atoms: CA_3  and  N_4
REMARK    4  A    between atoms: CA_3  and  C_15
REMARK    5  A    between atoms: N_4  and  C_5
REMARK                            x       y       z     vdW  Elec       q    Type
REMARK                         _______ _______ _______ _____ _____    ______ ____
ROOT
ATOM      1  N   UNL     1       6.157   5.350  14.436  0.00  0.00    +0.000 N 
ATOM      2  H   UNL     1       5.203   5.059  14.256  0.00  0.00    +0.000 HD
ENDROOT
BRANCH   1   3
ATOM      3  C   UNL     1       6.378   5.384  15.815  0.00  0.00    +0.000 A 
ATOM      4  N   UNL     1       7.385   6.129  16.316  0.00  0.00    +0.000 NA
ATOM      5  C   UNL     1       7.590   6.152  17.644  0.00  0.00    +0.000 A 
ATOM      6  N   UNL     1       6.880   5.530  18.588  0.00  0.00    +0.000 NA
ATOM      7  C   UNL     1       5.863   4.823  18.071  0.00  0.00    +0.000 A 
ATOM      8  S   UNL     1       4.802   3.959  19.089  0.00  0.00    +0.000 S 
ATOM      9  C   UNL     1       3.905   3.416  17.765  0.00  0.00    +0.000 A 
ATOM     10 BR   UNL     1       2.397   2.310  17.932  0.00  0.00    +0.000 Br
ATOM     11  C   UNL     1       4.381   3.863  16.560  0.00  0.00    +0.000 A 
ATOM     12  C   UNL     1       5.540   4.697  16.728  0.00  0.00    +0.000 A 
ENDBRANCH   1   3
BRANCH   1  13
ATOM     13  CA  UNL     1       7.123   4.604  13.598  0.00  0.00    +0.000 C 
BRANCH  13  14
ATOM     14  C   UNL     1       6.353   3.706  12.626  0.00  0.00    +0.000 A 
ATOM     15  C   UNL     1       4.983   3.925  12.404  0.00  0.00    +0.000 A 
ATOM     16  C   UNL     1       4.247   3.061  11.589  0.00  0.00    +0.000 A 
ATOM     17  C   UNL     1       4.870   1.974  10.977  0.00  0.00    +0.000 A 
ATOM     18  C   UNL     1       6.226   1.742  11.186  0.00  0.00    +0.000 A 
ATOM     19  C   UNL     1       6.959   2.593  12.013  0.00  0.00    +0.000 A 
ENDBRANCH  13  14
BRANCH  13  20
ATOM     20  C   UNL     1       8.019   5.541  12.741  0.00  0.00    +0.000 C 
BRANCH  20  21
ATOM     21  O   UNL     1       9.133   6.088  13.440  0.00  0.00    +0.000 OA
ATOM     22  H   UNL     1       9.319   5.467  14.173  0.00  0.00    +0.000 HD
ENDBRANCH  20  21
ENDBRANCH  13  20
ENDBRANCH   1  13
TORSDOF 5
ENDMDL
MODEL 9
REMARK VINA RESULT:      -7.1      1.461      1.604
REMARK  Name = 
REMARK  5 active torsions:
REMARK  status: ('A' for Active; 'I' for Inactive)
REMARK    1  A    between atoms: O_1  and  C_2
REMARK    2  A    between atoms: C_2  and  CA_3
REMARK    3  A    between atoms: CA_3  and  N_4
REMARK    4  A    between atoms: CA_3  and  C_15
REMARK    5  A    between atoms: N_4  and  C_5
REMARK                            x       y       z     vdW  Elec       q    Type
REMARK                         _______ _______ _______ _____ _____    ______ ____
ROOT
ATOM      1  N   UNL     1       4.037   4.365  17.623  0.00  0.00    +0.000 N 
ATOM      2  H   UNL     1       3.467   5.050  18.105  0.00  0.00    +0.000 HD
ENDROOT
BRANCH   1   3
ATOM      3  C   UNL     1       5.198   4.981  17.148  0.00  0.00    +0.000 A 
ATOM      4  N   UNL     1       5.903   5.798  17.956  0.00  0.00    +0.000 NA
ATOM      5  C   UNL     1       7.016   6.389  17.488  0.00  0.00    +0.000 A 
ATOM      6  N   UNL     1       7.564   6.248  16.278  0.00  0.00    +0.000 NA
ATOM      7  C   UNL     1       6.866   5.404  15.502  0.00  0.00    +0.000 A 
ATOM      8  S   UNL     1       7.387   5.050  13.918  0.00  0.00    +0.000 S 
ATOM      9  C   UNL     1       6.081   4.009  13.674  0.00  0.00    +0.000 A 
ATOM     10 BR   UNL     1       5.804   3.068  12.073  0.00  0.00    +0.000 Br
ATOM     11  C   UNL     1       5.245   3.916  14.755  0.00  0.00    +0.000 A 
ATOM     12  C   UNL     1       5.700   4.737  15.845  0.00  0.00    +0.000 A 
ENDBRANCH   1   3
BRANCH   1  13
ATOM     13  CA  UNL     1       4.186   3.122  18.414  0.00  0.00    +0.000 C 
BRANCH  13  14
ATOM     14  C   UNL     1       3.083   3.071  19.476  0.00  0.00    +0.000 A 
ATOM     15  C   UNL     1       1.786   3.510  19.161  0.00  0.00    +0.000 A 
ATOM     16  C   UNL     1       0.793   3.551  20.143  0.00  0.00    +0.000 A 
ATOM     17  C   UNL     1       1.077   3.147  21.447  0.00  0.00    +0.000 A 
ATOM     18  C   UNL     1       2.357   2.709  21.775  0.00  0.00    +0.000 A 
ATOM     19  C   UNL     1       3.355   2.683  20.801  0.00  0.00    +0.000 A 
ENDBRANCH  13  14
BRANCH  13  20
ATOM     20  C   UNL     1       4.044   1.841  17.547  0.00  0.00    +0.000 C 
BRANCH  20  21
ATOM     21  O   UNL     1       4.031   0.627  18.292  0.00  0.00    +0.000 OA
ATOM     22  H   UNL     1       3.984  -0.092  17.630  0.00  0.00    +0.000 HD
ENDBRANCH  20  21
ENDBRANCH  13  20
ENDBRANCH   1  13
TORSDOF 5
ENDMDL
