MODEL 1
REMARK VINA RESULT:      -7.1      0.000      0.000
REMARK  Name = 
REMARK  6 active torsions:
REMARK  status: ('A' for Active; 'I' for Inactive)
REMARK    1  A    between atoms: C_1  and  S_2
REMARK    2  A    between atoms: S_2  and  N_5
REMARK    3  A    between atoms: N_5  and  C_6
REMARK    4  A    between atoms: N_5  and  C_17
REMARK    5  A    between atoms: C_6  and  C_7
REMARK    6  A    between atoms: N_9  and  C_10
REMARK                            x       y       z     vdW  Elec       q    Type
REMARK                         _______ _______ _______ _____ _____    ______ ____
ROOT
ATOM      1  N   UNL     1       3.388   4.320  19.162  0.00  0.00    +0.000 N 
ENDROOT
BRANCH   1   2
ATOM      2  C   UNL     1       4.482   5.084  18.613  0.00  0.00    +0.000 A 
ATOM      3  C   UNL     1       5.722   5.002  19.251  0.00  0.00    +0.000 A 
ATOM      4  C   UNL     1       6.791   5.785  18.811  0.00  0.00    +0.000 A 
ATOM      5  C   UNL     1       6.616   6.653  17.736  0.00  0.00    +0.000 A 
ATOM      6 CL   UNL     1       7.930   7.631  17.206  0.00  0.00    +0.000 Cl
ATOM      7  C   UNL     1       5.380   6.746  17.096  0.00  0.00    +0.000 A 
ATOM      8  C   UNL     1       4.308   5.963  17.537  0.00  0.00    +0.000 A 
ENDBRANCH   1   2
BRANCH   1  10
ATOM      9  C   UNL     1       1.907   1.968  18.994  0.00  0.00    +0.000 C 
ATOM     10  S   UNL     1       3.548   2.646  18.851  0.00  0.00    +0.000 S 
ATOM     11  O   UNL     1       4.358   2.088  19.916  0.00  0.00    +0.000 OA
ATOM     12  O   UNL     1       3.931   2.471  17.464  0.00  0.00    +0.000 OA
ENDBRANCH   1  10
BRANCH   1  13
ATOM     13  C   UNL     1       2.965   4.727  20.535  0.00  0.00    +0.000 C 
BRANCH  13  14
ATOM     14  C   UNL     1       1.871   5.788  20.539  0.00  0.00    +0.000 C 
ATOM     15  O   UNL     1       0.678   5.500  20.483  0.00  0.00    +0.000 OA
ATOM     16  N   UNL     1       2.344   7.092  20.552  0.00  0.00    +0.000 N 
ATOM     17  H   UNL     1       3.238   7.261  20.103  0.00  0.00    +0.000 HD
BRANCH  16  18
ATOM     18  C   UNL     1       1.475   8.213  20.615  0.00  0.00    +0.000 A 
ATOM     19  C   UNL     1       0.908   8.623  21.828  0.00  0.00    +0.000 A 
ATOM     20  C   UNL     1       0.059   9.732  21.875  0.00  0.00    +0.000 A 
ATOM     21  C   UNL     1      -0.244  10.432  20.709  0.00  0.00    +0.000 A 
ATOM     22  C   UNL     1       0.318  10.037  19.496  0.00  0.00    +0.000 A 
ATOM     23  C   UNL     1       1.190   8.945  19.452  0.00  0.00    +0.000 A 
ATOM     24 CL   UNL     1       1.836   8.465  17.921  0.00  0.00    +0.000 Cl
ENDBRANCH  16  18
ENDBRANCH  13  14
ENDBRANCH   1  13
TORSDOF 5
ENDMDL
MODEL 2
REMARK VINA RESULT:      -6.9      1.652      1.678
REMARK  Name = 
REMARK  6 active torsions:
REMARK  status: ('A' for Active; 'I' for Inactive)
REMARK    1  A    between atoms: C_1  and  S_2
REMARK    2  A    between atoms: S_2  and  N_5
REMARK    3  A    between atoms: N_5  and  C_6
REMARK    4  A    between atoms: N_5  and  C_17
REMARK    5  A    between atoms: C_6  and  C_7
REMARK    6  A    between atoms: N_9  and  C_10
REMARK                            x       y       z     vdW  Elec       q    Type
REMARK                         _______ _______ _______ _____ _____    ______ ____
ROOT
ATOM      1  N   UNL     1       3.822   4.048  18.538  0.00  0.00    +0.000 N 
ENDROOT
BRANCH   1   2
ATOM      2  C   UNL     1       4.751   4.206  17.445  0.00  0.00    +0.000 A 
ATOM      3  C   UNL     1       6.091   4.449  17.756  0.00  0.00    +0.000 A 
ATOM      4  C   UNL     1       7.015   4.692  16.737  0.00  0.00    +0.000 A 
ATOM      5  C   UNL     1       6.595   4.696  15.409  0.00  0.00    +0.000 A 
ATOM      6 CL   UNL     1       7.731   5.013  14.156  0.00  0.00    +0.000 Cl
ATOM      7  C   UNL     1       5.258   4.459  15.089  0.00  0.00    +0.000 A 
ATOM      8  C   UNL     1       4.332   4.218  16.109  0.00  0.00    +0.000 A 
ENDBRANCH   1   2
BRANCH   1  10
ATOM      9  C   UNL     1       2.304   2.305  20.089  0.00  0.00    +0.000 C 
ATOM     10  S   UNL     1       3.812   2.454  19.154  0.00  0.00    +0.000 S 
ATOM     11  O   UNL     1       4.925   2.342  20.076  0.00  0.00    +0.000 OA
ATOM     12  O   UNL     1       3.681   1.533  18.041  0.00  0.00    +0.000 OA
ENDBRANCH   1  10
BRANCH   1  13
ATOM     13  C   UNL     1       3.822   5.167  19.527  0.00  0.00    +0.000 C 
BRANCH  13  14
ATOM     14  C   UNL     1       2.597   6.067  19.420  0.00  0.00    +0.000 C 
ATOM     15  O   UNL     1       1.638   5.788  18.706  0.00  0.00    +0.000 OA
ATOM     16  N   UNL     1       2.692   7.244  20.148  0.00  0.00    +0.000 N 
ATOM     17  H   UNL     1       3.621   7.633  20.274  0.00  0.00    +0.000 HD
BRANCH  16  18
ATOM     18  C   UNL     1       1.628   8.182  20.216  0.00  0.00    +0.000 A 
ATOM     19  C   UNL     1       0.812   8.270  21.351  0.00  0.00    +0.000 A 
ATOM     20  C   UNL     1      -0.229   9.201  21.406  0.00  0.00    +0.000 A 
ATOM     21  C   UNL     1      -0.473  10.043  20.323  0.00  0.00    +0.000 A 
ATOM     22  C   UNL     1       0.336   9.969  19.189  0.00  0.00    +0.000 A 
ATOM     23  C   UNL     1       1.394   9.057  19.144  0.00  0.00    +0.000 A 
ATOM     24 CL   UNL     1       2.351   8.971  17.706  0.00  0.00    +0.000 Cl
ENDBRANCH  16  18
ENDBRANCH  13  14
ENDBRANCH   1  13
TORSDOF 5
ENDMDL
MODEL 3
REMARK VINA RESULT:      -6.9      1.474      1.515
REMARK  Name = 
REMARK  6 active torsions:
REMARK  status: ('A' for Active; 'I' for Inactive)
REMARK    1  A    between atoms: C_1  and  S_2
REMARK    2  A    between atoms: S_2  and  N_5
REMARK    3  A    between atoms: N_5  and  C_6
REMARK    4  A    between atoms: N_5  and  C_17
REMARK    5  A    between atoms: C_6  and  C_7
REMARK    6  A    between atoms: N_9  and  C_10
REMARK                            x       y       z     vdW  Elec       q    Type
REMARK                         _______ _______ _______ _____ _____    ______ ____
ROOT
ATOM      1  N   UNL     1       2.887   4.100  19.170  0.00  0.00    +0.000 N 
ENDROOT
BRANCH   1   2
ATOM      2  C   UNL     1       3.982   4.186  18.233  0.00  0.00    +0.000 A 
ATOM      3  C   UNL     1       5.217   4.631  18.710  0.00  0.00    +0.000 A 
ATOM      4  C   UNL     1       6.286   4.812  17.829  0.00  0.00    +0.000 A 
ATOM      5  C   UNL     1       6.115   4.551  16.472  0.00  0.00    +0.000 A 
ATOM      6 CL   UNL     1       7.427   4.792  15.385  0.00  0.00    +0.000 Cl
ATOM      7  C   UNL     1       4.884   4.111  15.985  0.00  0.00    +0.000 A 
ATOM      8  C   UNL     1       3.812   3.932  16.866  0.00  0.00    +0.000 A 
ENDBRANCH   1   2
BRANCH   1  10
ATOM      9  C   UNL     1       1.832   2.413  21.117  0.00  0.00    +0.000 C 
ATOM     10  S   UNL     1       2.379   2.487  19.423  0.00  0.00    +0.000 S 
ATOM     11  O   UNL     1       3.549   1.642  19.292  0.00  0.00    +0.000 OA
ATOM     12  O   UNL     1       1.200   2.244  18.615  0.00  0.00    +0.000 OA
ENDBRANCH   1  10
BRANCH   1  13
ATOM     13  C   UNL     1       3.020   4.975  20.371  0.00  0.00    +0.000 C 
BRANCH  13  14
ATOM     14  C   UNL     1       1.894   5.995  20.502  0.00  0.00    +0.000 C 
ATOM     15  O   UNL     1       0.713   5.664  20.560  0.00  0.00    +0.000 OA
ATOM     16  N   UNL     1       2.320   7.315  20.489  0.00  0.00    +0.000 N 
ATOM     17  H   UNL     1       3.158   7.523  19.955  0.00  0.00    +0.000 HD
BRANCH  16  18
ATOM     18  C   UNL     1       1.423   8.403  20.656  0.00  0.00    +0.000 A 
ATOM     19  C   UNL     1       0.905   8.728  21.916  0.00  0.00    +0.000 A 
ATOM     20  C   UNL     1       0.026   9.804  22.066  0.00  0.00    +0.000 A 
ATOM     21  C   UNL     1      -0.355  10.556  20.957  0.00  0.00    +0.000 A 
ATOM     22  C   UNL     1       0.157  10.246  19.698  0.00  0.00    +0.000 A 
ATOM     23  C   UNL     1       1.057   9.187  19.551  0.00  0.00    +0.000 A 
ATOM     24 CL   UNL     1       1.640   8.812  17.967  0.00  0.00    +0.000 Cl
ENDBRANCH  16  18
ENDBRANCH  13  14
ENDBRANCH   1  13
TORSDOF 5
ENDMDL
MODEL 4
REMARK VINA RESULT:      -6.8      3.850      5.136
REMARK  Name = 
REMARK  6 active torsions:
REMARK  status: ('A' for Active; 'I' for Inactive)
REMARK    1  A    between atoms: C_1  and  S_2
REMARK    2  A    between atoms: S_2  and  N_5
REMARK    3  A    between atoms: N_5  and  C_6
REMARK    4  A    between atoms: N_5  and  C_17
REMARK    5  A    between atoms: C_6  and  C_7
REMARK    6  A    between atoms: N_9  and  C_10
REMARK                            x       y       z     vdW  Elec       q    Type
REMARK                         _______ _______ _______ _____ _____    ______ ____
ROOT
ATOM      1  N   UNL     1       5.901   5.219  17.173  0.00  0.00    +0.000 N 
ENDROOT
BRANCH   1   2
ATOM      2  C   UNL     1       6.182   4.968  15.779  0.00  0.00    +0.000 A 
ATOM      3  C   UNL     1       5.376   4.048  15.105  0.00  0.00    +0.000 A 
ATOM      4  C   UNL     1       5.657   3.707  13.780  0.00  0.00    +0.000 A 
ATOM      5  C   UNL     1       6.747   4.285  13.133  0.00  0.00    +0.000 A 
ATOM      6 CL   UNL     1       7.103   3.851  11.507  0.00  0.00    +0.000 Cl
ATOM      7  C   UNL     1       7.561   5.202  13.801  0.00  0.00    +0.000 A 
ATOM      8  C   UNL     1       7.281   5.542  15.128  0.00  0.00    +0.000 A 
ENDBRANCH   1   2
BRANCH   1  10
ATOM      9  C   UNL     1       7.908   6.894  18.131  0.00  0.00    +0.000 C 
ATOM     10  S   UNL     1       7.318   5.213  18.130  0.00  0.00    +0.000 S 
ATOM     11  O   UNL     1       8.297   4.395  17.442  0.00  0.00    +0.000 OA
ATOM     12  O   UNL     1       6.945   4.922  19.500  0.00  0.00    +0.000 OA
ENDBRANCH   1  10
BRANCH   1  13
ATOM     13  C   UNL     1       4.905   6.302  17.426  0.00  0.00    +0.000 C 
BRANCH  13  14
ATOM     14  C   UNL     1       3.811   5.898  18.407  0.00  0.00    +0.000 C 
ATOM     15  O   UNL     1       3.020   6.711  18.878  0.00  0.00    +0.000 OA
ATOM     16  N   UNL     1       3.831   4.557  18.759  0.00  0.00    +0.000 N 
ATOM     17  H   UNL     1       4.735   4.095  18.760  0.00  0.00    +0.000 HD
BRANCH  16  18
ATOM     18  C   UNL     1       2.856   3.983  19.617  0.00  0.00    +0.000 A 
ATOM     19  C   UNL     1       3.148   3.702  20.958  0.00  0.00    +0.000 A 
ATOM     20  C   UNL     1       2.177   3.141  21.793  0.00  0.00    +0.000 A 
ATOM     21  C   UNL     1       0.912   2.843  21.293  0.00  0.00    +0.000 A 
ATOM     22  C   UNL     1       0.607   3.122  19.961  0.00  0.00    +0.000 A 
ATOM     23  C   UNL     1       1.568   3.708  19.132  0.00  0.00    +0.000 A 
ATOM     24 CL   UNL     1       1.163   4.005  17.478  0.00  0.00    +0.000 Cl
ENDBRANCH  16  18
ENDBRANCH  13  14
ENDBRANCH   1  13
TORSDOF 5
ENDMDL
MODEL 5
REMARK VINA RESULT:      -6.7      3.522      4.831
REMARK  Name = 
REMARK  6 active torsions:
REMARK  status: ('A' for Active; 'I' for Inactive)
REMARK    1  A    between atoms: C_1  and  S_2
REMARK    2  A    between atoms: S_2  and  N_5
REMARK    3  A    between atoms: N_5  and  C_6
REMARK    4  A    between atoms: N_5  and  C_17
REMARK    5  A    between atoms: C_6  and  C_7
REMARK    6  A    between atoms: N_9  and  C_10
REMARK                            x       y       z     vdW  Elec       q    Type
REMARK                         _______ _______ _______ _____ _____    ______ ____
ROOT
ATOM      1  N   UNL     1       6.374   5.608  17.132  0.00  0.00    +0.000 N 
ENDROOT
BRANCH   1   2
ATOM      2  C   UNL     1       7.142   6.744  17.583  0.00  0.00    +0.000 A 
ATOM      3  C   UNL     1       8.000   6.564  18.669  0.00  0.00    +0.000 A 
ATOM      4  C   UNL     1       8.702   7.650  19.198  0.00  0.00    +0.000 A 
ATOM      5  C   UNL     1       8.539   8.916  18.640  0.00  0.00    +0.000 A 
ATOM      6 CL   UNL     1       9.390  10.256  19.303  0.00  0.00    +0.000 Cl
ATOM      7  C   UNL     1       7.680   9.106  17.557  0.00  0.00    +0.000 A 
ATOM      8  C   UNL     1       6.976   8.020  17.029  0.00  0.00    +0.000 A 
ENDBRANCH   1   2
BRANCH   1  10
ATOM      9  C   UNL     1       5.839   3.804  15.080  0.00  0.00    +0.000 C 
ATOM     10  S   UNL     1       6.363   5.470  15.428  0.00  0.00    +0.000 S 
ATOM     11  O   UNL     1       7.733   5.614  14.976  0.00  0.00    +0.000 OA
ATOM     12  O   UNL     1       5.320   6.332  14.904  0.00  0.00    +0.000 OA
ENDBRANCH   1  10
BRANCH   1  13
ATOM     13  C   UNL     1       6.584   4.358  17.920  0.00  0.00    +0.000 C 
BRANCH  13  14
ATOM     14  C   UNL     1       5.370   3.959  18.752  0.00  0.00    +0.000 C 
ATOM     15  O   UNL     1       5.449   3.174  19.693  0.00  0.00    +0.000 OA
ATOM     16  N   UNL     1       4.175   4.511  18.315  0.00  0.00    +0.000 N 
ATOM     17  H   UNL     1       4.093   4.700  17.320  0.00  0.00    +0.000 HD
BRANCH  16  18
ATOM     18  C   UNL     1       2.947   4.300  18.995  0.00  0.00    +0.000 A 
ATOM     19  C   UNL     1       2.510   5.184  19.990  0.00  0.00    +0.000 A 
ATOM     20  C   UNL     1       1.296   4.966  20.649  0.00  0.00    +0.000 A 
ATOM     21  C   UNL     1       0.517   3.856  20.331  0.00  0.00    +0.000 A 
ATOM     22  C   UNL     1       0.939   2.971  19.339  0.00  0.00    +0.000 A 
ATOM     23  C   UNL     1       2.139   3.203  18.660  0.00  0.00    +0.000 A 
ATOM     24 CL   UNL     1       2.645   2.063  17.463  0.00  0.00    +0.000 Cl
ENDBRANCH  16  18
ENDBRANCH  13  14
ENDBRANCH   1  13
TORSDOF 5
ENDMDL
MODEL 6
REMARK VINA RESULT:      -6.7      1.355      1.691
REMARK  Name = 
REMARK  6 active torsions:
REMARK  status: ('A' for Active; 'I' for Inactive)
REMARK    1  A    between atoms: C_1  and  S_2
REMARK    2  A    between atoms: S_2  and  N_5
REMARK    3  A    between atoms: N_5  and  C_6
REMARK    4  A    between atoms: N_5  and  C_17
REMARK    5  A    between atoms: C_6  and  C_7
REMARK    6  A    between atoms: N_9  and  C_10
REMARK                            x       y       z     vdW  Elec       q    Type
REMARK                         _______ _______ _______ _____ _____    ______ ____
ROOT
ATOM      1  N   UNL     1       2.969   4.148  19.279  0.00  0.00    +0.000 N 
ENDROOT
BRANCH   1   2
ATOM      2  C   UNL     1       4.047   4.335  18.337  0.00  0.00    +0.000 A 
ATOM      3  C   UNL     1       3.754   4.217  16.977  0.00  0.00    +0.000 A 
ATOM      4  C   UNL     1       4.776   4.305  16.029  0.00  0.00    +0.000 A 
ATOM      5  C   UNL     1       6.090   4.507  16.444  0.00  0.00    +0.000 A 
ATOM      6 CL   UNL     1       7.350   4.597  15.276  0.00  0.00    +0.000 Cl
ATOM      7  C   UNL     1       6.392   4.621  17.802  0.00  0.00    +0.000 A 
ATOM      8  C   UNL     1       5.371   4.531  18.752  0.00  0.00    +0.000 A 
ENDBRANCH   1   2
BRANCH   1  10
ATOM      9  C   UNL     1       1.057   2.210  18.701  0.00  0.00    +0.000 C 
ATOM     10  S   UNL     1       2.607   2.497  19.530  0.00  0.00    +0.000 S 
ATOM     11  O   UNL     1       2.395   2.315  20.953  0.00  0.00    +0.000 OA
ATOM     12  O   UNL     1       3.590   1.698  18.823  0.00  0.00    +0.000 OA
ENDBRANCH   1  10
BRANCH   1  13
ATOM     13  C   UNL     1       3.031   5.029  20.484  0.00  0.00    +0.000 C 
BRANCH  13  14
ATOM     14  C   UNL     1       1.887   6.033  20.556  0.00  0.00    +0.000 C 
ATOM     15  O   UNL     1       0.710   5.685  20.604  0.00  0.00    +0.000 OA
ATOM     16  N   UNL     1       2.291   7.360  20.501  0.00  0.00    +0.000 N 
ATOM     17  H   UNL     1       3.136   7.562  19.976  0.00  0.00    +0.000 HD
BRANCH  16  18
ATOM     18  C   UNL     1       1.373   8.437  20.611  0.00  0.00    +0.000 A 
ATOM     19  C   UNL     1       0.800   8.778  21.843  0.00  0.00    +0.000 A 
ATOM     20  C   UNL     1      -0.098   9.845  21.937  0.00  0.00    +0.000 A 
ATOM     21  C   UNL     1      -0.444  10.570  20.799  0.00  0.00    +0.000 A 
ATOM     22  C   UNL     1       0.123  10.244  19.568  0.00  0.00    +0.000 A 
ATOM     23  C   UNL     1       1.043   9.196  19.477  0.00  0.00    +0.000 A 
ATOM     24 CL   UNL     1       1.695   8.799  17.925  0.00  0.00    +0.000 Cl
ENDBRANCH  16  18
ENDBRANCH  13  14
ENDBRANCH   1  13
TORSDOF 5
ENDMDL
MODEL 7
REMARK VINA RESULT:      -6.5      3.978      5.247
REMARK  Name = 
REMARK  6 active torsions:
REMARK  status: ('A' for Active; 'I' for Inactive)
REMARK    1  A    between atoms: C_1  and  S_2
REMARK    2  A    between atoms: S_2  and  N_5
REMARK    3  A    between atoms: N_5  and  C_6
REMARK    4  A    between atoms: N_5  and  C_17
REMARK    5  A    between atoms: C_6  and  C_7
REMARK    6  A    between atoms: N_9  and  C_10
REMARK                            x       y       z     vdW  Elec       q    Type
REMARK                         _______ _______ _______ _____ _____    ______ ____
ROOT
ATOM      1  N   UNL     1       5.881   4.891  16.791  0.00  0.00    +0.000 N 
ENDROOT
BRANCH   1   2
ATOM      2  C   UNL     1       6.255   4.623  15.423  0.00  0.00    +0.000 A 
ATOM      3  C   UNL     1       7.270   5.397  14.859  0.00  0.00    +0.000 A 
ATOM      4  C   UNL     1       7.613   5.234  13.514  0.00  0.00    +0.000 A 
ATOM      5  C   UNL     1       6.934   4.299  12.736  0.00  0.00    +0.000 A 
ATOM      6 CL   UNL     1       7.344   4.112  11.076  0.00  0.00    +0.000 Cl
ATOM      7  C   UNL     1       5.915   3.524  13.291  0.00  0.00    +0.000 A 
ATOM      8  C   UNL     1       5.570   3.688  14.636  0.00  0.00    +0.000 A 
ENDBRANCH   1   2
BRANCH   1  10
ATOM      9  C   UNL     1       7.717   6.652  17.922  0.00  0.00    +0.000 C 
ATOM     10  S   UNL     1       7.235   4.940  17.834  0.00  0.00    +0.000 S 
ATOM     11  O   UNL     1       8.303   4.206  17.186  0.00  0.00    +0.000 OA
ATOM     12  O   UNL     1       6.799   4.582  19.170  0.00  0.00    +0.000 OA
ENDBRANCH   1  10
BRANCH   1  13
ATOM     13  C   UNL     1       4.845   5.952  16.961  0.00  0.00    +0.000 C 
BRANCH  13  14
ATOM     14  C   UNL     1       3.842   5.645  18.067  0.00  0.00    +0.000 C 
ATOM     15  O   UNL     1       3.194   6.524  18.629  0.00  0.00    +0.000 OA
ATOM     16  N   UNL     1       3.776   4.304  18.418  0.00  0.00    +0.000 N 
ATOM     17  H   UNL     1       4.626   3.759  18.311  0.00  0.00    +0.000 HD
BRANCH  16  18
ATOM     18  C   UNL     1       2.862   3.818  19.389  0.00  0.00    +0.000 A 
ATOM     19  C   UNL     1       3.280   3.521  20.692  0.00  0.00    +0.000 A 
ATOM     20  C   UNL     1       2.367   3.047  21.639  0.00  0.00    +0.000 A 
ATOM     21  C   UNL     1       1.033   2.852  21.289  0.00  0.00    +0.000 A 
ATOM     22  C   UNL     1       0.603   3.149  19.996  0.00  0.00    +0.000 A 
ATOM     23  C   UNL     1       1.509   3.649  19.056  0.00  0.00    +0.000 A 
ATOM     24 CL   UNL     1       0.944   3.970  17.453  0.00  0.00    +0.000 Cl
ENDBRANCH  16  18
ENDBRANCH  13  14
ENDBRANCH   1  13
TORSDOF 5
ENDMDL
MODEL 8
REMARK VINA RESULT:      -6.5      4.523      6.660
REMARK  Name = 
REMARK  6 active torsions:
REMARK  status: ('A' for Active; 'I' for Inactive)
REMARK    1  A    between atoms: C_1  and  S_2
REMARK    2  A    between atoms: S_2  and  N_5
REMARK    3  A    between atoms: N_5  and  C_6
REMARK    4  A    between atoms: N_5  and  C_17
REMARK    5  A    between atoms: C_6  and  C_7
REMARK    6  A    between atoms: N_9  and  C_10
REMARK                            x       y       z     vdW  Elec       q    Type
REMARK                         _______ _______ _______ _____ _____    ______ ____
ROOT
ATOM      1  N   UNL     1       6.656   6.192  17.541  0.00  0.00    +0.000 N 
ENDROOT
BRANCH   1   2
ATOM      2  C   UNL     1       5.365   5.878  18.104  0.00  0.00    +0.000 A 
ATOM      3  C   UNL     1       5.316   4.959  19.155  0.00  0.00    +0.000 A 
ATOM      4  C   UNL     1       4.085   4.558  19.680  0.00  0.00    +0.000 A 
ATOM      5  C   UNL     1       2.905   5.075  19.148  0.00  0.00    +0.000 A 
ATOM      6 CL   UNL     1       1.389   4.567  19.783  0.00  0.00    +0.000 Cl
ATOM      7  C   UNL     1       2.945   5.990  18.096  0.00  0.00    +0.000 A 
ATOM      8  C   UNL     1       4.176   6.390  17.568  0.00  0.00    +0.000 A 
ENDBRANCH   1   2
BRANCH   1  10
ATOM      9  C   UNL     1       5.780   3.991  16.079  0.00  0.00    +0.000 C 
ATOM     10  S   UNL     1       7.211   4.975  16.476  0.00  0.00    +0.000 S 
ATOM     11  O   UNL     1       8.136   4.142  17.219  0.00  0.00    +0.000 OA
ATOM     12  O   UNL     1       7.618   5.603  15.234  0.00  0.00    +0.000 OA
ENDBRANCH   1  10
BRANCH   1  13
ATOM     13  C   UNL     1       6.824   7.611  17.110  0.00  0.00    +0.000 C 
BRANCH  13  14
ATOM     14  C   UNL     1       7.854   8.374  17.934  0.00  0.00    +0.000 C 
ATOM     15  O   UNL     1       8.611   7.813  18.721  0.00  0.00    +0.000 OA
ATOM     16  N   UNL     1       7.816   9.750  17.759  0.00  0.00    +0.000 N 
ATOM     17  H   UNL     1       6.915  10.160  17.533  0.00  0.00    +0.000 HD
BRANCH  16  18
ATOM     18  C   UNL     1       8.735  10.623  18.399  0.00  0.00    +0.000 A 
ATOM     19  C   UNL     1       9.642  10.145  19.353  0.00  0.00    +0.000 A 
ATOM     20  C   UNL     1      10.545  11.015  19.972  0.00  0.00    +0.000 A 
ATOM     21  C   UNL     1      10.539  12.372  19.654  0.00  0.00    +0.000 A 
ATOM     22  C   UNL     1       9.643  12.858  18.703  0.00  0.00    +0.000 A 
ATOM     23  C   UNL     1       8.759  11.985  18.063  0.00  0.00    +0.000 A 
ATOM     24 CL   UNL     1       7.640  12.635  16.916  0.00  0.00    +0.000 Cl
ENDBRANCH  16  18
ENDBRANCH  13  14
ENDBRANCH   1  13
TORSDOF 5
ENDMDL
MODEL 9
REMARK VINA RESULT:      -6.5      0.853      1.175
REMARK  Name = 
REMARK  6 active torsions:
REMARK  status: ('A' for Active; 'I' for Inactive)
REMARK    1  A    between atoms: C_1  and  S_2
REMARK    2  A    between atoms: S_2  and  N_5
REMARK    3  A    between atoms: N_5  and  C_6
REMARK    4  A    between atoms: N_5  and  C_17
REMARK    5  A    between atoms: C_6  and  C_7
REMARK    6  A    between atoms: N_9  and  C_10
REMARK                            x       y       z     vdW  Elec       q    Type
REMARK                         _______ _______ _______ _____ _____    ______ ____
ROOT
ATOM      1  N   UNL     1       3.404   4.610  18.661  0.00  0.00    +0.000 N 
ENDROOT
BRANCH   1   2
ATOM      2  C   UNL     1       4.559   5.389  18.283  0.00  0.00    +0.000 A 
ATOM      3  C   UNL     1       5.740   5.198  19.003  0.00  0.00    +0.000 A 
ATOM      4  C   UNL     1       6.861   5.986  18.733  0.00  0.00    +0.000 A 
ATOM      5  C   UNL     1       6.797   6.965  17.745  0.00  0.00    +0.000 A 
ATOM      6 CL   UNL     1       8.174   7.947  17.425  0.00  0.00    +0.000 Cl
ATOM      7  C   UNL     1       5.620   7.166  17.024  0.00  0.00    +0.000 A 
ATOM      8  C   UNL     1       4.496   6.379  17.295  0.00  0.00    +0.000 A 
ENDBRANCH   1   2
BRANCH   1  10
ATOM      9  C   UNL     1       4.593   3.128  16.626  0.00  0.00    +0.000 C 
ATOM     10  S   UNL     1       3.419   3.049  17.963  0.00  0.00    +0.000 S 
ATOM     11  O   UNL     1       2.106   2.821  17.393  0.00  0.00    +0.000 OA
ATOM     12  O   UNL     1       3.976   2.120  18.926  0.00  0.00    +0.000 OA
ENDBRANCH   1  10
BRANCH   1  13
ATOM     13  C   UNL     1       3.021   4.715  20.100  0.00  0.00    +0.000 C 
BRANCH  13  14
ATOM     14  C   UNL     1       1.947   5.765  20.363  0.00  0.00    +0.000 C 
ATOM     15  O   UNL     1       0.778   5.465  20.590  0.00  0.00    +0.000 OA
ATOM     16  N   UNL     1       2.396   7.074  20.263  0.00  0.00    +0.000 N 
ATOM     17  H   UNL     1       3.157   7.251  19.615  0.00  0.00    +0.000 HD
BRANCH  16  18
ATOM     18  C   UNL     1       1.555   8.186  20.529  0.00  0.00    +0.000 A 
ATOM     19  C   UNL     1       1.099   8.456  21.825  0.00  0.00    +0.000 A 
ATOM     20  C   UNL     1       0.276   9.558  22.073  0.00  0.00    +0.000 A 
ATOM     21  C   UNL     1      -0.112  10.391  21.026  0.00  0.00    +0.000 A 
ATOM     22  C   UNL     1       0.339  10.136  19.731  0.00  0.00    +0.000 A 
ATOM     23  C   UNL     1       1.185   9.051  19.487  0.00  0.00    +0.000 A 
ATOM     24 CL   UNL     1       1.692   8.747  17.862  0.00  0.00    +0.000 Cl
ENDBRANCH  16  18
ENDBRANCH  13  14
ENDBRANCH   1  13
TORSDOF 5
ENDMDL
