MODEL 1
REMARK VINA RESULT:      -8.1      0.000      0.000
REMARK  Name = 
REMARK  4 active torsions:
REMARK  status: ('A' for Active; 'I' for Inactive)
REMARK    1  A    between atoms: C_1  and  C_2
REMARK    2  A    between atoms: C_4  and  C_5
REMARK    3  A    between atoms: C_13  and  C_14
REMARK    4  A    between atoms: C_14  and  N_16
REMARK                            x       y       z     vdW  Elec       q    Type
REMARK                         _______ _______ _______ _____ _____    ______ ____
ROOT
ATOM      1  C   UNL     1       7.540   7.005  17.327  0.00  0.00    +0.000 C 
ATOM      2  C   UNL     1       6.405   6.094  17.095  0.00  0.00    +0.000 A 
ATOM      3  O   UNL     1       5.411   6.104  18.033  0.00  0.00    +0.000 OA
ATOM      4  C   UNL     1       4.538   5.136  17.617  0.00  0.00    +0.000 A 
ATOM      5  N   UNL     1       4.900   4.521  16.511  0.00  0.00    +0.000 NA
ATOM      6  C   UNL     1       6.080   5.153  16.134  0.00  0.00    +0.000 A 
ENDROOT
BRANCH   4   7
ATOM      7  C   UNL     1       3.387   4.899  18.476  0.00  0.00    +0.000 A 
ATOM      8  C   UNL     1       3.090   5.748  19.549  0.00  0.00    +0.000 A 
ATOM      9  C   UNL     1       1.991   5.493  20.380  0.00  0.00    +0.000 A 
ATOM     10  C   UNL     1       1.188   4.376  20.147  0.00  0.00    +0.000 A 
ATOM     11  C   UNL     1       1.476   3.533  19.075  0.00  0.00    +0.000 A 
ATOM     12 CL   UNL     1       0.498   2.145  18.797  0.00  0.00    +0.000 Cl
ATOM     13  C   UNL     1       2.556   3.794  18.237  0.00  0.00    +0.000 A 
ENDBRANCH   4   7
BRANCH   6  14
ATOM     14  C   UNL     1       6.835   4.874  14.911  0.00  0.00    +0.000 C 
ATOM     15  O   UNL     1       7.817   5.541  14.588  0.00  0.00    +0.000 OA
BRANCH  14  16
ATOM     16  N   UNL     1       6.310   3.819  14.203  0.00  0.00    +0.000 NA
ATOM     17  C   UNL     1       6.512   3.729  12.939  0.00  0.00    +0.000 C 
ATOM     18  N   UNL     1       7.226   4.534  12.118  0.00  0.00    +0.000 N 
ATOM     19  N   UNL     1       5.991   2.704  12.224  0.00  0.00    +0.000 N 
ATOM     20  H   UNL     1       7.455   5.433  12.549  0.00  0.00    +0.000 HD
ATOM     21  H   UNL     1       6.824   4.656  11.197  0.00  0.00    +0.000 HD
ATOM     22  H   UNL     1       5.723   1.923  12.816  0.00  0.00    +0.000 HD
ATOM     23  H   UNL     1       6.543   2.414  11.428  0.00  0.00    +0.000 HD
ENDBRANCH  14  16
ENDBRANCH   6  14
TORSDOF 3
ENDMDL
MODEL 2
REMARK VINA RESULT:      -8.0      3.000      6.489
REMARK  Name = 
REMARK  4 active torsions:
REMARK  status: ('A' for Active; 'I' for Inactive)
REMARK    1  A    between atoms: C_1  and  C_2
REMARK    2  A    between atoms: C_4  and  C_5
REMARK    3  A    between atoms: C_13  and  C_14
REMARK    4  A    between atoms: C_14  and  N_16
REMARK                            x       y       z     vdW  Elec       q    Type
REMARK                         _______ _______ _______ _____ _____    ______ ____
ROOT
ATOM      1  C   UNL     1       7.844   5.986  18.955  0.00  0.00    +0.000 C 
ATOM      2  C   UNL     1       7.034   5.259  17.961  0.00  0.00    +0.000 A 
ATOM      3  O   UNL     1       7.495   5.267  16.674  0.00  0.00    +0.000 OA
ATOM      4  C   UNL     1       6.539   4.594  15.964  0.00  0.00    +0.000 A 
ATOM      5  N   UNL     1       5.523   4.175  16.688  0.00  0.00    +0.000 NA
ATOM      6  C   UNL     1       5.844   4.555  17.987  0.00  0.00    +0.000 A 
ENDROOT
BRANCH   4   7
ATOM      7  C   UNL     1       6.758   4.494  14.528  0.00  0.00    +0.000 A 
ATOM      8  C   UNL     1       7.656   5.341  13.866  0.00  0.00    +0.000 A 
ATOM      9  C   UNL     1       7.838   5.245  12.480  0.00  0.00    +0.000 A 
ATOM     10  C   UNL     1       7.113   4.306  11.746  0.00  0.00    +0.000 A 
ATOM     11  C   UNL     1       6.226   3.456  12.404  0.00  0.00    +0.000 A 
ATOM     12 CL   UNL     1       5.317   2.309  11.497  0.00  0.00    +0.000 Cl
ATOM     13  C   UNL     1       6.054   3.536  13.782  0.00  0.00    +0.000 A 
ENDBRANCH   4   7
BRANCH   6  14
ATOM     14  C   UNL     1       5.053   4.243  19.179  0.00  0.00    +0.000 C 
ATOM     15  O   UNL     1       4.997   3.103  19.639  0.00  0.00    +0.000 OA
BRANCH  14  16
ATOM     16  N   UNL     1       4.405   5.346  19.680  0.00  0.00    +0.000 NA
ATOM     17  C   UNL     1       3.128   5.438  19.590  0.00  0.00    +0.000 C 
ATOM     18  N   UNL     1       2.233   4.564  19.075  0.00  0.00    +0.000 N 
ATOM     19  N   UNL     1       2.476   6.525  20.066  0.00  0.00    +0.000 N 
ATOM     20  H   UNL     1       2.674   3.837  18.507  0.00  0.00    +0.000 HD
ATOM     21  H   UNL     1       1.459   4.996  18.587  0.00  0.00    +0.000 HD
ATOM     22  H   UNL     1       3.040   7.050  20.728  0.00  0.00    +0.000 HD
ATOM     23  H   UNL     1       1.543   6.345  20.413  0.00  0.00    +0.000 HD
ENDBRANCH  14  16
ENDBRANCH   6  14
TORSDOF 3
ENDMDL
MODEL 3
REMARK VINA RESULT:      -8.0      2.802      3.627
REMARK  Name = 
REMARK  4 active torsions:
REMARK  status: ('A' for Active; 'I' for Inactive)
REMARK    1  A    between atoms: C_1  and  C_2
REMARK    2  A    between atoms: C_4  and  C_5
REMARK    3  A    between atoms: C_13  and  C_14
REMARK    4  A    between atoms: C_14  and  N_16
REMARK                            x       y       z     vdW  Elec       q    Type
REMARK                         _______ _______ _______ _____ _____    ______ ____
ROOT
ATOM      1  C   UNL     1       3.654   2.702  18.083  0.00  0.00    +0.000 C 
ATOM      2  C   UNL     1       3.943   4.142  17.960  0.00  0.00    +0.000 A 
ATOM      3  O   UNL     1       3.001   4.999  18.457  0.00  0.00    +0.000 OA
ATOM      4  C   UNL     1       3.478   6.245  18.153  0.00  0.00    +0.000 A 
ATOM      5  N   UNL     1       4.625   6.242  17.507  0.00  0.00    +0.000 NA
ATOM      6  C   UNL     1       4.964   4.897  17.411  0.00  0.00    +0.000 A 
ENDROOT
BRANCH   4   7
ATOM      7  C   UNL     1       2.631   7.366  18.535  0.00  0.00    +0.000 A 
ATOM      8  C   UNL     1       2.294   8.371  17.620  0.00  0.00    +0.000 A 
ATOM      9  C   UNL     1       1.496   9.454  18.010  0.00  0.00    +0.000 A 
ATOM     10  C   UNL     1       1.040   9.544  19.326  0.00  0.00    +0.000 A 
ATOM     11  C   UNL     1       1.367   8.541  20.237  0.00  0.00    +0.000 A 
ATOM     12 CL   UNL     1       0.821   8.660  21.865  0.00  0.00    +0.000 Cl
ATOM     13  C   UNL     1       2.145   7.454  19.848  0.00  0.00    +0.000 A 
ENDBRANCH   4   7
BRANCH   6  14
ATOM     14  C   UNL     1       6.207   4.377  16.836  0.00  0.00    +0.000 C 
ATOM     15  O   UNL     1       7.288   4.507  17.407  0.00  0.00    +0.000 OA
BRANCH  14  16
ATOM     16  N   UNL     1       6.004   3.765  15.623  0.00  0.00    +0.000 NA
ATOM     17  C   UNL     1       6.572   4.224  14.568  0.00  0.00    +0.000 C 
ATOM     18  N   UNL     1       7.421   5.269  14.429  0.00  0.00    +0.000 N 
ATOM     19  N   UNL     1       6.373   3.641  13.363  0.00  0.00    +0.000 N 
ATOM     20  H   UNL     1       7.435   5.877  15.250  0.00  0.00    +0.000 HD
ATOM     21  H   UNL     1       7.296   5.800  13.577  0.00  0.00    +0.000 HD
ATOM     22  H   UNL     1       6.015   2.695  13.451  0.00  0.00    +0.000 HD
ATOM     23  H   UNL     1       7.157   3.699  12.725  0.00  0.00    +0.000 HD
ENDBRANCH  14  16
ENDBRANCH   6  14
TORSDOF 3
ENDMDL
MODEL 4
REMARK VINA RESULT:      -7.8      3.152      4.320
REMARK  Name = 
REMARK  4 active torsions:
REMARK  status: ('A' for Active; 'I' for Inactive)
REMARK    1  A    between atoms: C_1  and  C_2
REMARK    2  A    between atoms: C_4  and  C_5
REMARK    3  A    between atoms: C_13  and  C_14
REMARK    4  A    between atoms: C_14  and  N_16
REMARK                            x       y       z     vdW  Elec       q    Type
REMARK                         _______ _______ _______ _____ _____    ______ ____
ROOT
ATOM      1  C   UNL     1       2.780   3.235  17.275  0.00  0.00    +0.000 C 
ATOM      2  C   UNL     1       3.250   4.547  17.756  0.00  0.00    +0.000 A 
ATOM      3  O   UNL     1       2.286   5.452  18.101  0.00  0.00    +0.000 OA
ATOM      4  C   UNL     1       2.981   6.581  18.437  0.00  0.00    +0.000 A 
ATOM      5  N   UNL     1       4.288   6.464  18.326  0.00  0.00    +0.000 NA
ATOM      6  C   UNL     1       4.484   5.145  17.930  0.00  0.00    +0.000 A 
ENDROOT
BRANCH   4   7
ATOM      7  C   UNL     1       2.182   7.741  18.806  0.00  0.00    +0.000 A 
ATOM      8  C   UNL     1       1.839   8.721  17.866  0.00  0.00    +0.000 A 
ATOM      9  C   UNL     1       1.088   9.841  18.244  0.00  0.00    +0.000 A 
ATOM     10  C   UNL     1       0.685   9.993  19.572  0.00  0.00    +0.000 A 
ATOM     11  C   UNL     1       1.018   9.015  20.507  0.00  0.00    +0.000 A 
ATOM     12 CL   UNL     1       0.538   9.211  22.148  0.00  0.00    +0.000 Cl
ATOM     13  C   UNL     1       1.749   7.892  20.132  0.00  0.00    +0.000 A 
ENDBRANCH   4   7
BRANCH   6  14
ATOM     14  C   UNL     1       5.787   4.503  17.748  0.00  0.00    +0.000 C 
ATOM     15  O   UNL     1       6.460   4.118  18.703  0.00  0.00    +0.000 OA
BRANCH  14  16
ATOM     16  N   UNL     1       6.140   4.405  16.423  0.00  0.00    +0.000 NA
ATOM     17  C   UNL     1       6.926   5.276  15.901  0.00  0.00    +0.000 C 
ATOM     18  N   UNL     1       7.537   6.340  16.472  0.00  0.00    +0.000 N 
ATOM     19  N   UNL     1       7.272   5.203  14.595  0.00  0.00    +0.000 N 
ATOM     20  H   UNL     1       7.146   6.576  17.386  0.00  0.00    +0.000 HD
ATOM     21  H   UNL     1       7.603   7.155  15.875  0.00  0.00    +0.000 HD
ATOM     22  H   UNL     1       7.108   4.278  14.207  0.00  0.00    +0.000 HD
ATOM     23  H   UNL     1       8.196   5.553  14.378  0.00  0.00    +0.000 HD
ENDBRANCH  14  16
ENDBRANCH   6  14
TORSDOF 3
ENDMDL
MODEL 5
REMARK VINA RESULT:      -7.8      3.089      6.202
REMARK  Name = 
REMARK  4 active torsions:
REMARK  status: ('A' for Active; 'I' for Inactive)
REMARK    1  A    between atoms: C_1  and  C_2
REMARK    2  A    between atoms: C_4  and  C_5
REMARK    3  A    between atoms: C_13  and  C_14
REMARK    4  A    between atoms: C_14  and  N_16
REMARK                            x       y       z     vdW  Elec       q    Type
REMARK                         _______ _______ _______ _____ _____    ______ ____
ROOT
ATOM      1  C   UNL     1       7.746   5.816  19.009  0.00  0.00    +0.000 C 
ATOM      2  C   UNL     1       6.907   5.197  17.967  0.00  0.00    +0.000 A 
ATOM      3  O   UNL     1       7.428   5.160  16.704  0.00  0.00    +0.000 OA
ATOM      4  C   UNL     1       6.435   4.610  15.940  0.00  0.00    +0.000 A 
ATOM      5  N   UNL     1       5.342   4.309  16.609  0.00  0.00    +0.000 NA
ATOM      6  C   UNL     1       5.641   4.639  17.927  0.00  0.00    +0.000 A 
ENDROOT
BRANCH   4   7
ATOM      7  C   UNL     1       6.711   4.495  14.515  0.00  0.00    +0.000 A 
ATOM      8  C   UNL     1       7.638   5.333  13.882  0.00  0.00    +0.000 A 
ATOM      9  C   UNL     1       7.875   5.223  12.505  0.00  0.00    +0.000 A 
ATOM     10  C   UNL     1       7.176   4.280  11.752  0.00  0.00    +0.000 A 
ATOM     11  C   UNL     1       6.260   3.439  12.381  0.00  0.00    +0.000 A 
ATOM     12 CL   UNL     1       5.384   2.288  11.450  0.00  0.00    +0.000 Cl
ATOM     13  C   UNL     1       6.034   3.533  13.751  0.00  0.00    +0.000 A 
ENDBRANCH   4   7
BRANCH   6  14
ATOM     14  C   UNL     1       4.762   4.413  19.076  0.00  0.00    +0.000 C 
ATOM     15  O   UNL     1       4.492   5.310  19.872  0.00  0.00    +0.000 OA
BRANCH  14  16
ATOM     16  N   UNL     1       4.313   3.115  19.142  0.00  0.00    +0.000 NA
ATOM     17  C   UNL     1       3.187   2.797  18.614  0.00  0.00    +0.000 C 
ATOM     18  N   UNL     1       2.307   3.563  17.929  0.00  0.00    +0.000 N 
ATOM     19  N   UNL     1       2.724   1.527  18.682  0.00  0.00    +0.000 N 
ATOM     20  H   UNL     1       2.488   4.563  18.035  0.00  0.00    +0.000 HD
ATOM     21  H   UNL     1       1.335   3.342  18.105  0.00  0.00    +0.000 HD
ATOM     22  H   UNL     1       3.462   0.862  18.896  0.00  0.00    +0.000 HD
ATOM     23  H   UNL     1       2.159   1.236  17.895  0.00  0.00    +0.000 HD
ENDBRANCH  14  16
ENDBRANCH   6  14
TORSDOF 3
ENDMDL
MODEL 6
REMARK VINA RESULT:      -7.8      3.180      6.337
REMARK  Name = 
REMARK  4 active torsions:
REMARK  status: ('A' for Active; 'I' for Inactive)
REMARK    1  A    between atoms: C_1  and  C_2
REMARK    2  A    between atoms: C_4  and  C_5
REMARK    3  A    between atoms: C_13  and  C_14
REMARK    4  A    between atoms: C_14  and  N_16
REMARK                            x       y       z     vdW  Elec       q    Type
REMARK                         _______ _______ _______ _____ _____    ______ ____
ROOT
ATOM      1  C   UNL     1       7.605   7.270  18.285  0.00  0.00    +0.000 C 
ATOM      2  C   UNL     1       6.976   6.215  17.469  0.00  0.00    +0.000 A 
ATOM      3  O   UNL     1       7.407   6.103  16.177  0.00  0.00    +0.000 OA
ATOM      4  C   UNL     1       6.625   5.117  15.640  0.00  0.00    +0.000 A 
ATOM      5  N   UNL     1       5.744   4.611  16.476  0.00  0.00    +0.000 NA
ATOM      6  C   UNL     1       5.983   5.275  17.675  0.00  0.00    +0.000 A 
ENDROOT
BRANCH   4   7
ATOM      7  C   UNL     1       6.845   4.820  14.232  0.00  0.00    +0.000 A 
ATOM      8  C   UNL     1       7.825   5.491  13.489  0.00  0.00    +0.000 A 
ATOM      9  C   UNL     1       8.008   5.208  12.129  0.00  0.00    +0.000 A 
ATOM     10  C   UNL     1       7.201   4.258  11.501  0.00  0.00    +0.000 A 
ATOM     11  C   UNL     1       6.232   3.583  12.240  0.00  0.00    +0.000 A 
ATOM     12 CL   UNL     1       5.224   2.425  11.463  0.00  0.00    +0.000 Cl
ATOM     13  C   UNL     1       6.058   3.848  13.595  0.00  0.00    +0.000 A 
ENDBRANCH   4   7
BRANCH   6  14
ATOM     14  C   UNL     1       5.302   5.003  18.942  0.00  0.00    +0.000 C 
ATOM     15  O   UNL     1       4.580   5.840  19.483  0.00  0.00    +0.000 OA
BRANCH  14  16
ATOM     16  N   UNL     1       5.579   3.746  19.425  0.00  0.00    +0.000 NA
ATOM     17  C   UNL     1       4.644   2.874  19.521  0.00  0.00    +0.000 C 
ATOM     18  N   UNL     1       3.337   2.967  19.182  0.00  0.00    +0.000 N 
ATOM     19  N   UNL     1       4.897   1.636  20.007  0.00  0.00    +0.000 N 
ATOM     20  H   UNL     1       3.039   3.931  19.021  0.00  0.00    +0.000 HD
ATOM     21  H   UNL     1       2.706   2.484  19.809  0.00  0.00    +0.000 HD
ATOM     22  H   UNL     1       5.887   1.410  19.979  0.00  0.00    +0.000 HD
ATOM     23  H   UNL     1       4.322   0.899  19.620  0.00  0.00    +0.000 HD
ENDBRANCH  14  16
ENDBRANCH   6  14
TORSDOF 3
ENDMDL
MODEL 7
REMARK VINA RESULT:      -7.7      1.478      1.665
REMARK  Name = 
REMARK  4 active torsions:
REMARK  status: ('A' for Active; 'I' for Inactive)
REMARK    1  A    between atoms: C_1  and  C_2
REMARK    2  A    between atoms: C_4  and  C_5
REMARK    3  A    between atoms: C_13  and  C_14
REMARK    4  A    between atoms: C_14  and  N_16
REMARK                            x       y       z     vdW  Elec       q    Type
REMARK                         _______ _______ _______ _____ _____    ______ ____
ROOT
ATOM      1  C   UNL     1       7.719   5.194  18.075  0.00  0.00    +0.000 C 
ATOM      2  C   UNL     1       6.431   4.745  17.513  0.00  0.00    +0.000 A 
ATOM      3  O   UNL     1       5.415   4.538  18.404  0.00  0.00    +0.000 OA
ATOM      4  C   UNL     1       4.382   4.069  17.640  0.00  0.00    +0.000 A 
ATOM      5  N   UNL     1       4.663   3.958  16.359  0.00  0.00    +0.000 NA
ATOM      6  C   UNL     1       5.966   4.431  16.249  0.00  0.00    +0.000 A 
ENDROOT
BRANCH   4   7
ATOM      7  C   UNL     1       3.164   3.715  18.356  0.00  0.00    +0.000 A 
ATOM      8  C   UNL     1       1.918   3.705  17.717  0.00  0.00    +0.000 A 
ATOM      9  C   UNL     1       0.754   3.384  18.427  0.00  0.00    +0.000 A 
ATOM     10  C   UNL     1       0.830   3.082  19.787  0.00  0.00    +0.000 A 
ATOM     11  C   UNL     1       2.069   3.084  20.424  0.00  0.00    +0.000 A 
ATOM     12 CL   UNL     1       2.162   2.731  22.106  0.00  0.00    +0.000 Cl
ATOM     13  C   UNL     1       3.230   3.385  19.719  0.00  0.00    +0.000 A 
ENDBRANCH   4   7
BRANCH   6  14
ATOM     14  C   UNL     1       6.708   4.583  14.995  0.00  0.00    +0.000 C 
ATOM     15  O   UNL     1       7.545   5.471  14.841  0.00  0.00    +0.000 OA
BRANCH  14  16
ATOM     16  N   UNL     1       6.344   3.647  14.057  0.00  0.00    +0.000 NA
ATOM     17  C   UNL     1       6.705   3.788  12.834  0.00  0.00    +0.000 C 
ATOM     18  N   UNL     1       7.458   4.756  12.262  0.00  0.00    +0.000 N 
ATOM     19  N   UNL     1       6.344   2.882  11.895  0.00  0.00    +0.000 N 
ATOM     20  H   UNL     1       7.572   5.574  12.863  0.00  0.00    +0.000 HD
ATOM     21  H   UNL     1       7.165   5.019  11.329  0.00  0.00    +0.000 HD
ATOM     22  H   UNL     1       6.059   1.998  12.307  0.00  0.00    +0.000 HD
ATOM     23  H   UNL     1       7.008   2.760  11.142  0.00  0.00    +0.000 HD
ENDBRANCH  14  16
ENDBRANCH   6  14
TORSDOF 3
ENDMDL
MODEL 8
REMARK VINA RESULT:      -7.7      3.228      6.334
REMARK  Name = 
REMARK  4 active torsions:
REMARK  status: ('A' for Active; 'I' for Inactive)
REMARK    1  A    between atoms: C_1  and  C_2
REMARK    2  A    between atoms: C_4  and  C_5
REMARK    3  A    between atoms: C_13  and  C_14
REMARK    4  A    between atoms: C_14  and  N_16
REMARK                            x       y       z     vdW  Elec       q    Type
REMARK                         _______ _______ _______ _____ _____    ______ ____
ROOT
ATOM      1  C   UNL     1       3.609   7.298  17.785  0.00  0.00    +0.000 C 
ATOM      2  C   UNL     1       4.086   6.010  17.250  0.00  0.00    +0.000 A 
ATOM      3  O   UNL     1       4.830   6.061  16.104  0.00  0.00    +0.000 OA
ATOM      4  C   UNL     1       5.075   4.751  15.796  0.00  0.00    +0.000 A 
ATOM      5  N   UNL     1       4.545   3.890  16.639  0.00  0.00    +0.000 NA
ATOM      6  C   UNL     1       3.940   4.682  17.608  0.00  0.00    +0.000 A 
ENDROOT
BRANCH   4   7
ATOM      7  C   UNL     1       5.824   4.511  14.571  0.00  0.00    +0.000 A 
ATOM      8  C   UNL     1       6.996   5.220  14.281  0.00  0.00    +0.000 A 
ATOM      9  C   UNL     1       7.693   4.991  13.087  0.00  0.00    +0.000 A 
ATOM     10  C   UNL     1       7.212   4.057  12.169  0.00  0.00    +0.000 A 
ATOM     11  C   UNL     1       6.050   3.343  12.459  0.00  0.00    +0.000 A 
ATOM     12 CL   UNL     1       5.446   2.204  11.320  0.00  0.00    +0.000 Cl
ATOM     13  C   UNL     1       5.365   3.555  13.652  0.00  0.00    +0.000 A 
ENDBRANCH   4   7
BRANCH   6  14
ATOM     14  C   UNL     1       3.276   4.182  18.814  0.00  0.00    +0.000 C 
ATOM     15  O   UNL     1       2.072   4.343  19.005  0.00  0.00    +0.000 OA
BRANCH  14  16
ATOM     16  N   UNL     1       4.150   3.550  19.667  0.00  0.00    +0.000 NA
ATOM     17  C   UNL     1       4.341   2.285  19.569  0.00  0.00    +0.000 C 
ATOM     18  N   UNL     1       3.816   1.397  18.692  0.00  0.00    +0.000 N 
ATOM     19  N   UNL     1       5.187   1.644  20.409  0.00  0.00    +0.000 N 
ATOM     20  H   UNL     1       3.013   1.772  18.184  0.00  0.00    +0.000 HD
ATOM     21  H   UNL     1       3.613   0.488  19.089  0.00  0.00    +0.000 HD
ATOM     22  H   UNL     1       5.831   2.285  20.865  0.00  0.00    +0.000 HD
ATOM     23  H   UNL     1       5.658   0.842  20.012  0.00  0.00    +0.000 HD
ENDBRANCH  14  16
ENDBRANCH   6  14
TORSDOF 3
ENDMDL
MODEL 9
REMARK VINA RESULT:      -7.6      3.892      5.125
REMARK  Name = 
REMARK  4 active torsions:
REMARK  status: ('A' for Active; 'I' for Inactive)
REMARK    1  A    between atoms: C_1  and  C_2
REMARK    2  A    between atoms: C_4  and  C_5
REMARK    3  A    between atoms: C_13  and  C_14
REMARK    4  A    between atoms: C_14  and  N_16
REMARK                            x       y       z     vdW  Elec       q    Type
REMARK                         _______ _______ _______ _____ _____    ______ ____
ROOT
ATOM      1  C   UNL     1       5.354   6.575  16.229  0.00  0.00    +0.000 C 
ATOM      2  C   UNL     1       4.418   6.501  17.367  0.00  0.00    +0.000 A 
ATOM      3  O   UNL     1       3.550   7.547  17.514  0.00  0.00    +0.000 OA
ATOM      4  C   UNL     1       2.862   7.262  18.661  0.00  0.00    +0.000 A 
ATOM      5  N   UNL     1       3.227   6.140  19.245  0.00  0.00    +0.000 NA
ATOM      6  C   UNL     1       4.199   5.611  18.403  0.00  0.00    +0.000 A 
ENDROOT
BRANCH   4   7
ATOM      7  C   UNL     1       1.885   8.254  19.086  0.00  0.00    +0.000 A 
ATOM      8  C   UNL     1       1.370   9.201  18.192  0.00  0.00    +0.000 A 
ATOM      9  C   UNL     1       0.448  10.163  18.623  0.00  0.00    +0.000 A 
ATOM     10  C   UNL     1       0.043  10.189  19.958  0.00  0.00    +0.000 A 
ATOM     11  C   UNL     1       0.548   9.243  20.848  0.00  0.00    +0.000 A 
ATOM     12 CL   UNL     1       0.065   9.287  22.499  0.00  0.00    +0.000 Cl
ATOM     13  C   UNL     1       1.451   8.276  20.420  0.00  0.00    +0.000 A 
ENDBRANCH   4   7
BRANCH   6  14
ATOM     14  C   UNL     1       4.862   4.318  18.584  0.00  0.00    +0.000 C 
ATOM     15  O   UNL     1       6.022   4.235  18.986  0.00  0.00    +0.000 OA
BRANCH  14  16
ATOM     16  N   UNL     1       4.049   3.263  18.245  0.00  0.00    +0.000 NA
ATOM     17  C   UNL     1       4.112   2.165  18.906  0.00  0.00    +0.000 C 
ATOM     18  N   UNL     1       4.875   1.843  19.976  0.00  0.00    +0.000 N 
ATOM     19  N   UNL     1       3.327   1.112  18.578  0.00  0.00    +0.000 N 
ATOM     20  H   UNL     1       5.637   2.507  20.131  0.00  0.00    +0.000 HD
ATOM     21  H   UNL     1       5.210   0.888  19.980  0.00  0.00    +0.000 HD
ATOM     22  H   UNL     1       2.534   1.390  18.008  0.00  0.00    +0.000 HD
ATOM     23  H   UNL     1       3.057   0.522  19.353  0.00  0.00    +0.000 HD
ENDBRANCH  14  16
ENDBRANCH   6  14
TORSDOF 3
ENDMDL
