MODEL 1
REMARK VINA RESULT:      -7.2      0.000      0.000
REMARK  Name = 
REMARK  10 active torsions:
REMARK  status: ('A' for Active; 'I' for Inactive)
REMARK    1  A    between atoms: C_1  and  N_2
REMARK    2  A    between atoms: N_2  and  C_3
REMARK    3  A    between atoms: C_4  and  C_6
REMARK    4  A    between atoms: C_6  and  C_7
REMARK    5  A    between atoms: N_9  and  C_10
REMARK    6  A    between atoms: C_13  and  O_14
REMARK    7  A    between atoms: O_14  and  C_15
REMARK    8  A    between atoms: C_15  and  C_16
REMARK    9  A    between atoms: C_16  and  C_17
REMARK   10  A    between atoms: N_32  and  C_33
REMARK                            x       y       z     vdW  Elec       q    Type
REMARK                         _______ _______ _______ _____ _____    ______ ____
ROOT
ATOM      1  C   UNL     1       2.316   5.955  19.789  0.00  0.00    +0.000 A 
ATOM      2  N   UNL     1       2.993   5.473  18.779  0.00  0.00    +0.000 NA
ATOM      3  N   UNL     1       3.372   6.307  17.728  0.00  0.00    +0.000 N 
ATOM      4  C   UNL     1       3.162   7.702  17.697  0.00  0.00    +0.000 A 
ATOM      5  O   UNL     1       3.616   8.466  16.843  0.00  0.00    +0.000 OA
ATOM      6  C   UNL     1       2.317   8.164  18.769  0.00  0.00    +0.000 A 
ATOM      7  C   UNL     1       1.872   7.340  19.778  0.00  0.00    +0.000 A 
ATOM      8  C   UNL     1       1.042   8.128  20.630  0.00  0.00    +0.000 A 
ATOM      9  C   UNL     1       0.259   7.869  21.777  0.00  0.00    +0.000 A 
ATOM     10  C   UNL     1      -0.399   8.919  22.432  0.00  0.00    +0.000 A 
ATOM     11  C   UNL     1      -0.297  10.217  21.951  0.00  0.00    +0.000 A 
ATOM     12 CL   UNL     1      -1.078  11.501  22.794  0.00  0.00    +0.000 Cl
ATOM     13  C   UNL     1       0.425  10.504  20.793  0.00  0.00    +0.000 A 
ATOM     14  C   UNL     1       1.078   9.442  20.138  0.00  0.00    +0.000 A 
ATOM     15  N   UNL     1       1.824   9.423  18.975  0.00  0.00    +0.000 N 
ATOM     16  C   UNL     1       2.034  10.544  18.080  0.00  0.00    +0.000 C 
ENDROOT
BRANCH   3  17
ATOM     17  C   UNL     1       4.285   5.700  16.830  0.00  0.00    +0.000 A 
ATOM     18  C   UNL     1       5.029   6.492  15.954  0.00  0.00    +0.000 A 
ATOM     19  C   UNL     1       5.918   5.908  15.055  0.00  0.00    +0.000 A 
ATOM     20  C   UNL     1       6.052   4.517  14.989  0.00  0.00    +0.000 A 
ATOM     21  C   UNL     1       5.307   3.723  15.866  0.00  0.00    +0.000 A 
ATOM     22  C   UNL     1       4.447   4.312  16.805  0.00  0.00    +0.000 A 
BRANCH  20  23
ATOM     23  O   UNL     1       6.871   3.851  14.107  0.00  0.00    +0.000 OA
BRANCH  23  24
ATOM     24  C   UNL     1       6.654   4.178  12.731  0.00  0.00    +0.000 C 
BRANCH  24  25
ATOM     25  C   UNL     1       5.946   3.046  12.000  0.00  0.00    +0.000 C 
BRANCH  25  26
ATOM     26  C   UNL     1       4.451   3.315  11.981  0.00  0.00    +0.000 C 
ATOM     27  F   UNL     1       4.097   3.764  10.747  0.00  0.00    +0.000 F 
ENDBRANCH  25  26
ENDBRANCH  24  25
ENDBRANCH  23  24
ENDBRANCH  20  23
ENDBRANCH   3  17
BRANCH   1  28
ATOM     28  C   UNL     1       2.127   5.064  20.992  0.00  0.00    +0.000 C 
BRANCH  28  32
ATOM     29  C   UNL     1       1.979   1.392  20.024  0.00  0.00    +0.000 C 
ATOM     30  N   UNL     1       2.481   2.655  20.539  0.00  0.00    +0.000 N 
ATOM     31  C   UNL     1       3.925   2.835  20.586  0.00  0.00    +0.000 C 
ATOM     32  C   UNL     1       1.567   3.702  20.669  0.00  0.00    +0.000 C 
ATOM     33  O   UNL     1       0.352   3.524  20.568  0.00  0.00    +0.000 OA
ENDBRANCH  28  32
ENDBRANCH   1  28
TORSDOF 7
ENDMDL
MODEL 2
REMARK VINA RESULT:      -7.1      3.559      6.188
REMARK  Name = 
REMARK  10 active torsions:
REMARK  status: ('A' for Active; 'I' for Inactive)
REMARK    1  A    between atoms: C_1  and  N_2
REMARK    2  A    between atoms: N_2  and  C_3
REMARK    3  A    between atoms: C_4  and  C_6
REMARK    4  A    between atoms: C_6  and  C_7
REMARK    5  A    between atoms: N_9  and  C_10
REMARK    6  A    between atoms: C_13  and  O_14
REMARK    7  A    between atoms: O_14  and  C_15
REMARK    8  A    between atoms: C_15  and  C_16
REMARK    9  A    between atoms: C_16  and  C_17
REMARK   10  A    between atoms: N_32  and  C_33
REMARK                            x       y       z     vdW  Elec       q    Type
REMARK                         _______ _______ _______ _____ _____    ______ ____
ROOT
ATOM      1  C   UNL     1      -0.309  10.824  19.044  0.00  0.00    +0.000 A 
ATOM      2  N   UNL     1       0.635  10.009  18.648  0.00  0.00    +0.000 NA
ATOM      3  N   UNL     1       1.274   9.178  19.567  0.00  0.00    +0.000 N 
ATOM      4  C   UNL     1       0.916   9.063  20.927  0.00  0.00    +0.000 A 
ATOM      5  O   UNL     1       1.377   8.232  21.711  0.00  0.00    +0.000 OA
ATOM      6  C   UNL     1      -0.044  10.056  21.338  0.00  0.00    +0.000 A 
ATOM      7  C   UNL     1      -0.633  10.936  20.458  0.00  0.00    +0.000 A 
ATOM      8  C   UNL     1      -1.492  11.783  21.220  0.00  0.00    +0.000 A 
ATOM      9  C   UNL     1      -2.313  12.895  20.927  0.00  0.00    +0.000 A 
ATOM     10  C   UNL     1      -3.106  13.468  21.930  0.00  0.00    +0.000 A 
ATOM     11  C   UNL     1      -3.082  12.956  23.219  0.00  0.00    +0.000 A 
ATOM     12 CL   UNL     1      -4.097  13.647  24.429  0.00  0.00    +0.000 Cl
ATOM     13  C   UNL     1      -2.247  11.891  23.559  0.00  0.00    +0.000 A 
ATOM     14  C   UNL     1      -1.449  11.326  22.546  0.00  0.00    +0.000 A 
ATOM     15  N   UNL     1      -0.521  10.303  22.597  0.00  0.00    +0.000 N 
ATOM     16  C   UNL     1      -0.080   9.612  23.791  0.00  0.00    +0.000 C 
ENDROOT
BRANCH   3  17
ATOM     17  C   UNL     1       2.102   8.201  18.960  0.00  0.00    +0.000 A 
ATOM     18  C   UNL     1       2.720   8.475  17.739  0.00  0.00    +0.000 A 
ATOM     19  C   UNL     1       3.523   7.520  17.123  0.00  0.00    +0.000 A 
ATOM     20  C   UNL     1       3.694   6.255  17.698  0.00  0.00    +0.000 A 
ATOM     21  C   UNL     1       3.076   5.980  18.921  0.00  0.00    +0.000 A 
ATOM     22  C   UNL     1       2.305   6.959  19.567  0.00  0.00    +0.000 A 
BRANCH  20  23
ATOM     23  O   UNL     1       4.432   5.236  17.142  0.00  0.00    +0.000 OA
BRANCH  23  24
ATOM     24  C   UNL     1       5.737   5.620  16.698  0.00  0.00    +0.000 C 
BRANCH  24  25
ATOM     25  C   UNL     1       6.644   5.952  17.873  0.00  0.00    +0.000 C 
BRANCH  25  26
ATOM     26  C   UNL     1       7.417   7.225  17.570  0.00  0.00    +0.000 C 
ATOM     27  F   UNL     1       8.402   7.377  18.496  0.00  0.00    +0.000 F 
ENDBRANCH  25  26
ENDBRANCH  24  25
ENDBRANCH  23  24
ENDBRANCH  20  23
ENDBRANCH   3  17
BRANCH   1  28
ATOM     28  C   UNL     1      -1.110  11.533  17.981  0.00  0.00    +0.000 C 
BRANCH  28  32
ATOM     29  C   UNL     1      -4.450  10.014  16.988  0.00  0.00    +0.000 C 
ATOM     30  N   UNL     1      -3.469  10.969  17.477  0.00  0.00    +0.000 N 
ATOM     31  C   UNL     1      -3.935  12.003  18.390  0.00  0.00    +0.000 C 
ATOM     32  C   UNL     1      -2.122  10.658  17.285  0.00  0.00    +0.000 C 
ATOM     33  O   UNL     1      -1.763   9.739  16.548  0.00  0.00    +0.000 OA
ENDBRANCH  28  32
ENDBRANCH   1  28
TORSDOF 7
ENDMDL
MODEL 3
REMARK VINA RESULT:      -7.0      3.406      6.136
REMARK  Name = 
REMARK  10 active torsions:
REMARK  status: ('A' for Active; 'I' for Inactive)
REMARK    1  A    between atoms: C_1  and  N_2
REMARK    2  A    between atoms: N_2  and  C_3
REMARK    3  A    between atoms: C_4  and  C_6
REMARK    4  A    between atoms: C_6  and  C_7
REMARK    5  A    between atoms: N_9  and  C_10
REMARK    6  A    between atoms: C_13  and  O_14
REMARK    7  A    between atoms: O_14  and  C_15
REMARK    8  A    between atoms: C_15  and  C_16
REMARK    9  A    between atoms: C_16  and  C_17
REMARK   10  A    between atoms: N_32  and  C_33
REMARK                            x       y       z     vdW  Elec       q    Type
REMARK                         _______ _______ _______ _____ _____    ______ ____
ROOT
ATOM      1  C   UNL     1      -0.261  10.781  19.065  0.00  0.00    +0.000 A 
ATOM      2  N   UNL     1       0.655   9.929  18.684  0.00  0.00    +0.000 NA
ATOM      3  N   UNL     1       1.267   9.094  19.619  0.00  0.00    +0.000 N 
ATOM      4  C   UNL     1       0.906   9.017  20.980  0.00  0.00    +0.000 A 
ATOM      5  O   UNL     1       1.340   8.186  21.780  0.00  0.00    +0.000 OA
ATOM      6  C   UNL     1      -0.022  10.048  21.372  0.00  0.00    +0.000 A 
ATOM      7  C   UNL     1      -0.582  10.929  20.475  0.00  0.00    +0.000 A 
ATOM      8  C   UNL     1      -1.412  11.818  21.222  0.00  0.00    +0.000 A 
ATOM      9  C   UNL     1      -2.197  12.950  20.908  0.00  0.00    +0.000 A 
ATOM     10  C   UNL     1      -2.971  13.567  21.900  0.00  0.00    +0.000 A 
ATOM     11  C   UNL     1      -2.963  13.079  23.198  0.00  0.00    +0.000 A 
ATOM     12 CL   UNL     1      -3.955  13.824  24.394  0.00  0.00    +0.000 Cl
ATOM     13  C   UNL     1      -2.163  11.994  23.558  0.00  0.00    +0.000 A 
ATOM     14  C   UNL     1      -1.384  11.384  22.556  0.00  0.00    +0.000 A 
ATOM     15  N   UNL     1      -0.489  10.333  22.626  0.00  0.00    +0.000 N 
ATOM     16  C   UNL     1      -0.071   9.650  23.834  0.00  0.00    +0.000 C 
ENDROOT
BRANCH   3  17
ATOM     17  C   UNL     1       2.063   8.080  19.030  0.00  0.00    +0.000 A 
ATOM     18  C   UNL     1       2.256   6.871  19.700  0.00  0.00    +0.000 A 
ATOM     19  C   UNL     1       3.050   5.872  19.141  0.00  0.00    +0.000 A 
ATOM     20  C   UNL     1       3.698   6.079  17.918  0.00  0.00    +0.000 A 
ATOM     21  C   UNL     1       3.504   7.289  17.247  0.00  0.00    +0.000 A 
ATOM     22  C   UNL     1       2.667   8.278  17.785  0.00  0.00    +0.000 A 
BRANCH  20  23
ATOM     23  O   UNL     1       4.532   5.169  17.312  0.00  0.00    +0.000 OA
BRANCH  23  24
ATOM     24  C   UNL     1       4.288   3.806  17.671  0.00  0.00    +0.000 C 
BRANCH  24  25
ATOM     25  C   UNL     1       3.039   3.270  16.986  0.00  0.00    +0.000 C 
BRANCH  25  26
ATOM     26  C   UNL     1       2.253   2.418  17.968  0.00  0.00    +0.000 C 
ATOM     27  F   UNL     1       1.063   3.025  18.228  0.00  0.00    +0.000 F 
ENDBRANCH  25  26
ENDBRANCH  24  25
ENDBRANCH  23  24
ENDBRANCH  20  23
ENDBRANCH   3  17
BRANCH   1  28
ATOM     28  C   UNL     1      -1.040  11.496  17.988  0.00  0.00    +0.000 C 
BRANCH  28  32
ATOM     29  C   UNL     1      -4.418  10.042  17.028  0.00  0.00    +0.000 C 
ATOM     30  N   UNL     1      -3.413  10.978  17.506  0.00  0.00    +0.000 N 
ATOM     31  C   UNL     1      -3.851  12.025  18.419  0.00  0.00    +0.000 C 
ATOM     32  C   UNL     1      -2.075  10.639  17.303  0.00  0.00    +0.000 C 
ATOM     33  O   UNL     1      -1.741   9.710  16.567  0.00  0.00    +0.000 OA
ENDBRANCH  28  32
ENDBRANCH   1  28
TORSDOF 7
ENDMDL
MODEL 4
REMARK VINA RESULT:      -7.0      6.433     12.116
REMARK  Name = 
REMARK  10 active torsions:
REMARK  status: ('A' for Active; 'I' for Inactive)
REMARK    1  A    between atoms: C_1  and  N_2
REMARK    2  A    between atoms: N_2  and  C_3
REMARK    3  A    between atoms: C_4  and  C_6
REMARK    4  A    between atoms: C_6  and  C_7
REMARK    5  A    between atoms: N_9  and  C_10
REMARK    6  A    between atoms: C_13  and  O_14
REMARK    7  A    between atoms: O_14  and  C_15
REMARK    8  A    between atoms: C_15  and  C_16
REMARK    9  A    between atoms: C_16  and  C_17
REMARK   10  A    between atoms: N_32  and  C_33
REMARK                            x       y       z     vdW  Elec       q    Type
REMARK                         _______ _______ _______ _____ _____    ______ ____
ROOT
ATOM      1  C   UNL     1      -0.193  12.325  19.747  0.00  0.00    +0.000 A 
ATOM      2  N   UNL     1      -0.907  12.956  20.643  0.00  0.00    +0.000 NA
ATOM      3  N   UNL     1      -1.118  12.386  21.899  0.00  0.00    +0.000 N 
ATOM      4  C   UNL     1      -0.528  11.184  22.341  0.00  0.00    +0.000 A 
ATOM      5  O   UNL     1      -0.592  10.747  23.492  0.00  0.00    +0.000 OA
ATOM      6  C   UNL     1       0.152  10.474  21.287  0.00  0.00    +0.000 A 
ATOM      7  C   UNL     1       0.308  10.987  20.020  0.00  0.00    +0.000 A 
ATOM      8  C   UNL     1       0.991  10.001  19.248  0.00  0.00    +0.000 A 
ATOM      9  C   UNL     1       1.392   9.894  17.897  0.00  0.00    +0.000 A 
ATOM     10  C   UNL     1       2.133   8.784  17.469  0.00  0.00    +0.000 A 
ATOM     11  C   UNL     1       2.468   7.778  18.364  0.00  0.00    +0.000 A 
ATOM     12 CL   UNL     1       3.417   6.443  17.829  0.00  0.00    +0.000 Cl
ATOM     13  C   UNL     1       2.048   7.825  19.694  0.00  0.00    +0.000 A 
ATOM     14  C   UNL     1       1.298   8.941  20.113  0.00  0.00    +0.000 A 
ATOM     15  N   UNL     1       0.732   9.236  21.339  0.00  0.00    +0.000 N 
ATOM     16  C   UNL     1       0.711   8.367  22.498  0.00  0.00    +0.000 C 
ENDROOT
BRANCH   3  17
ATOM     17  C   UNL     1      -1.710  13.278  22.828  0.00  0.00    +0.000 A 
ATOM     18  C   UNL     1      -3.041  13.103  23.208  0.00  0.00    +0.000 A 
ATOM     19  C   UNL     1      -3.642  13.980  24.107  0.00  0.00    +0.000 A 
ATOM     20  C   UNL     1      -2.932  15.075  24.615  0.00  0.00    +0.000 A 
ATOM     21  C   UNL     1      -1.599  15.250  24.235  0.00  0.00    +0.000 A 
ATOM     22  C   UNL     1      -0.978  14.340  23.366  0.00  0.00    +0.000 A 
BRANCH  20  23
ATOM     23  O   UNL     1      -3.454  16.015  25.472  0.00  0.00    +0.000 OA
BRANCH  23  24
ATOM     24  C   UNL     1      -3.704  17.291  24.874  0.00  0.00    +0.000 C 
BRANCH  24  25
ATOM     25  C   UNL     1      -5.155  17.711  25.058  0.00  0.00    +0.000 C 
BRANCH  25  26
ATOM     26  C   UNL     1      -5.995  17.127  23.935  0.00  0.00    +0.000 C 
ATOM     27  F   UNL     1      -6.374  15.865  24.274  0.00  0.00    +0.000 F 
ENDBRANCH  25  26
ENDBRANCH  24  25
ENDBRANCH  23  24
ENDBRANCH  20  23
ENDBRANCH   3  17
BRANCH   1  28
ATOM     28  C   UNL     1       0.183  13.081  18.496  0.00  0.00    +0.000 C 
BRANCH  28  32
ATOM     29  C   UNL     1       2.421  16.145  18.718  0.00  0.00    +0.000 C 
ATOM     30  N   UNL     1       1.240  15.301  18.793  0.00  0.00    +0.000 N 
ATOM     31  C   UNL     1      -0.060  15.955  18.712  0.00  0.00    +0.000 C 
ATOM     32  C   UNL     1       1.424  13.927  18.637  0.00  0.00    +0.000 C 
ATOM     33  O   UNL     1       2.543  13.412  18.654  0.00  0.00    +0.000 OA
ENDBRANCH  28  32
ENDBRANCH   1  28
TORSDOF 7
ENDMDL
MODEL 5
REMARK VINA RESULT:      -7.0      3.056      5.730
REMARK  Name = 
REMARK  10 active torsions:
REMARK  status: ('A' for Active; 'I' for Inactive)
REMARK    1  A    between atoms: C_1  and  N_2
REMARK    2  A    between atoms: N_2  and  C_3
REMARK    3  A    between atoms: C_4  and  C_6
REMARK    4  A    between atoms: C_6  and  C_7
REMARK    5  A    between atoms: N_9  and  C_10
REMARK    6  A    between atoms: C_13  and  O_14
REMARK    7  A    between atoms: O_14  and  C_15
REMARK    8  A    between atoms: C_15  and  C_16
REMARK    9  A    between atoms: C_16  and  C_17
REMARK   10  A    between atoms: N_32  and  C_33
REMARK                            x       y       z     vdW  Elec       q    Type
REMARK                         _______ _______ _______ _____ _____    ______ ____
ROOT
ATOM      1  C   UNL     1      -0.186  10.688  18.991  0.00  0.00    +0.000 A 
ATOM      2  N   UNL     1       0.714   9.831  18.585  0.00  0.00    +0.000 NA
ATOM      3  N   UNL     1       1.339   8.984  19.500  0.00  0.00    +0.000 N 
ATOM      4  C   UNL     1       1.006   8.899  20.868  0.00  0.00    +0.000 A 
ATOM      5  O   UNL     1       1.450   8.059  21.652  0.00  0.00    +0.000 OA
ATOM      6  C   UNL     1       0.096   9.936  21.288  0.00  0.00    +0.000 A 
ATOM      7  C   UNL     1      -0.475  10.829  20.410  0.00  0.00    +0.000 A 
ATOM      8  C   UNL     1      -1.282  11.718  21.180  0.00  0.00    +0.000 A 
ATOM      9  C   UNL     1      -2.063  12.860  20.891  0.00  0.00    +0.000 A 
ATOM     10  C   UNL     1      -2.810  13.476  21.904  0.00  0.00    +0.000 A 
ATOM     11  C   UNL     1      -2.778  12.978  23.199  0.00  0.00    +0.000 A 
ATOM     12 CL   UNL     1      -3.738  13.723  24.421  0.00  0.00    +0.000 Cl
ATOM     13  C   UNL     1      -1.981  11.884  23.533  0.00  0.00    +0.000 A 
ATOM     14  C   UNL     1      -1.228  11.275  22.510  0.00  0.00    +0.000 A 
ATOM     15  N   UNL     1      -0.342  10.215  22.553  0.00  0.00    +0.000 N 
ATOM     16  C   UNL     1       0.096   9.520  23.747  0.00  0.00    +0.000 C 
ENDROOT
BRANCH   3  17
ATOM     17  C   UNL     1       2.113   7.968  18.887  0.00  0.00    +0.000 A 
ATOM     18  C   UNL     1       2.067   6.664  19.383  0.00  0.00    +0.000 A 
ATOM     19  C   UNL     1       2.835   5.659  18.801  0.00  0.00    +0.000 A 
ATOM     20  C   UNL     1       3.695   5.947  17.735  0.00  0.00    +0.000 A 
ATOM     21  C   UNL     1       3.742   7.253  17.238  0.00  0.00    +0.000 A 
ATOM     22  C   UNL     1       2.933   8.256  17.792  0.00  0.00    +0.000 A 
BRANCH  20  23
ATOM     23  O   UNL     1       4.521   5.031  17.126  0.00  0.00    +0.000 OA
BRANCH  23  24
ATOM     24  C   UNL     1       5.432   5.590  16.175  0.00  0.00    +0.000 C 
BRANCH  24  25
ATOM     25  C   UNL     1       6.252   4.505  15.493  0.00  0.00    +0.000 C 
BRANCH  25  26
ATOM     26  C   UNL     1       5.641   4.187  14.139  0.00  0.00    +0.000 C 
ATOM     27  F   UNL     1       6.599   3.651  13.335  0.00  0.00    +0.000 F 
ENDBRANCH  25  26
ENDBRANCH  24  25
ENDBRANCH  23  24
ENDBRANCH  20  23
ENDBRANCH   3  17
BRANCH   1  28
ATOM     28  C   UNL     1      -0.981  11.418  17.937  0.00  0.00    +0.000 C 
BRANCH  28  32
ATOM     29  C   UNL     1      -4.409  10.022  17.072  0.00  0.00    +0.000 C 
ATOM     30  N   UNL     1      -3.376  10.940  17.523  0.00  0.00    +0.000 N 
ATOM     31  C   UNL     1      -3.770  11.992  18.451  0.00  0.00    +0.000 C 
ATOM     32  C   UNL     1      -2.050  10.580  17.281  0.00  0.00    +0.000 C 
ATOM     33  O   UNL     1      -1.753   9.648  16.532  0.00  0.00    +0.000 OA
ENDBRANCH  28  32
ENDBRANCH   1  28
TORSDOF 7
ENDMDL
MODEL 6
REMARK VINA RESULT:      -7.0      6.343     12.048
REMARK  Name = 
REMARK  10 active torsions:
REMARK  status: ('A' for Active; 'I' for Inactive)
REMARK    1  A    between atoms: C_1  and  N_2
REMARK    2  A    between atoms: N_2  and  C_3
REMARK    3  A    between atoms: C_4  and  C_6
REMARK    4  A    between atoms: C_6  and  C_7
REMARK    5  A    between atoms: N_9  and  C_10
REMARK    6  A    between atoms: C_13  and  O_14
REMARK    7  A    between atoms: O_14  and  C_15
REMARK    8  A    between atoms: C_15  and  C_16
REMARK    9  A    between atoms: C_16  and  C_17
REMARK   10  A    between atoms: N_32  and  C_33
REMARK                            x       y       z     vdW  Elec       q    Type
REMARK                         _______ _______ _______ _____ _____    ______ ____
ROOT
ATOM      1  C   UNL     1      -0.170  12.533  19.726  0.00  0.00    +0.000 A 
ATOM      2  N   UNL     1      -0.925  13.207  20.553  0.00  0.00    +0.000 NA
ATOM      3  N   UNL     1      -1.277  12.660  21.786  0.00  0.00    +0.000 N 
ATOM      4  C   UNL     1      -0.796  11.430  22.282  0.00  0.00    +0.000 A 
ATOM      5  O   UNL     1      -0.987  11.006  23.424  0.00  0.00    +0.000 OA
ATOM      6  C   UNL     1      -0.065  10.676  21.295  0.00  0.00    +0.000 A 
ATOM      7  C   UNL     1       0.230  11.171  20.045  0.00  0.00    +0.000 A 
ATOM      8  C   UNL     1       0.925  10.144  19.339  0.00  0.00    +0.000 A 
ATOM      9  C   UNL     1       1.437  10.005  18.029  0.00  0.00    +0.000 A 
ATOM     10  C   UNL     1       2.151   8.853  17.672  0.00  0.00    +0.000 A 
ATOM     11  C   UNL     1       2.349   7.837  18.596  0.00  0.00    +0.000 A 
ATOM     12 CL   UNL     1       3.267   6.449  18.151  0.00  0.00    +0.000 Cl
ATOM     13  C   UNL     1       1.816   7.916  19.883  0.00  0.00    +0.000 A 
ATOM     14  C   UNL     1       1.095   9.074  20.231  0.00  0.00    +0.000 A 
ATOM     15  N   UNL     1       0.438   9.408  21.401  0.00  0.00    +0.000 N 
ATOM     16  C   UNL     1       0.267   8.550  22.556  0.00  0.00    +0.000 C 
ENDROOT
BRANCH   3  17
ATOM     17  C   UNL     1      -1.900  13.589  22.657  0.00  0.00    +0.000 A 
ATOM     18  C   UNL     1      -1.134  14.566  23.294  0.00  0.00    +0.000 A 
ATOM     19  C   UNL     1      -1.729  15.475  24.164  0.00  0.00    +0.000 A 
ATOM     20  C   UNL     1      -3.099  15.400  24.445  0.00  0.00    +0.000 A 
ATOM     21  C   UNL     1      -3.866  14.422  23.807  0.00  0.00    +0.000 A 
ATOM     22  C   UNL     1      -3.276  13.535  22.892  0.00  0.00    +0.000 A 
BRANCH  20  23
ATOM     23  O   UNL     1      -3.764  16.225  25.321  0.00  0.00    +0.000 OA
BRANCH  23  24
ATOM     24  C   UNL     1      -4.888  16.908  24.758  0.00  0.00    +0.000 C 
BRANCH  24  25
ATOM     25  C   UNL     1      -4.446  18.090  23.907  0.00  0.00    +0.000 C 
BRANCH  25  26
ATOM     26  C   UNL     1      -4.856  17.853  22.464  0.00  0.00    +0.000 C 
ATOM     27  F   UNL     1      -3.830  17.250  21.805  0.00  0.00    +0.000 F 
ENDBRANCH  25  26
ENDBRANCH  24  25
ENDBRANCH  23  24
ENDBRANCH  20  23
ENDBRANCH   3  17
BRANCH   1  28
ATOM     28  C   UNL     1       0.357  13.257  18.512  0.00  0.00    +0.000 C 
BRANCH  28  32
ATOM     29  C   UNL     1       2.401  16.432  18.943  0.00  0.00    +0.000 C 
ATOM     30  N   UNL     1       1.261  15.534  18.881  0.00  0.00    +0.000 N 
ATOM     31  C   UNL     1      -0.043  16.121  18.600  0.00  0.00    +0.000 C 
ATOM     32  C   UNL     1       1.526  14.166  18.796  0.00  0.00    +0.000 C 
ATOM     33  O   UNL     1       2.654  13.708  18.985  0.00  0.00    +0.000 OA
ENDBRANCH  28  32
ENDBRANCH   1  28
TORSDOF 7
ENDMDL
MODEL 7
REMARK VINA RESULT:      -7.0      5.919      9.259
REMARK  Name = 
REMARK  10 active torsions:
REMARK  status: ('A' for Active; 'I' for Inactive)
REMARK    1  A    between atoms: C_1  and  N_2
REMARK    2  A    between atoms: N_2  and  C_3
REMARK    3  A    between atoms: C_4  and  C_6
REMARK    4  A    between atoms: C_6  and  C_7
REMARK    5  A    between atoms: N_9  and  C_10
REMARK    6  A    between atoms: C_13  and  O_14
REMARK    7  A    between atoms: O_14  and  C_15
REMARK    8  A    between atoms: C_15  and  C_16
REMARK    9  A    between atoms: C_16  and  C_17
REMARK   10  A    between atoms: N_32  and  C_33
REMARK                            x       y       z     vdW  Elec       q    Type
REMARK                         _______ _______ _______ _____ _____    ______ ____
ROOT
ATOM      1  C   UNL     1      -3.580  13.204  20.643  0.00  0.00    +0.000 A 
ATOM      2  N   UNL     1      -2.613  12.423  20.235  0.00  0.00    +0.000 NA
ATOM      3  N   UNL     1      -1.406  12.379  20.932  0.00  0.00    +0.000 N 
ATOM      4  C   UNL     1      -1.155  13.059  22.142  0.00  0.00    +0.000 A 
ATOM      5  O   UNL     1      -0.148  12.916  22.837  0.00  0.00    +0.000 OA
ATOM      6  C   UNL     1      -2.201  13.989  22.488  0.00  0.00    +0.000 A 
ATOM      7  C   UNL     1      -3.370  14.100  21.770  0.00  0.00    +0.000 A 
ATOM      8  C   UNL     1      -4.141  15.134  22.379  0.00  0.00    +0.000 A 
ATOM      9  C   UNL     1      -5.379  15.755  22.095  0.00  0.00    +0.000 A 
ATOM     10  C   UNL     1      -5.897  16.721  22.967  0.00  0.00    +0.000 A 
ATOM     11  C   UNL     1      -5.195  17.085  24.107  0.00  0.00    +0.000 A 
ATOM     12 CL   UNL     1      -5.869  18.245  25.189  0.00  0.00    +0.000 Cl
ATOM     13  C   UNL     1      -3.947  16.532  24.394  0.00  0.00    +0.000 A 
ATOM     14  C   UNL     1      -3.431  15.565  23.510  0.00  0.00    +0.000 A 
ATOM     15  N   UNL     1      -2.229  14.883  23.523  0.00  0.00    +0.000 N 
ATOM     16  C   UNL     1      -1.141  15.094  24.457  0.00  0.00    +0.000 C 
ENDROOT
BRANCH   3  17
ATOM     17  C   UNL     1      -0.551  11.331  20.509  0.00  0.00    +0.000 A 
ATOM     18  C   UNL     1       0.133  11.438  19.298  0.00  0.00    +0.000 A 
ATOM     19  C   UNL     1       0.964  10.409  18.861  0.00  0.00    +0.000 A 
ATOM     20  C   UNL     1       1.096   9.235  19.611  0.00  0.00    +0.000 A 
ATOM     21  C   UNL     1       0.411   9.127  20.824  0.00  0.00    +0.000 A 
ATOM     22  C   UNL     1      -0.389  10.182  21.289  0.00  0.00    +0.000 A 
BRANCH  20  23
ATOM     23  O   UNL     1       1.858   8.151  19.239  0.00  0.00    +0.000 OA
BRANCH  23  24
ATOM     24  C   UNL     1       2.038   7.171  20.265  0.00  0.00    +0.000 C 
BRANCH  24  25
ATOM     25  C   UNL     1       2.639   5.890  19.704  0.00  0.00    +0.000 C 
BRANCH  25  26
ATOM     26  C   UNL     1       2.711   5.988  18.190  0.00  0.00    +0.000 C 
ATOM     27  F   UNL     1       1.682   5.282  17.650  0.00  0.00    +0.000 F 
ENDBRANCH  25  26
ENDBRANCH  24  25
ENDBRANCH  23  24
ENDBRANCH  20  23
ENDBRANCH   3  17
BRANCH   1  28
ATOM     28  C   UNL     1      -4.929  13.047  19.987  0.00  0.00    +0.000 C 
BRANCH  28  32
ATOM     29  C   UNL     1      -7.588  10.396  20.576  0.00  0.00    +0.000 C 
ATOM     30  N   UNL     1      -6.538  11.165  19.929  0.00  0.00    +0.000 N 
ATOM     31  C   UNL     1      -6.480  11.131  18.473  0.00  0.00    +0.000 C 
ATOM     32  C   UNL     1      -5.859  12.103  20.707  0.00  0.00    +0.000 C 
ATOM     33  O   UNL     1      -5.974  12.140  21.933  0.00  0.00    +0.000 OA
ENDBRANCH  28  32
ENDBRANCH   1  28
TORSDOF 7
ENDMDL
MODEL 8
REMARK VINA RESULT:      -7.0      6.122      9.495
REMARK  Name = 
REMARK  10 active torsions:
REMARK  status: ('A' for Active; 'I' for Inactive)
REMARK    1  A    between atoms: C_1  and  N_2
REMARK    2  A    between atoms: N_2  and  C_3
REMARK    3  A    between atoms: C_4  and  C_6
REMARK    4  A    between atoms: C_6  and  C_7
REMARK    5  A    between atoms: N_9  and  C_10
REMARK    6  A    between atoms: C_13  and  O_14
REMARK    7  A    between atoms: O_14  and  C_15
REMARK    8  A    between atoms: C_15  and  C_16
REMARK    9  A    between atoms: C_16  and  C_17
REMARK   10  A    between atoms: N_32  and  C_33
REMARK                            x       y       z     vdW  Elec       q    Type
REMARK                         _______ _______ _______ _____ _____    ______ ____
ROOT
ATOM      1  C   UNL     1      -3.565  13.102  20.645  0.00  0.00    +0.000 A 
ATOM      2  N   UNL     1      -2.590  12.285  20.337  0.00  0.00    +0.000 NA
ATOM      3  N   UNL     1      -1.416  12.281  21.090  0.00  0.00    +0.000 N 
ATOM      4  C   UNL     1      -1.212  13.043  22.258  0.00  0.00    +0.000 A 
ATOM      5  O   UNL     1      -0.238  12.941  23.007  0.00  0.00    +0.000 OA
ATOM      6  C   UNL     1      -2.260  14.004  22.490  0.00  0.00    +0.000 A 
ATOM      7  C   UNL     1      -3.395  14.073  21.714  0.00  0.00    +0.000 A 
ATOM      8  C   UNL     1      -4.180  15.155  22.213  0.00  0.00    +0.000 A 
ATOM      9  C   UNL     1      -5.397  15.764  21.830  0.00  0.00    +0.000 A 
ATOM     10  C   UNL     1      -5.942  16.795  22.607  0.00  0.00    +0.000 A 
ATOM     11  C   UNL     1      -5.287  17.233  23.748  0.00  0.00    +0.000 A 
ATOM     12 CL   UNL     1      -5.996  18.472  24.714  0.00  0.00    +0.000 Cl
ATOM     13  C   UNL     1      -4.061  16.691  24.131  0.00  0.00    +0.000 A 
ATOM     14  C   UNL     1      -3.516  15.659  23.341  0.00  0.00    +0.000 A 
ATOM     15  N   UNL     1      -2.324  14.970  23.457  0.00  0.00    +0.000 N 
ATOM     16  C   UNL     1      -1.277  15.237  24.422  0.00  0.00    +0.000 C 
ENDROOT
BRANCH   3  17
ATOM     17  C   UNL     1      -0.555  11.198  20.781  0.00  0.00    +0.000 A 
ATOM     18  C   UNL     1       0.221  11.235  19.622  0.00  0.00    +0.000 A 
ATOM     19  C   UNL     1       1.058  10.172  19.297  0.00  0.00    +0.000 A 
ATOM     20  C   UNL     1       1.108   9.031  20.107  0.00  0.00    +0.000 A 
ATOM     21  C   UNL     1       0.331   8.993  21.268  0.00  0.00    +0.000 A 
ATOM     22  C   UNL     1      -0.477  10.084  21.622  0.00  0.00    +0.000 A 
BRANCH  20  23
ATOM     23  O   UNL     1       1.871   7.918  19.844  0.00  0.00    +0.000 OA
BRANCH  23  24
ATOM     24  C   UNL     1       1.634   6.813  20.722  0.00  0.00    +0.000 C 
BRANCH  24  25
ATOM     25  C   UNL     1       2.176   5.517  20.137  0.00  0.00    +0.000 C 
BRANCH  25  26
ATOM     26  C   UNL     1       1.394   4.343  20.701  0.00  0.00    +0.000 C 
ATOM     27  F   UNL     1       2.117   3.769  21.700  0.00  0.00    +0.000 F 
ENDBRANCH  25  26
ENDBRANCH  24  25
ENDBRANCH  23  24
ENDBRANCH  20  23
ENDBRANCH   3  17
BRANCH   1  28
ATOM     28  C   UNL     1      -4.885  12.910  19.941  0.00  0.00    +0.000 C 
BRANCH  28  32
ATOM     29  C   UNL     1      -7.673  10.402  20.560  0.00  0.00    +0.000 C 
ATOM     30  N   UNL     1      -6.598  11.122  19.897  0.00  0.00    +0.000 N 
ATOM     31  C   UNL     1      -6.579  11.107  18.441  0.00  0.00    +0.000 C 
ATOM     32  C   UNL     1      -5.848  12.008  20.671  0.00  0.00    +0.000 C 
ATOM     33  O   UNL     1      -5.930  12.032  21.900  0.00  0.00    +0.000 OA
ENDBRANCH  28  32
ENDBRANCH   1  28
TORSDOF 7
ENDMDL
MODEL 9
REMARK VINA RESULT:      -6.9      6.008      9.342
REMARK  Name = 
REMARK  10 active torsions:
REMARK  status: ('A' for Active; 'I' for Inactive)
REMARK    1  A    between atoms: C_1  and  N_2
REMARK    2  A    between atoms: N_2  and  C_3
REMARK    3  A    between atoms: C_4  and  C_6
REMARK    4  A    between atoms: C_6  and  C_7
REMARK    5  A    between atoms: N_9  and  C_10
REMARK    6  A    between atoms: C_13  and  O_14
REMARK    7  A    between atoms: O_14  and  C_15
REMARK    8  A    between atoms: C_15  and  C_16
REMARK    9  A    between atoms: C_16  and  C_17
REMARK   10  A    between atoms: N_32  and  C_33
REMARK                            x       y       z     vdW  Elec       q    Type
REMARK                         _______ _______ _______ _____ _____    ______ ____
ROOT
ATOM      1  C   UNL     1      -3.663  13.263  20.733  0.00  0.00    +0.000 A 
ATOM      2  N   UNL     1      -2.715  12.453  20.338  0.00  0.00    +0.000 NA
ATOM      3  N   UNL     1      -1.511  12.390  21.039  0.00  0.00    +0.000 N 
ATOM      4  C   UNL     1      -1.247  13.080  22.240  0.00  0.00    +0.000 A 
ATOM      5  O   UNL     1      -0.245  12.922  22.941  0.00  0.00    +0.000 OA
ATOM      6  C   UNL     1      -2.270  14.040  22.570  0.00  0.00    +0.000 A 
ATOM      7  C   UNL     1      -3.435  14.169  21.848  0.00  0.00    +0.000 A 
ATOM      8  C   UNL     1      -4.182  15.230  22.440  0.00  0.00    +0.000 A 
ATOM      9  C   UNL     1      -5.404  15.876  22.144  0.00  0.00    +0.000 A 
ATOM     10  C   UNL     1      -5.901  16.867  23.001  0.00  0.00    +0.000 A 
ATOM     11  C   UNL     1      -5.193  17.230  24.137  0.00  0.00    +0.000 A 
ATOM     12 CL   UNL     1      -5.842  18.420  25.201  0.00  0.00    +0.000 Cl
ATOM     13  C   UNL     1      -3.960  16.650  24.436  0.00  0.00    +0.000 A 
ATOM     14  C   UNL     1      -3.465  15.659  23.567  0.00  0.00    +0.000 A 
ATOM     15  N   UNL     1      -2.280  14.949  23.593  0.00  0.00    +0.000 N 
ATOM     16  C   UNL     1      -1.189  15.146  24.527  0.00  0.00    +0.000 C 
ENDROOT
BRANCH   3  17
ATOM     17  C   UNL     1      -0.680  11.316  20.633  0.00  0.00    +0.000 A 
ATOM     18  C   UNL     1      -0.491  10.224  21.482  0.00  0.00    +0.000 A 
ATOM     19  C   UNL     1       0.335   9.169  21.103  0.00  0.00    +0.000 A 
ATOM     20  C   UNL     1       1.020   9.203  19.883  0.00  0.00    +0.000 A 
ATOM     21  C   UNL     1       0.830  10.297  19.033  0.00  0.00    +0.000 A 
ATOM     22  C   UNL     1      -0.039  11.338  19.392  0.00  0.00    +0.000 A 
BRANCH  20  23
ATOM     23  O   UNL     1       1.888   8.230  19.445  0.00  0.00    +0.000 OA
BRANCH  23  24
ATOM     24  C   UNL     1       2.478   8.491  18.168  0.00  0.00    +0.000 C 
BRANCH  24  25
ATOM     25  C   UNL     1       3.241   7.278  17.656  0.00  0.00    +0.000 C 
BRANCH  25  26
ATOM     26  C   UNL     1       3.040   6.115  18.613  0.00  0.00    +0.000 C 
ATOM     27  F   UNL     1       2.149   5.242  18.069  0.00  0.00    +0.000 F 
ENDBRANCH  25  26
ENDBRANCH  24  25
ENDBRANCH  23  24
ENDBRANCH  20  23
ENDBRANCH   3  17
BRANCH   1  28
ATOM     28  C   UNL     1      -5.014  13.129  20.075  0.00  0.00    +0.000 C 
BRANCH  28  32
ATOM     29  C   UNL     1      -7.683  10.472  20.587  0.00  0.00    +0.000 C 
ATOM     30  N   UNL     1      -6.633  11.259  19.960  0.00  0.00    +0.000 N 
ATOM     31  C   UNL     1      -6.584  11.274  18.505  0.00  0.00    +0.000 C 
ATOM     32  C   UNL     1      -5.945  12.166  20.767  0.00  0.00    +0.000 C 
ATOM     33  O   UNL     1      -6.053  12.160  21.994  0.00  0.00    +0.000 OA
ENDBRANCH  28  32
ENDBRANCH   1  28
TORSDOF 7
ENDMDL
