MODEL 1
REMARK VINA RESULT:      -7.9      0.000      0.000
REMARK  Name = 
REMARK  6 active torsions:
REMARK  status: ('A' for Active; 'I' for Inactive)
REMARK    1  A    between atoms: C_2  and  C_3
REMARK    2  A    between atoms: C_2  and  C_12
REMARK    3  A    between atoms: C_5  and  O_6
REMARK    4  A    between atoms: C_7  and  O_8
REMARK    5  A    between atoms: C_9  and  O_10
REMARK    6  A    between atoms: C_15  and  C_16
REMARK                            x       y       z     vdW  Elec       q    Type
REMARK                         _______ _______ _______ _____ _____    ______ ____
ROOT
ATOM      1  O   UNL     1       5.022   2.786  19.439  0.00  0.00    +0.000 OA
ATOM      2  C   UNL     1       4.755   3.873  18.934  0.00  0.00    +0.000 C 
ENDROOT
BRANCH   2   3
ATOM      3  C   UNL     1       5.506   4.338  17.735  0.00  0.00    +0.000 A 
ATOM      4  C   UNL     1       5.469   3.602  16.536  0.00  0.00    +0.000 A 
ATOM      5  C   UNL     1       6.193   4.040  15.436  0.00  0.00    +0.000 A 
ATOM      6  C   UNL     1       6.968   5.188  15.525  0.00  0.00    +0.000 A 
ATOM      7  C   UNL     1       7.032   5.901  16.717  0.00  0.00    +0.000 A 
ATOM      8  C   UNL     1       6.311   5.486  17.831  0.00  0.00    +0.000 A 
BRANCH   5   9
ATOM      9  O   UNL     1       6.178   3.365  14.249  0.00  0.00    +0.000 OA
ATOM     10  H   UNL     1       5.263   3.084  14.068  0.00  0.00    +0.000 HD
ENDBRANCH   5   9
BRANCH   6  11
ATOM     11  O   UNL     1       7.684   5.626  14.445  0.00  0.00    +0.000 OA
ATOM     12  H   UNL     1       7.213   6.436  14.159  0.00  0.00    +0.000 HD
ENDBRANCH   6  11
BRANCH   7  13
ATOM     13  O   UNL     1       7.809   7.020  16.798  0.00  0.00    +0.000 OA
ATOM     14  H   UNL     1       8.101   7.054  17.728  0.00  0.00    +0.000 HD
ENDBRANCH   7  13
ENDBRANCH   2   3
BRANCH   2  15
ATOM     15  C   UNL     1       3.674   4.722  19.443  0.00  0.00    +0.000 A 
ATOM     16  C   UNL     1       2.763   4.308  20.396  0.00  0.00    +0.000 A 
ATOM     17  S   UNL     1       1.650   5.557  20.737  0.00  0.00    +0.000 S 
ATOM     18  C   UNL     1       2.453   6.588  19.612  0.00  0.00    +0.000 A 
ATOM     19  N   UNL     1       3.463   6.023  18.979  0.00  0.00    +0.000 NA
BRANCH  18  20
ATOM     20  C   UNL     1       1.965   7.955  19.351  0.00  0.00    +0.000 A 
ATOM     21  C   UNL     1       1.250   8.690  20.309  0.00  0.00    +0.000 A 
ATOM     22  C   UNL     1       0.766   9.969  20.021  0.00  0.00    +0.000 A 
ATOM     23  C   UNL     1       0.998  10.535  18.770  0.00  0.00    +0.000 A 
ATOM     24  C   UNL     1       1.725   9.832  17.813  0.00  0.00    +0.000 A 
ATOM     25  C   UNL     1       2.213   8.555  18.104  0.00  0.00    +0.000 A 
ENDBRANCH  18  20
ENDBRANCH   2  15
TORSDOF 6
ENDMDL
MODEL 2
REMARK VINA RESULT:      -7.9      0.131      2.045
REMARK  Name = 
REMARK  6 active torsions:
REMARK  status: ('A' for Active; 'I' for Inactive)
REMARK    1  A    between atoms: C_2  and  C_3
REMARK    2  A    between atoms: C_2  and  C_12
REMARK    3  A    between atoms: C_5  and  O_6
REMARK    4  A    between atoms: C_7  and  O_8
REMARK    5  A    between atoms: C_9  and  O_10
REMARK    6  A    between atoms: C_15  and  C_16
REMARK                            x       y       z     vdW  Elec       q    Type
REMARK                         _______ _______ _______ _____ _____    ______ ____
ROOT
ATOM      1  O   UNL     1       5.184   2.805  19.600  0.00  0.00    +0.000 OA
ATOM      2  C   UNL     1       4.873   3.858  19.050  0.00  0.00    +0.000 C 
ENDROOT
BRANCH   2   3
ATOM      3  C   UNL     1       5.627   4.318  17.851  0.00  0.00    +0.000 A 
ATOM      4  C   UNL     1       6.389   5.500  17.893  0.00  0.00    +0.000 A 
ATOM      5  C   UNL     1       7.068   5.923  16.759  0.00  0.00    +0.000 A 
ATOM      6  C   UNL     1       6.978   5.194  15.581  0.00  0.00    +0.000 A 
ATOM      7  C   UNL     1       6.200   4.043  15.527  0.00  0.00    +0.000 A 
ATOM      8  C   UNL     1       5.517   3.595  16.651  0.00  0.00    +0.000 A 
BRANCH   5   9
ATOM      9  O   UNL     1       7.829   7.057  16.758  0.00  0.00    +0.000 OA
ATOM     10  H   UNL     1       7.839   7.418  15.854  0.00  0.00    +0.000 HD
ENDBRANCH   5   9
BRANCH   6  11
ATOM     11  O   UNL     1       7.645   5.604  14.460  0.00  0.00    +0.000 OA
ATOM     12  H   UNL     1       8.588   5.585  14.723  0.00  0.00    +0.000 HD
ENDBRANCH   6  11
BRANCH   7  13
ATOM     13  O   UNL     1       6.107   3.342  14.359  0.00  0.00    +0.000 OA
ATOM     14  H   UNL     1       6.608   3.872  13.711  0.00  0.00    +0.000 HD
ENDBRANCH   7  13
ENDBRANCH   2   3
BRANCH   2  15
ATOM     15  C   UNL     1       3.739   4.667  19.505  0.00  0.00    +0.000 A 
ATOM     16  C   UNL     1       2.782   4.211  20.391  0.00  0.00    +0.000 A 
ATOM     17  S   UNL     1       1.616   5.423  20.684  0.00  0.00    +0.000 S 
ATOM     18  C   UNL     1       2.458   6.497  19.629  0.00  0.00    +0.000 A 
ATOM     19  N   UNL     1       3.521   5.971  19.052  0.00  0.00    +0.000 NA
BRANCH  18  20
ATOM     20  C   UNL     1       1.949   7.855  19.362  0.00  0.00    +0.000 A 
ATOM     21  C   UNL     1       2.095   8.477  18.113  0.00  0.00    +0.000 A 
ATOM     22  C   UNL     1       1.636   9.780  17.900  0.00  0.00    +0.000 A 
ATOM     23  C   UNL     1       1.014  10.476  18.933  0.00  0.00    +0.000 A 
ATOM     24  C   UNL     1       0.838   9.868  20.174  0.00  0.00    +0.000 A 
ATOM     25  C   UNL     1       1.294   8.563  20.384  0.00  0.00    +0.000 A 
ENDBRANCH  18  20
ENDBRANCH   2  15
TORSDOF 6
ENDMDL
MODEL 3
REMARK VINA RESULT:      -7.9      0.235      1.050
REMARK  Name = 
REMARK  6 active torsions:
REMARK  status: ('A' for Active; 'I' for Inactive)
REMARK    1  A    between atoms: C_2  and  C_3
REMARK    2  A    between atoms: C_2  and  C_12
REMARK    3  A    between atoms: C_5  and  O_6
REMARK    4  A    between atoms: C_7  and  O_8
REMARK    5  A    between atoms: C_9  and  O_10
REMARK    6  A    between atoms: C_15  and  C_16
REMARK                            x       y       z     vdW  Elec       q    Type
REMARK                         _______ _______ _______ _____ _____    ______ ____
ROOT
ATOM      1  O   UNL     1       5.327   2.949  19.685  0.00  0.00    +0.000 OA
ATOM      2  C   UNL     1       4.924   3.937  19.077  0.00  0.00    +0.000 C 
ENDROOT
BRANCH   2   3
ATOM      3  C   UNL     1       5.613   4.371  17.831  0.00  0.00    +0.000 A 
ATOM      4  C   UNL     1       5.514   3.607  16.652  0.00  0.00    +0.000 A 
ATOM      5  C   UNL     1       6.181   4.018  15.507  0.00  0.00    +0.000 A 
ATOM      6  C   UNL     1       6.960   5.166  15.529  0.00  0.00    +0.000 A 
ATOM      7  C   UNL     1       7.086   5.906  16.699  0.00  0.00    +0.000 A 
ATOM      8  C   UNL     1       6.423   5.519  17.857  0.00  0.00    +0.000 A 
BRANCH   5   9
ATOM      9  O   UNL     1       6.103   3.314  14.339  0.00  0.00    +0.000 OA
ATOM     10  H   UNL     1       6.143   2.365  14.549  0.00  0.00    +0.000 HD
ENDBRANCH   5   9
BRANCH   6  11
ATOM     11  O   UNL     1       7.619   5.577  14.403  0.00  0.00    +0.000 OA
ATOM     12  H   UNL     1       8.554   5.647  14.686  0.00  0.00    +0.000 HD
ENDBRANCH   6  11
BRANCH   7  13
ATOM     13  O   UNL     1       7.867   7.025  16.712  0.00  0.00    +0.000 OA
ATOM     14  H   UNL     1       7.328   7.700  17.166  0.00  0.00    +0.000 HD
ENDBRANCH   7  13
ENDBRANCH   2   3
BRANCH   2  15
ATOM     15  C   UNL     1       3.742   4.687  19.510  0.00  0.00    +0.000 A 
ATOM     16  C   UNL     1       2.737   4.146  20.288  0.00  0.00    +0.000 A 
ATOM     17  S   UNL     1       1.524   5.310  20.588  0.00  0.00    +0.000 S 
ATOM     18  C   UNL     1       2.413   6.478  19.682  0.00  0.00    +0.000 A 
ATOM     19  N   UNL     1       3.526   6.018  19.144  0.00  0.00    +0.000 NA
BRANCH  18  20
ATOM     20  C   UNL     1       1.891   7.843  19.484  0.00  0.00    +0.000 A 
ATOM     21  C   UNL     1       1.984   8.508  18.251  0.00  0.00    +0.000 A 
ATOM     22  C   UNL     1       1.515   9.816  18.103  0.00  0.00    +0.000 A 
ATOM     23  C   UNL     1       0.937  10.475  19.185  0.00  0.00    +0.000 A 
ATOM     24  C   UNL     1       0.815   9.825  20.410  0.00  0.00    +0.000 A 
ATOM     25  C   UNL     1       1.281   8.515  20.556  0.00  0.00    +0.000 A 
ENDBRANCH  18  20
ENDBRANCH   2  15
TORSDOF 6
ENDMDL
MODEL 4
REMARK VINA RESULT:      -7.9      0.756      1.913
REMARK  Name = 
REMARK  6 active torsions:
REMARK  status: ('A' for Active; 'I' for Inactive)
REMARK    1  A    between atoms: C_2  and  C_3
REMARK    2  A    between atoms: C_2  and  C_12
REMARK    3  A    between atoms: C_5  and  O_6
REMARK    4  A    between atoms: C_7  and  O_8
REMARK    5  A    between atoms: C_9  and  O_10
REMARK    6  A    between atoms: C_15  and  C_16
REMARK                            x       y       z     vdW  Elec       q    Type
REMARK                         _______ _______ _______ _____ _____    ______ ____
ROOT
ATOM      1  O   UNL     1       3.852   2.227  17.819  0.00  0.00    +0.000 OA
ATOM      2  C   UNL     1       4.092   3.432  17.823  0.00  0.00    +0.000 C 
ENDROOT
BRANCH   2   3
ATOM      3  C   UNL     1       5.115   3.986  16.894  0.00  0.00    +0.000 A 
ATOM      4  C   UNL     1       5.895   5.097  17.266  0.00  0.00    +0.000 A 
ATOM      5  C   UNL     1       6.828   5.612  16.378  0.00  0.00    +0.000 A 
ATOM      6  C   UNL     1       6.978   5.046  15.120  0.00  0.00    +0.000 A 
ATOM      7  C   UNL     1       6.189   3.968  14.737  0.00  0.00    +0.000 A 
ATOM      8  C   UNL     1       5.251   3.430  15.611  0.00  0.00    +0.000 A 
BRANCH   5   9
ATOM      9  O   UNL     1       7.614   6.681  16.701  0.00  0.00    +0.000 OA
ATOM     10  H   UNL     1       7.409   7.409  16.088  0.00  0.00    +0.000 HD
ENDBRANCH   5   9
BRANCH   6  11
ATOM     11  O   UNL     1       7.897   5.547  14.240  0.00  0.00    +0.000 OA
ATOM     12  H   UNL     1       7.516   6.404  13.958  0.00  0.00    +0.000 HD
ENDBRANCH   6  11
BRANCH   7  13
ATOM     13  O   UNL     1       6.335   3.429  13.492  0.00  0.00    +0.000 OA
ATOM     14  H   UNL     1       7.132   3.857  13.127  0.00  0.00    +0.000 HD
ENDBRANCH   7  13
ENDBRANCH   2   3
BRANCH   2  15
ATOM     15  C   UNL     1       3.363   4.367  18.686  0.00  0.00    +0.000 A 
ATOM     16  C   UNL     1       2.849   4.023  19.921  0.00  0.00    +0.000 A 
ATOM     17  S   UNL     1       2.063   5.361  20.632  0.00  0.00    +0.000 S 
ATOM     18  C   UNL     1       2.466   6.332  19.264  0.00  0.00    +0.000 A 
ATOM     19  N   UNL     1       3.108   5.687  18.308  0.00  0.00    +0.000 NA
BRANCH  18  20
ATOM     20  C   UNL     1       2.037   7.740  19.179  0.00  0.00    +0.000 A 
ATOM     21  C   UNL     1       1.390   8.391  20.240  0.00  0.00    +0.000 A 
ATOM     22  C   UNL     1       0.960   9.715  20.117  0.00  0.00    +0.000 A 
ATOM     23  C   UNL     1       1.181  10.411  18.932  0.00  0.00    +0.000 A 
ATOM     24  C   UNL     1       1.842   9.792  17.874  0.00  0.00    +0.000 A 
ATOM     25  C   UNL     1       2.275   8.468  18.000  0.00  0.00    +0.000 A 
ENDBRANCH  18  20
ENDBRANCH   2  15
TORSDOF 6
ENDMDL
MODEL 5
REMARK VINA RESULT:      -7.6      2.146      2.898
REMARK  Name = 
REMARK  6 active torsions:
REMARK  status: ('A' for Active; 'I' for Inactive)
REMARK    1  A    between atoms: C_2  and  C_3
REMARK    2  A    between atoms: C_2  and  C_12
REMARK    3  A    between atoms: C_5  and  O_6
REMARK    4  A    between atoms: C_7  and  O_8
REMARK    5  A    between atoms: C_9  and  O_10
REMARK    6  A    between atoms: C_15  and  C_16
REMARK                            x       y       z     vdW  Elec       q    Type
REMARK                         _______ _______ _______ _____ _____    ______ ____
ROOT
ATOM      1  O   UNL     1       2.017   4.394  18.846  0.00  0.00    +0.000 OA
ATOM      2  C   UNL     1       2.790   5.332  18.669  0.00  0.00    +0.000 C 
ENDROOT
BRANCH   2   3
ATOM      3  C   UNL     1       4.190   5.065  18.237  0.00  0.00    +0.000 A 
ATOM      4  C   UNL     1       4.456   4.497  16.976  0.00  0.00    +0.000 A 
ATOM      5  C   UNL     1       5.765   4.237  16.600  0.00  0.00    +0.000 A 
ATOM      6  C   UNL     1       6.809   4.514  17.472  0.00  0.00    +0.000 A 
ATOM      7  C   UNL     1       6.548   5.046  18.730  0.00  0.00    +0.000 A 
ATOM      8  C   UNL     1       5.245   5.322  19.127  0.00  0.00    +0.000 A 
BRANCH   5   9
ATOM      9  O   UNL     1       6.070   3.698  15.382  0.00  0.00    +0.000 OA
ATOM     10  H   UNL     1       5.364   3.074  15.138  0.00  0.00    +0.000 HD
ENDBRANCH   5   9
BRANCH   6  11
ATOM     11  O   UNL     1       8.102   4.261  17.108  0.00  0.00    +0.000 OA
ATOM     12  H   UNL     1       8.116   4.429  16.143  0.00  0.00    +0.000 HD
ENDBRANCH   6  11
BRANCH   7  13
ATOM     13  O   UNL     1       7.581   5.301  19.585  0.00  0.00    +0.000 OA
ATOM     14  H   UNL     1       7.170   5.338  20.469  0.00  0.00    +0.000 HD
ENDBRANCH   7  13
ENDBRANCH   2   3
BRANCH   2  15
ATOM     15  C   UNL     1       2.369   6.727  18.821  0.00  0.00    +0.000 A 
ATOM     16  C   UNL     1       2.605   7.703  17.873  0.00  0.00    +0.000 A 
ATOM     17  S   UNL     1       1.978   9.204  18.395  0.00  0.00    +0.000 S 
ATOM     18  C   UNL     1       1.410   8.468  19.848  0.00  0.00    +0.000 A 
ATOM     19  N   UNL     1       1.710   7.188  19.964  0.00  0.00    +0.000 NA
BRANCH  18  20
ATOM     20  C   UNL     1       0.722   9.261  20.883  0.00  0.00    +0.000 A 
ATOM     21  C   UNL     1       0.654   8.847  22.222  0.00  0.00    +0.000 A 
ATOM     22  C   UNL     1      -0.038   9.600  23.174  0.00  0.00    +0.000 A 
ATOM     23  C   UNL     1      -0.664  10.787  22.801  0.00  0.00    +0.000 A 
ATOM     24  C   UNL     1      -0.589  11.228  21.483  0.00  0.00    +0.000 A 
ATOM     25  C   UNL     1       0.107  10.475  20.532  0.00  0.00    +0.000 A 
ENDBRANCH  18  20
ENDBRANCH   2  15
TORSDOF 6
ENDMDL
MODEL 6
REMARK VINA RESULT:      -7.6      2.079      2.931
REMARK  Name = 
REMARK  6 active torsions:
REMARK  status: ('A' for Active; 'I' for Inactive)
REMARK    1  A    between atoms: C_2  and  C_3
REMARK    2  A    between atoms: C_2  and  C_12
REMARK    3  A    between atoms: C_5  and  O_6
REMARK    4  A    between atoms: C_7  and  O_8
REMARK    5  A    between atoms: C_9  and  O_10
REMARK    6  A    between atoms: C_15  and  C_16
REMARK                            x       y       z     vdW  Elec       q    Type
REMARK                         _______ _______ _______ _____ _____    ______ ____
ROOT
ATOM      1  O   UNL     1       2.668   4.556  20.085  0.00  0.00    +0.000 OA
ATOM      2  C   UNL     1       3.165   5.458  19.416  0.00  0.00    +0.000 C 
ENDROOT
BRANCH   2   3
ATOM      3  C   UNL     1       4.410   5.204  18.639  0.00  0.00    +0.000 A 
ATOM      4  C   UNL     1       4.346   4.743  17.311  0.00  0.00    +0.000 A 
ATOM      5  C   UNL     1       5.517   4.492  16.611  0.00  0.00    +0.000 A 
ATOM      6  C   UNL     1       6.748   4.675  17.226  0.00  0.00    +0.000 A 
ATOM      7  C   UNL     1       6.816   5.100  18.548  0.00  0.00    +0.000 A 
ATOM      8  C   UNL     1       5.656   5.364  19.268  0.00  0.00    +0.000 A 
BRANCH   5   9
ATOM      9  O   UNL     1       5.502   4.055  15.317  0.00  0.00    +0.000 OA
ATOM     10  H   UNL     1       6.015   4.682  14.776  0.00  0.00    +0.000 HD
ENDBRANCH   5   9
BRANCH   6  11
ATOM     11  O   UNL     1       7.907   4.430  16.542  0.00  0.00    +0.000 OA
ATOM     12  H   UNL     1       8.091   3.484  16.714  0.00  0.00    +0.000 HD
ENDBRANCH   6  11
BRANCH   7  13
ATOM     13  O   UNL     1       8.031   5.262  19.147  0.00  0.00    +0.000 OA
ATOM     14  H   UNL     1       8.647   4.731  18.607  0.00  0.00    +0.000 HD
ENDBRANCH   7  13
ENDBRANCH   2   3
BRANCH   2  15
ATOM     15  C   UNL     1       2.543   6.781  19.310  0.00  0.00    +0.000 A 
ATOM     16  C   UNL     1       2.610   7.568  18.177  0.00  0.00    +0.000 A 
ATOM     17  S   UNL     1       1.778   9.038  18.423  0.00  0.00    +0.000 S 
ATOM     18  C   UNL     1       1.357   8.540  20.020  0.00  0.00    +0.000 A 
ATOM     19  N   UNL     1       1.847   7.366  20.371  0.00  0.00    +0.000 NA
BRANCH  18  20
ATOM     20  C   UNL     1       0.581   9.421  20.911  0.00  0.00    +0.000 A 
ATOM     21  C   UNL     1       0.100  10.672  20.494  0.00  0.00    +0.000 A 
ATOM     22  C   UNL     1      -0.599  11.503  21.373  0.00  0.00    +0.000 A 
ATOM     23  C   UNL     1      -0.838  11.090  22.681  0.00  0.00    +0.000 A 
ATOM     24  C   UNL     1      -0.391   9.842  23.108  0.00  0.00    +0.000 A 
ATOM     25  C   UNL     1       0.306   9.010  22.227  0.00  0.00    +0.000 A 
ENDBRANCH  18  20
ENDBRANCH   2  15
TORSDOF 6
ENDMDL
MODEL 7
REMARK VINA RESULT:      -7.6      2.199      3.391
REMARK  Name = 
REMARK  6 active torsions:
REMARK  status: ('A' for Active; 'I' for Inactive)
REMARK    1  A    between atoms: C_2  and  C_3
REMARK    2  A    between atoms: C_2  and  C_12
REMARK    3  A    between atoms: C_5  and  O_6
REMARK    4  A    between atoms: C_7  and  O_8
REMARK    5  A    between atoms: C_9  and  O_10
REMARK    6  A    between atoms: C_15  and  C_16
REMARK                            x       y       z     vdW  Elec       q    Type
REMARK                         _______ _______ _______ _____ _____    ______ ____
ROOT
ATOM      1  O   UNL     1       1.937   4.509  18.630  0.00  0.00    +0.000 OA
ATOM      2  C   UNL     1       2.749   5.430  18.591  0.00  0.00    +0.000 C 
ENDROOT
BRANCH   2   3
ATOM      3  C   UNL     1       4.185   5.139  18.321  0.00  0.00    +0.000 A 
ATOM      4  C   UNL     1       5.166   5.410  19.293  0.00  0.00    +0.000 A 
ATOM      5  C   UNL     1       6.501   5.152  19.016  0.00  0.00    +0.000 A 
ATOM      6  C   UNL     1       6.869   4.648  17.776  0.00  0.00    +0.000 A 
ATOM      7  C   UNL     1       5.906   4.408  16.803  0.00  0.00    +0.000 A 
ATOM      8  C   UNL     1       4.562   4.652  17.059  0.00  0.00    +0.000 A 
BRANCH   5   9
ATOM      9  O   UNL     1       7.485   5.389  19.933  0.00  0.00    +0.000 OA
ATOM     10  H   UNL     1       7.914   6.234  19.711  0.00  0.00    +0.000 HD
ENDBRANCH   5   9
BRANCH   6  11
ATOM     11  O   UNL     1       8.182   4.390  17.496  0.00  0.00    +0.000 OA
ATOM     12  H   UNL     1       8.673   4.835  18.218  0.00  0.00    +0.000 HD
ENDBRANCH   6  11
BRANCH   7  13
ATOM     13  O   UNL     1       6.282   3.926  15.582  0.00  0.00    +0.000 OA
ATOM     14  H   UNL     1       5.658   4.331  14.952  0.00  0.00    +0.000 HD
ENDBRANCH   7  13
ENDBRANCH   2   3
BRANCH   2  15
ATOM     15  C   UNL     1       2.346   6.830  18.753  0.00  0.00    +0.000 A 
ATOM     16  C   UNL     1       2.601   7.811  17.815  0.00  0.00    +0.000 A 
ATOM     17  S   UNL     1       1.993   9.315  18.347  0.00  0.00    +0.000 S 
ATOM     18  C   UNL     1       1.406   8.574  19.790  0.00  0.00    +0.000 A 
ATOM     19  N   UNL     1       1.688   7.289  19.896  0.00  0.00    +0.000 NA
BRANCH  18  20
ATOM     20  C   UNL     1       0.724   9.368  20.828  0.00  0.00    +0.000 A 
ATOM     21  C   UNL     1       0.596   8.918  22.152  0.00  0.00    +0.000 A 
ATOM     22  C   UNL     1      -0.089   9.674  23.106  0.00  0.00    +0.000 A 
ATOM     23  C   UNL     1      -0.650  10.899  22.752  0.00  0.00    +0.000 A 
ATOM     24  C   UNL     1      -0.515  11.375  21.450  0.00  0.00    +0.000 A 
ATOM     25  C   UNL     1       0.175  10.618  20.497  0.00  0.00    +0.000 A 
ENDBRANCH  18  20
ENDBRANCH   2  15
TORSDOF 6
ENDMDL
MODEL 8
REMARK VINA RESULT:      -7.6      2.052      3.385
REMARK  Name = 
REMARK  6 active torsions:
REMARK  status: ('A' for Active; 'I' for Inactive)
REMARK    1  A    between atoms: C_2  and  C_3
REMARK    2  A    between atoms: C_2  and  C_12
REMARK    3  A    between atoms: C_5  and  O_6
REMARK    4  A    between atoms: C_7  and  O_8
REMARK    5  A    between atoms: C_9  and  O_10
REMARK    6  A    between atoms: C_15  and  C_16
REMARK                            x       y       z     vdW  Elec       q    Type
REMARK                         _______ _______ _______ _____ _____    ______ ____
ROOT
ATOM      1  O   UNL     1       2.380   4.391  19.696  0.00  0.00    +0.000 OA
ATOM      2  C   UNL     1       3.036   5.322  19.236  0.00  0.00    +0.000 C 
ENDROOT
BRANCH   2   3
ATOM      3  C   UNL     1       4.399   5.070  18.692  0.00  0.00    +0.000 A 
ATOM      4  C   UNL     1       5.534   5.612  19.323  0.00  0.00    +0.000 A 
ATOM      5  C   UNL     1       6.794   5.383  18.789  0.00  0.00    +0.000 A 
ATOM      6  C   UNL     1       6.932   4.640  17.625  0.00  0.00    +0.000 A 
ATOM      7  C   UNL     1       5.811   4.129  16.982  0.00  0.00    +0.000 A 
ATOM      8  C   UNL     1       4.539   4.339  17.501  0.00  0.00    +0.000 A 
BRANCH   5   9
ATOM      9  O   UNL     1       7.924   5.879  19.374  0.00  0.00    +0.000 OA
ATOM     10  H   UNL     1       8.281   6.583  18.804  0.00  0.00    +0.000 HD
ENDBRANCH   5   9
BRANCH   6  11
ATOM     11  O   UNL     1       8.171   4.409  17.093  0.00  0.00    +0.000 OA
ATOM     12  H   UNL     1       8.177   4.932  16.265  0.00  0.00    +0.000 HD
ENDBRANCH   6  11
BRANCH   7  13
ATOM     13  O   UNL     1       5.958   3.412  15.829  0.00  0.00    +0.000 OA
ATOM     14  H   UNL     1       5.052   3.314  15.480  0.00  0.00    +0.000 HD
ENDBRANCH   7  13
ENDBRANCH   2   3
BRANCH   2  15
ATOM     15  C   UNL     1       2.501   6.685  19.157  0.00  0.00    +0.000 A 
ATOM     16  C   UNL     1       2.627   7.490  18.042  0.00  0.00    +0.000 A 
ATOM     17  S   UNL     1       1.890   9.006  18.316  0.00  0.00    +0.000 S 
ATOM     18  C   UNL     1       1.427   8.500  19.899  0.00  0.00    +0.000 A 
ATOM     19  N   UNL     1       1.837   7.290  20.227  0.00  0.00    +0.000 NA
BRANCH  18  20
ATOM     20  C   UNL     1       0.703   9.410  20.806  0.00  0.00    +0.000 A 
ATOM     21  C   UNL     1       0.566  10.781  20.538  0.00  0.00    +0.000 A 
ATOM     22  C   UNL     1      -0.093  11.627  21.434  0.00  0.00    +0.000 A 
ATOM     23  C   UNL     1      -0.633  11.111  22.609  0.00  0.00    +0.000 A 
ATOM     24  C   UNL     1      -0.529   9.750  22.883  0.00  0.00    +0.000 A 
ATOM     25  C   UNL     1       0.127   8.904  21.984  0.00  0.00    +0.000 A 
ENDBRANCH  18  20
ENDBRANCH   2  15
TORSDOF 6
ENDMDL
MODEL 9
REMARK VINA RESULT:      -7.6      3.404      7.029
REMARK  Name = 
REMARK  6 active torsions:
REMARK  status: ('A' for Active; 'I' for Inactive)
REMARK    1  A    between atoms: C_2  and  C_3
REMARK    2  A    between atoms: C_2  and  C_12
REMARK    3  A    between atoms: C_5  and  O_6
REMARK    4  A    between atoms: C_7  and  O_8
REMARK    5  A    between atoms: C_9  and  O_10
REMARK    6  A    between atoms: C_15  and  C_16
REMARK                            x       y       z     vdW  Elec       q    Type
REMARK                         _______ _______ _______ _____ _____    ______ ____
ROOT
ATOM      1  O   UNL     1       2.709   3.840  18.778  0.00  0.00    +0.000 OA
ATOM      2  C   UNL     1       3.306   4.862  18.449  0.00  0.00    +0.000 C 
ENDROOT
BRANCH   2   3
ATOM      3  C   UNL     1       2.756   6.194  18.826  0.00  0.00    +0.000 A 
ATOM      4  C   UNL     1       2.302   6.437  20.136  0.00  0.00    +0.000 A 
ATOM      5  C   UNL     1       1.775   7.678  20.463  0.00  0.00    +0.000 A 
ATOM      6  C   UNL     1       1.675   8.669  19.496  0.00  0.00    +0.000 A 
ATOM      7  C   UNL     1       2.094   8.422  18.194  0.00  0.00    +0.000 A 
ATOM      8  C   UNL     1       2.632   7.190  17.843  0.00  0.00    +0.000 A 
BRANCH   5   9
ATOM      9  O   UNL     1       1.333   7.962  21.724  0.00  0.00    +0.000 OA
ATOM     10  H   UNL     1       0.927   8.847  21.714  0.00  0.00    +0.000 HD
ENDBRANCH   5   9
BRANCH   6  11
ATOM     11  O   UNL     1       1.157   9.894  19.811  0.00  0.00    +0.000 OA
ATOM     12  H   UNL     1       1.797  10.267  20.453  0.00  0.00    +0.000 HD
ENDBRANCH   6  11
BRANCH   7  13
ATOM     13  O   UNL     1       1.978   9.400  17.248  0.00  0.00    +0.000 OA
ATOM     14  H   UNL     1       2.200   8.959  16.406  0.00  0.00    +0.000 HD
ENDBRANCH   7  13
ENDBRANCH   2   3
BRANCH   2  15
ATOM     15  C   UNL     1       4.582   4.820  17.730  0.00  0.00    +0.000 A 
ATOM     16  C   UNL     1       5.811   4.949  18.348  0.00  0.00    +0.000 A 
ATOM     17  S   UNL     1       7.069   4.856  17.197  0.00  0.00    +0.000 S 
ATOM     18  C   UNL     1       5.909   4.629  15.940  0.00  0.00    +0.000 A 
ATOM     19  N   UNL     1       4.654   4.669  16.343  0.00  0.00    +0.000 NA
BRANCH  18  20
ATOM     20  C   UNL     1       6.331   4.489  14.534  0.00  0.00    +0.000 A 
ATOM     21  C   UNL     1       5.714   3.587  13.654  0.00  0.00    +0.000 A 
ATOM     22  C   UNL     1       6.160   3.448  12.337  0.00  0.00    +0.000 A 
ATOM     23  C   UNL     1       7.225   4.218  11.878  0.00  0.00    +0.000 A 
ATOM     24  C   UNL     1       7.837   5.136  12.728  0.00  0.00    +0.000 A 
ATOM     25  C   UNL     1       7.387   5.277  14.044  0.00  0.00    +0.000 A 
ENDBRANCH  18  20
ENDBRANCH   2  15
TORSDOF 6
ENDMDL
