MODEL 1
REMARK VINA RESULT:      -8.1      0.000      0.000
REMARK  Name = 
REMARK  7 active torsions:
REMARK  status: ('A' for Active; 'I' for Inactive)
REMARK    1  A    between atoms: C_1  and  N_2
REMARK    2  A    between atoms: N_2  and  C_3
REMARK    3  A    between atoms: N_9  and  C_10
REMARK    4  A    between atoms: C_10  and  C_11
REMARK    5  A    between atoms: C_11  and  N_12
REMARK    6  A    between atoms: C_27  and  C_28
REMARK    7  A    between atoms: C_27  and  C_29
REMARK                            x       y       z     vdW  Elec       q    Type
REMARK                         _______ _______ _______ _____ _____    ______ ____
ROOT
ATOM      1  C   UNL     1       4.051   6.070  17.634  0.00  0.00    +0.000 A 
ATOM      2  N   UNL     1       3.623   7.314  17.373  0.00  0.00    +0.000 NA
ATOM      3  C   UNL     1       2.725   7.826  18.230  0.00  0.00    +0.000 A 
ATOM      4  S   UNL     1       2.200   9.433  18.032  0.00  0.00    +0.000 S 
ATOM      5  C   UNL     1       1.206   9.359  19.427  0.00  0.00    +0.000 A 
ATOM      6  C   UNL     1       0.421  10.359  20.022  0.00  0.00    +0.000 A 
ATOM      7  N   UNL     1       0.375  11.710  19.589  0.00  0.00    +0.000 N 
ATOM      8  N   UNL     1      -0.289   9.997  21.119  0.00  0.00    +0.000 NA
ATOM      9  C   UNL     1      -0.191   8.754  21.598  0.00  0.00    +0.000 A 
ATOM     10  N   UNL     1       0.556   7.768  21.120  0.00  0.00    +0.000 NA
ATOM     11  C   UNL     1       1.263   8.087  20.004  0.00  0.00    +0.000 A 
ATOM     12  C   UNL     1       2.163   7.189  19.325  0.00  0.00    +0.000 A 
ATOM     13  C   UNL     1       2.573   5.844  19.559  0.00  0.00    +0.000 A 
ATOM     14  C   UNL     1       3.556   5.299  18.700  0.00  0.00    +0.000 A 
ATOM     15  C   UNL     1       4.009   3.866  18.875  0.00  0.00    +0.000 C 
ATOM     16  O   UNL     1       3.653   3.271  20.125  0.00  0.00    +0.000 OA
ATOM     17  C   UNL     1       2.294   3.495  20.522  0.00  0.00    +0.000 C 
ATOM     18  C   UNL     1       1.298   2.887  19.521  0.00  0.00    +0.000 C 
ATOM     19  C   UNL     1       2.131   2.759  21.860  0.00  0.00    +0.000 C 
ATOM     20  C   UNL     1       2.079   5.008  20.724  0.00  0.00    +0.000 C 
ATOM     21  H   UNL     1       1.191  11.929  19.022  0.00  0.00    +0.000 HD
ENDROOT
BRANCH   1  23
ATOM     22  C   UNL     1       5.295   6.271  15.577  0.00  0.00    +0.000 C 
ATOM     23  N   UNL     1       5.045   5.517  16.798  0.00  0.00    +0.000 N 
ATOM     24  H   UNL     1       5.902   5.419  17.339  0.00  0.00    +0.000 HD
ENDBRANCH   1  23
BRANCH   7  25
ATOM     25  C   UNL     1       0.176  12.588  20.750  0.00  0.00    +0.000 C 
BRANCH  25  26
ATOM     26  C   UNL     1      -1.124  13.424  20.745  0.00  0.00    +0.000 C 
BRANCH  26  27
ATOM     27  N   UNL     1      -1.468  13.904  22.112  0.00  0.00    +0.000 NA
ATOM     28  C   UNL     1      -1.264  12.876  23.155  0.00  0.00    +0.000 C 
ATOM     29  C   UNL     1      -2.337  11.769  23.175  0.00  0.00    +0.000 C 
ATOM     30  O   UNL     1      -3.674  12.291  23.196  0.00  0.00    +0.000 OA
ATOM     31  C   UNL     1      -3.885  13.236  22.139  0.00  0.00    +0.000 C 
ATOM     32  C   UNL     1      -2.865  14.378  22.244  0.00  0.00    +0.000 C 
ENDBRANCH  26  27
ENDBRANCH  25  26
ENDBRANCH   7  25
TORSDOF 4
ENDMDL
MODEL 2
REMARK VINA RESULT:      -8.0      2.468      3.197
REMARK  Name = 
REMARK  7 active torsions:
REMARK  status: ('A' for Active; 'I' for Inactive)
REMARK    1  A    between atoms: C_1  and  N_2
REMARK    2  A    between atoms: N_2  and  C_3
REMARK    3  A    between atoms: N_9  and  C_10
REMARK    4  A    between atoms: C_10  and  C_11
REMARK    5  A    between atoms: C_11  and  N_12
REMARK    6  A    between atoms: C_27  and  C_28
REMARK    7  A    between atoms: C_27  and  C_29
REMARK                            x       y       z     vdW  Elec       q    Type
REMARK                         _______ _______ _______ _____ _____    ______ ____
ROOT
ATOM      1  C   UNL     1       3.832   5.834  17.525  0.00  0.00    +0.000 A 
ATOM      2  N   UNL     1       3.512   7.107  17.251  0.00  0.00    +0.000 NA
ATOM      3  C   UNL     1       2.737   7.733  18.151  0.00  0.00    +0.000 A 
ATOM      4  S   UNL     1       2.362   9.378  17.933  0.00  0.00    +0.000 S 
ATOM      5  C   UNL     1       1.475   9.448  19.398  0.00  0.00    +0.000 A 
ATOM      6  C   UNL     1       0.842  10.540  20.011  0.00  0.00    +0.000 A 
ATOM      7  N   UNL     1       0.898  11.875  19.533  0.00  0.00    +0.000 N 
ATOM      8  N   UNL     1       0.184  10.285  21.169  0.00  0.00    +0.000 NA
ATOM      9  C   UNL     1       0.194   9.053  21.686  0.00  0.00    +0.000 A 
ATOM     10  N   UNL     1       0.801   7.981  21.192  0.00  0.00    +0.000 NA
ATOM     11  C   UNL     1       1.449   8.194  20.017  0.00  0.00    +0.000 A 
ATOM     12  C   UNL     1       2.200   7.189  19.307  0.00  0.00    +0.000 A 
ATOM     13  C   UNL     1       2.490   5.816  19.560  0.00  0.00    +0.000 A 
ATOM     14  C   UNL     1       3.345   5.148  18.652  0.00  0.00    +0.000 A 
ATOM     15  C   UNL     1       3.665   3.683  18.847  0.00  0.00    +0.000 C 
ATOM     16  O   UNL     1       3.347   3.164  20.141  0.00  0.00    +0.000 OA
ATOM     17  C   UNL     1       2.052   3.537  20.626  0.00  0.00    +0.000 C 
ATOM     18  C   UNL     1       0.927   3.006  19.724  0.00  0.00    +0.000 C 
ATOM     19  C   UNL     1       1.919   2.862  22.000  0.00  0.00    +0.000 C 
ATOM     20  C   UNL     1       2.005   5.070  20.788  0.00  0.00    +0.000 C 
ATOM     21  H   UNL     1       1.686  11.992  18.901  0.00  0.00    +0.000 HD
ENDROOT
BRANCH   1  23
ATOM     22  C   UNL     1       5.355   6.016  15.663  0.00  0.00    +0.000 C 
ATOM     23  N   UNL     1       4.700   5.157  16.640  0.00  0.00    +0.000 N 
ATOM     24  H   UNL     1       5.390   4.652  17.191  0.00  0.00    +0.000 HD
ENDBRANCH   1  23
BRANCH   7  25
ATOM     25  C   UNL     1       0.876  12.803  20.673  0.00  0.00    +0.000 C 
BRANCH  25  26
ATOM     26  C   UNL     1       1.661  14.120  20.482  0.00  0.00    +0.000 C 
BRANCH  26  27
ATOM     27  N   UNL     1       1.481  14.667  19.110  0.00  0.00    +0.000 NA
ATOM     28  C   UNL     1       2.758  14.864  18.392  0.00  0.00    +0.000 C 
ATOM     29  C   UNL     1       3.576  16.080  18.869  0.00  0.00    +0.000 C 
ATOM     30  O   UNL     1       2.800  17.287  18.915  0.00  0.00    +0.000 OA
ATOM     31  C   UNL     1       1.595  17.109  19.671  0.00  0.00    +0.000 C 
ATOM     32  C   UNL     1       0.765  15.965  19.075  0.00  0.00    +0.000 C 
ENDBRANCH  26  27
ENDBRANCH  25  26
ENDBRANCH   7  25
TORSDOF 4
ENDMDL
MODEL 3
REMARK VINA RESULT:      -8.0      1.850      3.538
REMARK  Name = 
REMARK  7 active torsions:
REMARK  status: ('A' for Active; 'I' for Inactive)
REMARK    1  A    between atoms: C_1  and  N_2
REMARK    2  A    between atoms: N_2  and  C_3
REMARK    3  A    between atoms: N_9  and  C_10
REMARK    4  A    between atoms: C_10  and  C_11
REMARK    5  A    between atoms: C_11  and  N_12
REMARK    6  A    between atoms: C_27  and  C_28
REMARK    7  A    between atoms: C_27  and  C_29
REMARK                            x       y       z     vdW  Elec       q    Type
REMARK                         _______ _______ _______ _____ _____    ______ ____
ROOT
ATOM      1  C   UNL     1       2.872   4.293  20.098  0.00  0.00    +0.000 A 
ATOM      2  N   UNL     1       2.159   5.149  20.844  0.00  0.00    +0.000 NA
ATOM      3  C   UNL     1       2.010   6.388  20.349  0.00  0.00    +0.000 A 
ATOM      4  S   UNL     1       1.040   7.512  21.182  0.00  0.00    +0.000 S 
ATOM      5  C   UNL     1       1.279   8.717  19.988  0.00  0.00    +0.000 A 
ATOM      6  C   UNL     1       0.740  10.010  19.899  0.00  0.00    +0.000 A 
ATOM      7  N   UNL     1      -0.219  10.545  20.798  0.00  0.00    +0.000 N 
ATOM      8  N   UNL     1       1.137  10.759  18.840  0.00  0.00    +0.000 NA
ATOM      9  C   UNL     1       1.969  10.243  17.931  0.00  0.00    +0.000 A 
ATOM     10  N   UNL     1       2.488   9.022  17.922  0.00  0.00    +0.000 NA
ATOM     11  C   UNL     1       2.133   8.251  18.983  0.00  0.00    +0.000 A 
ATOM     12  C   UNL     1       2.550   6.885  19.173  0.00  0.00    +0.000 A 
ATOM     13  C   UNL     1       3.360   5.989  18.417  0.00  0.00    +0.000 A 
ATOM     14  C   UNL     1       3.492   4.662  18.892  0.00  0.00    +0.000 A 
ATOM     15  C   UNL     1       4.365   3.673  18.152  0.00  0.00    +0.000 C 
ATOM     16  O   UNL     1       4.723   4.062  16.824  0.00  0.00    +0.000 OA
ATOM     17  C   UNL     1       5.167   5.419  16.703  0.00  0.00    +0.000 C 
ATOM     18  C   UNL     1       6.439   5.681  17.526  0.00  0.00    +0.000 C 
ATOM     19  C   UNL     1       5.513   5.607  15.219  0.00  0.00    +0.000 C 
ATOM     20  C   UNL     1       4.008   6.357  17.095  0.00  0.00    +0.000 C 
ATOM     21  H   UNL     1      -0.688   9.797  21.302  0.00  0.00    +0.000 HD
ENDROOT
BRANCH   1  23
ATOM     22  C   UNL     1       2.108   2.605  21.643  0.00  0.00    +0.000 C 
ATOM     23  N   UNL     1       2.999   2.960  20.547  0.00  0.00    +0.000 N 
ATOM     24  H   UNL     1       2.854   2.339  19.754  0.00  0.00    +0.000 HD
ENDBRANCH   1  23
BRANCH   7  25
ATOM     25  C   UNL     1      -1.113  11.457  20.070  0.00  0.00    +0.000 C 
BRANCH  25  26
ATOM     26  C   UNL     1      -1.861  12.497  20.935  0.00  0.00    +0.000 C 
BRANCH  26  27
ATOM     27  N   UNL     1      -1.411  12.450  22.353  0.00  0.00    +0.000 NA
ATOM     28  C   UNL     1      -2.418  11.862  23.262  0.00  0.00    +0.000 C 
ATOM     29  C   UNL     1      -3.610  12.788  23.574  0.00  0.00    +0.000 C 
ATOM     30  O   UNL     1      -3.199  14.093  24.008  0.00  0.00    +0.000 OA
ATOM     31  C   UNL     1      -2.275  14.686  23.087  0.00  0.00    +0.000 C 
ATOM     32  C   UNL     1      -1.053  13.776  22.910  0.00  0.00    +0.000 C 
ENDBRANCH  26  27
ENDBRANCH  25  26
ENDBRANCH   7  25
TORSDOF 4
ENDMDL
MODEL 4
REMARK VINA RESULT:      -7.9      2.968      4.541
REMARK  Name = 
REMARK  7 active torsions:
REMARK  status: ('A' for Active; 'I' for Inactive)
REMARK    1  A    between atoms: C_1  and  N_2
REMARK    2  A    between atoms: N_2  and  C_3
REMARK    3  A    between atoms: N_9  and  C_10
REMARK    4  A    between atoms: C_10  and  C_11
REMARK    5  A    between atoms: C_11  and  N_12
REMARK    6  A    between atoms: C_27  and  C_28
REMARK    7  A    between atoms: C_27  and  C_29
REMARK                            x       y       z     vdW  Elec       q    Type
REMARK                         _______ _______ _______ _____ _____    ______ ____
ROOT
ATOM      1  C   UNL     1       2.595   4.095  20.311  0.00  0.00    +0.000 A 
ATOM      2  N   UNL     1       1.934   5.090  20.921  0.00  0.00    +0.000 NA
ATOM      3  C   UNL     1       1.930   6.275  20.290  0.00  0.00    +0.000 A 
ATOM      4  S   UNL     1       1.035   7.568  20.941  0.00  0.00    +0.000 S 
ATOM      5  C   UNL     1       1.449   8.607  19.643  0.00  0.00    +0.000 A 
ATOM      6  C   UNL     1       1.044   9.926  19.386  0.00  0.00    +0.000 A 
ATOM      7  N   UNL     1       0.098  10.643  20.166  0.00  0.00    +0.000 N 
ATOM      8  N   UNL     1       1.563  10.514  18.280  0.00  0.00    +0.000 NA
ATOM      9  C   UNL     1       2.384   9.827  17.482  0.00  0.00    +0.000 A 
ATOM     10  N   UNL     1       2.782   8.570  17.631  0.00  0.00    +0.000 NA
ATOM     11  C   UNL     1       2.301   7.957  18.745  0.00  0.00    +0.000 A 
ATOM     12  C   UNL     1       2.573   6.587  19.102  0.00  0.00    +0.000 A 
ATOM     13  C   UNL     1       3.328   5.543  18.493  0.00  0.00    +0.000 A 
ATOM     14  C   UNL     1       3.307   4.271  19.112  0.00  0.00    +0.000 A 
ATOM     15  C   UNL     1       4.114   3.130  18.533  0.00  0.00    +0.000 C 
ATOM     16  O   UNL     1       4.573   3.336  17.195  0.00  0.00    +0.000 OA
ATOM     17  C   UNL     1       5.152   4.625  16.959  0.00  0.00    +0.000 C 
ATOM     18  C   UNL     1       6.403   4.858  17.823  0.00  0.00    +0.000 C 
ATOM     19  C   UNL     1       5.588   4.615  15.486  0.00  0.00    +0.000 C 
ATOM     20  C   UNL     1       4.072   5.702  17.181  0.00  0.00    +0.000 C 
ATOM     21  H   UNL     1      -0.466  10.001  20.717  0.00  0.00    +0.000 HD
ENDROOT
BRANCH   1  23
ATOM     22  C   UNL     1       1.421   2.571  21.767  0.00  0.00    +0.000 C 
ATOM     23  N   UNL     1       2.569   2.814  20.905  0.00  0.00    +0.000 N 
ATOM     24  H   UNL     1       2.614   2.116  20.166  0.00  0.00    +0.000 HD
ENDBRANCH   1  23
BRANCH   7  25
ATOM     25  C   UNL     1      -0.666  11.547  19.295  0.00  0.00    +0.000 C 
BRANCH  25  26
ATOM     26  C   UNL     1      -2.173  11.232  19.156  0.00  0.00    +0.000 C 
BRANCH  26  27
ATOM     27  N   UNL     1      -2.404  10.058  18.272  0.00  0.00    +0.000 NA
ATOM     28  C   UNL     1      -1.837  10.231  16.917  0.00  0.00    +0.000 C 
ATOM     29  C   UNL     1      -2.638  11.187  16.011  0.00  0.00    +0.000 C 
ATOM     30  O   UNL     1      -4.037  10.867  15.966  0.00  0.00    +0.000 OA
ATOM     31  C   UNL     1      -4.595  10.768  17.282  0.00  0.00    +0.000 C 
ATOM     32  C   UNL     1      -3.835   9.714  18.098  0.00  0.00    +0.000 C 
ENDBRANCH  26  27
ENDBRANCH  25  26
ENDBRANCH   7  25
TORSDOF 4
ENDMDL
MODEL 5
REMARK VINA RESULT:      -7.9      2.397      3.081
REMARK  Name = 
REMARK  7 active torsions:
REMARK  status: ('A' for Active; 'I' for Inactive)
REMARK    1  A    between atoms: C_1  and  N_2
REMARK    2  A    between atoms: N_2  and  C_3
REMARK    3  A    between atoms: N_9  and  C_10
REMARK    4  A    between atoms: C_10  and  C_11
REMARK    5  A    between atoms: C_11  and  N_12
REMARK    6  A    between atoms: C_27  and  C_28
REMARK    7  A    between atoms: C_27  and  C_29
REMARK                            x       y       z     vdW  Elec       q    Type
REMARK                         _______ _______ _______ _____ _____    ______ ____
ROOT
ATOM      1  C   UNL     1       3.759   6.451  17.635  0.00  0.00    +0.000 A 
ATOM      2  N   UNL     1       3.353   7.719  17.473  0.00  0.00    +0.000 NA
ATOM      3  C   UNL     1       2.513   8.198  18.404  0.00  0.00    +0.000 A 
ATOM      4  S   UNL     1       2.023   9.826  18.332  0.00  0.00    +0.000 S 
ATOM      5  C   UNL     1       1.098   9.690  19.768  0.00  0.00    +0.000 A 
ATOM      6  C   UNL     1       0.372  10.670  20.463  0.00  0.00    +0.000 A 
ATOM      7  N   UNL     1       0.341  12.046  20.116  0.00  0.00    +0.000 N 
ATOM      8  N   UNL     1      -0.293  10.258  21.571  0.00  0.00    +0.000 NA
ATOM      9  C   UNL     1      -0.206   8.986  21.968  0.00  0.00    +0.000 A 
ATOM     10  N   UNL     1       0.490   8.013  21.393  0.00  0.00    +0.000 NA
ATOM     11  C   UNL     1       1.149   8.383  20.264  0.00  0.00    +0.000 A 
ATOM     12  C   UNL     1       1.989   7.508  19.486  0.00  0.00    +0.000 A 
ATOM     13  C   UNL     1       2.373   6.141  19.616  0.00  0.00    +0.000 A 
ATOM     14  C   UNL     1       3.297   5.627  18.676  0.00  0.00    +0.000 A 
ATOM     15  C   UNL     1       3.719   4.175  18.741  0.00  0.00    +0.000 C 
ATOM     16  O   UNL     1       3.409   3.513  19.969  0.00  0.00    +0.000 OA
ATOM     17  C   UNL     1       2.078   3.744  20.447  0.00  0.00    +0.000 C 
ATOM     18  C   UNL     1       1.017   3.225  19.464  0.00  0.00    +0.000 C 
ATOM     19  C   UNL     1       1.962   2.931  21.745  0.00  0.00    +0.000 C 
ATOM     20  C   UNL     1       1.915   5.246  20.752  0.00  0.00    +0.000 C 
ATOM     21  H   UNL     1       1.134  12.279  19.522  0.00  0.00    +0.000 HD
ENDROOT
BRANCH   1  23
ATOM     22  C   UNL     1       6.054   6.421  16.892  0.00  0.00    +0.000 C 
ATOM     23  N   UNL     1       4.695   5.926  16.717  0.00  0.00    +0.000 N 
ATOM     24  H   UNL     1       4.674   4.911  16.782  0.00  0.00    +0.000 HD
ENDBRANCH   1  23
BRANCH   7  25
ATOM     25  C   UNL     1       0.224  12.855  21.337  0.00  0.00    +0.000 C 
BRANCH  25  26
ATOM     26  C   UNL     1       0.767  14.298  21.242  0.00  0.00    +0.000 C 
BRANCH  26  27
ATOM     27  N   UNL     1       2.105  14.419  21.884  0.00  0.00    +0.000 NA
ATOM     28  C   UNL     1       2.478  15.817  22.188  0.00  0.00    +0.000 C 
ATOM     29  C   UNL     1       2.891  16.646  20.956  0.00  0.00    +0.000 C 
ATOM     30  O   UNL     1       3.887  15.992  20.155  0.00  0.00    +0.000 OA
ATOM     31  C   UNL     1       3.488  14.660  19.807  0.00  0.00    +0.000 C 
ATOM     32  C   UNL     1       3.208  13.846  21.077  0.00  0.00    +0.000 C 
ENDBRANCH  26  27
ENDBRANCH  25  26
ENDBRANCH   7  25
TORSDOF 4
ENDMDL
MODEL 6
REMARK VINA RESULT:      -7.9      2.434      3.202
REMARK  Name = 
REMARK  7 active torsions:
REMARK  status: ('A' for Active; 'I' for Inactive)
REMARK    1  A    between atoms: C_1  and  N_2
REMARK    2  A    between atoms: N_2  and  C_3
REMARK    3  A    between atoms: N_9  and  C_10
REMARK    4  A    between atoms: C_10  and  C_11
REMARK    5  A    between atoms: C_11  and  N_12
REMARK    6  A    between atoms: C_27  and  C_28
REMARK    7  A    between atoms: C_27  and  C_29
REMARK                            x       y       z     vdW  Elec       q    Type
REMARK                         _______ _______ _______ _____ _____    ______ ____
ROOT
ATOM      1  C   UNL     1       3.919   5.696  17.521  0.00  0.00    +0.000 A 
ATOM      2  N   UNL     1       3.578   6.962  17.236  0.00  0.00    +0.000 NA
ATOM      3  C   UNL     1       2.789   7.580  18.128  0.00  0.00    +0.000 A 
ATOM      4  S   UNL     1       2.385   9.218  17.898  0.00  0.00    +0.000 S 
ATOM      5  C   UNL     1       1.492   9.281  19.358  0.00  0.00    +0.000 A 
ATOM      6  C   UNL     1       0.836  10.366  19.962  0.00  0.00    +0.000 A 
ATOM      7  N   UNL     1       0.871  11.699  19.474  0.00  0.00    +0.000 N 
ATOM      8  N   UNL     1       0.178  10.108  21.119  0.00  0.00    +0.000 NA
ATOM      9  C   UNL     1       0.208   8.880  21.644  0.00  0.00    +0.000 A 
ATOM     10  N   UNL     1       0.835   7.816  21.160  0.00  0.00    +0.000 NA
ATOM     11  C   UNL     1       1.484   8.031  19.986  0.00  0.00    +0.000 A 
ATOM     12  C   UNL     1       2.256   7.035  19.286  0.00  0.00    +0.000 A 
ATOM     13  C   UNL     1       2.569   5.670  19.550  0.00  0.00    +0.000 A 
ATOM     14  C   UNL     1       3.440   5.011  18.650  0.00  0.00    +0.000 A 
ATOM     15  C   UNL     1       3.784   3.552  18.856  0.00  0.00    +0.000 C 
ATOM     16  O   UNL     1       3.470   3.037  20.152  0.00  0.00    +0.000 OA
ATOM     17  C   UNL     1       2.167   3.390  20.630  0.00  0.00    +0.000 C 
ATOM     18  C   UNL     1       1.055   2.833  19.726  0.00  0.00    +0.000 C 
ATOM     19  C   UNL     1       2.039   2.722  22.007  0.00  0.00    +0.000 C 
ATOM     20  C   UNL     1       2.092   4.923  20.781  0.00  0.00    +0.000 C 
ATOM     21  H   UNL     1       1.660  11.826  18.845  0.00  0.00    +0.000 HD
ENDROOT
BRANCH   1  23
ATOM     22  C   UNL     1       5.368   5.873  15.600  0.00  0.00    +0.000 C 
ATOM     23  N   UNL     1       4.802   5.029  16.644  0.00  0.00    +0.000 N 
ATOM     24  H   UNL     1       5.541   4.601  17.197  0.00  0.00    +0.000 HD
ENDBRANCH   1  23
BRANCH   7  25
ATOM     25  C   UNL     1       0.828  12.634  20.608  0.00  0.00    +0.000 C 
BRANCH  25  26
ATOM     26  C   UNL     1       0.707  14.130  20.241  0.00  0.00    +0.000 C 
BRANCH  26  27
ATOM     27  N   UNL     1       1.978  14.859  20.500  0.00  0.00    +0.000 NA
ATOM     28  C   UNL     1       1.898  16.299  20.175  0.00  0.00    +0.000 C 
ATOM     29  C   UNL     1       1.919  16.612  18.666  0.00  0.00    +0.000 C 
ATOM     30  O   UNL     1       3.007  15.972  17.982  0.00  0.00    +0.000 OA
ATOM     31  C   UNL     1       3.038  14.564  18.247  0.00  0.00    +0.000 C 
ATOM     32  C   UNL     1       3.140  14.316  19.757  0.00  0.00    +0.000 C 
ENDBRANCH  26  27
ENDBRANCH  25  26
ENDBRANCH   7  25
TORSDOF 4
ENDMDL
MODEL 7
REMARK VINA RESULT:      -7.9      0.781      1.294
REMARK  Name = 
REMARK  7 active torsions:
REMARK  status: ('A' for Active; 'I' for Inactive)
REMARK    1  A    between atoms: C_1  and  N_2
REMARK    2  A    between atoms: N_2  and  C_3
REMARK    3  A    between atoms: N_9  and  C_10
REMARK    4  A    between atoms: C_10  and  C_11
REMARK    5  A    between atoms: C_11  and  N_12
REMARK    6  A    between atoms: C_27  and  C_28
REMARK    7  A    between atoms: C_27  and  C_29
REMARK                            x       y       z     vdW  Elec       q    Type
REMARK                         _______ _______ _______ _____ _____    ______ ____
ROOT
ATOM      1  C   UNL     1       3.957   5.981  17.603  0.00  0.00    +0.000 A 
ATOM      2  N   UNL     1       3.607   7.253  17.363  0.00  0.00    +0.000 NA
ATOM      3  C   UNL     1       2.768   7.816  18.247  0.00  0.00    +0.000 A 
ATOM      4  S   UNL     1       2.347   9.456  18.075  0.00  0.00    +0.000 S 
ATOM      5  C   UNL     1       1.388   9.437  19.495  0.00  0.00    +0.000 A 
ATOM      6  C   UNL     1       0.688  10.482  20.118  0.00  0.00    +0.000 A 
ATOM      7  N   UNL     1       0.722  11.837  19.696  0.00  0.00    +0.000 N 
ATOM      8  N   UNL     1      -0.016  10.158  21.231  0.00  0.00    +0.000 NA
ATOM      9  C   UNL     1       0.011   8.907  21.699  0.00  0.00    +0.000 A 
ATOM     10  N   UNL     1       0.678   7.877  21.194  0.00  0.00    +0.000 NA
ATOM     11  C   UNL     1       1.375   8.158  20.062  0.00  0.00    +0.000 A 
ATOM     12  C   UNL     1       2.194   7.208  19.352  0.00  0.00    +0.000 A 
ATOM     13  C   UNL     1       2.519   5.837  19.566  0.00  0.00    +0.000 A 
ATOM     14  C   UNL     1       3.440   5.235  18.676  0.00  0.00    +0.000 A 
ATOM     15  C   UNL     1       3.801   3.774  18.829  0.00  0.00    +0.000 C 
ATOM     16  O   UNL     1       3.438   3.193  20.084  0.00  0.00    +0.000 OA
ATOM     17  C   UNL     1       2.109   3.503  20.519  0.00  0.00    +0.000 C 
ATOM     18  C   UNL     1       1.048   2.973  19.540  0.00  0.00    +0.000 C 
ATOM     19  C   UNL     1       1.932   2.768  21.856  0.00  0.00    +0.000 C 
ATOM     20  C   UNL     1       2.001   5.025  20.738  0.00  0.00    +0.000 C 
ATOM     21  H   UNL     1       1.535  12.005  19.109  0.00  0.00    +0.000 HD
ENDROOT
BRANCH   1  23
ATOM     22  C   UNL     1       5.326   6.210  15.630  0.00  0.00    +0.000 C 
ATOM     23  N   UNL     1       4.890   5.369  16.737  0.00  0.00    +0.000 N 
ATOM     24  H   UNL     1       5.688   5.064  17.288  0.00  0.00    +0.000 HD
ENDBRANCH   1  23
BRANCH   7  25
ATOM     25  C   UNL     1       0.612  12.715  20.869  0.00  0.00    +0.000 C 
BRANCH  25  26
ATOM     26  C   UNL     1      -0.555  13.728  20.843  0.00  0.00    +0.000 C 
BRANCH  26  27
ATOM     27  N   UNL     1      -1.709  13.250  21.652  0.00  0.00    +0.000 NA
ATOM     28  C   UNL     1      -2.888  14.137  21.561  0.00  0.00    +0.000 C 
ATOM     29  C   UNL     1      -2.757  15.451  22.356  0.00  0.00    +0.000 C 
ATOM     30  O   UNL     1      -2.355  15.238  23.718  0.00  0.00    +0.000 OA
ATOM     31  C   UNL     1      -1.171  14.434  23.796  0.00  0.00    +0.000 C 
ATOM     32  C   UNL     1      -1.402  13.090  23.093  0.00  0.00    +0.000 C 
ENDBRANCH  26  27
ENDBRANCH  25  26
ENDBRANCH   7  25
TORSDOF 4
ENDMDL
MODEL 8
REMARK VINA RESULT:      -7.9      2.781      4.352
REMARK  Name = 
REMARK  7 active torsions:
REMARK  status: ('A' for Active; 'I' for Inactive)
REMARK    1  A    between atoms: C_1  and  N_2
REMARK    2  A    between atoms: N_2  and  C_3
REMARK    3  A    between atoms: N_9  and  C_10
REMARK    4  A    between atoms: C_10  and  C_11
REMARK    5  A    between atoms: C_11  and  N_12
REMARK    6  A    between atoms: C_27  and  C_28
REMARK    7  A    between atoms: C_27  and  C_29
REMARK                            x       y       z     vdW  Elec       q    Type
REMARK                         _______ _______ _______ _____ _____    ______ ____
ROOT
ATOM      1  C   UNL     1       2.493   4.470  20.138  0.00  0.00    +0.000 A 
ATOM      2  N   UNL     1       1.826   5.360  20.889  0.00  0.00    +0.000 NA
ATOM      3  C   UNL     1       1.778   6.616  20.419  0.00  0.00    +0.000 A 
ATOM      4  S   UNL     1       0.871   7.790  21.255  0.00  0.00    +0.000 S 
ATOM      5  C   UNL     1       1.225   8.999  20.094  0.00  0.00    +0.000 A 
ATOM      6  C   UNL     1       0.783  10.330  20.022  0.00  0.00    +0.000 A 
ATOM      7  N   UNL     1      -0.157  10.914  20.912  0.00  0.00    +0.000 N 
ATOM      8  N   UNL     1       1.257  11.070  18.990  0.00  0.00    +0.000 NA
ATOM      9  C   UNL     1       2.072  10.514  18.089  0.00  0.00    +0.000 A 
ATOM     10  N   UNL     1       2.502   9.260  18.063  0.00  0.00    +0.000 NA
ATOM     11  C   UNL     1       2.067   8.494  19.098  0.00  0.00    +0.000 A 
ATOM     12  C   UNL     1       2.380   7.097  19.266  0.00  0.00    +0.000 A 
ATOM     13  C   UNL     1       3.141   6.161  18.508  0.00  0.00    +0.000 A 
ATOM     14  C   UNL     1       3.166   4.819  18.956  0.00  0.00    +0.000 A 
ATOM     15  C   UNL     1       3.983   3.785  18.213  0.00  0.00    +0.000 C 
ATOM     16  O   UNL     1       4.400   4.176  16.902  0.00  0.00    +0.000 OA
ATOM     17  C   UNL     1       4.942   5.499  16.822  0.00  0.00    +0.000 C 
ATOM     18  C   UNL     1       6.211   5.651  17.679  0.00  0.00    +0.000 C 
ATOM     19  C   UNL     1       5.337   5.693  15.350  0.00  0.00    +0.000 C 
ATOM     20  C   UNL     1       3.845   6.510  17.210  0.00  0.00    +0.000 C 
ATOM     21  H   UNL     1      -0.691  10.191  21.389  0.00  0.00    +0.000 HD
ENDROOT
BRANCH   1  23
ATOM     22  C   UNL     1       1.486   2.780  21.534  0.00  0.00    +0.000 C 
ATOM     23  N   UNL     1       2.513   3.122  20.560  0.00  0.00    +0.000 N 
ATOM     24  H   UNL     1       2.437   2.528  19.738  0.00  0.00    +0.000 HD
ENDBRANCH   1  23
BRANCH   7  25
ATOM     25  C   UNL     1      -0.966  11.903  20.186  0.00  0.00    +0.000 C 
BRANCH  25  26
ATOM     26  C   UNL     1      -2.380  11.440  19.770  0.00  0.00    +0.000 C 
BRANCH  26  27
ATOM     27  N   UNL     1      -2.746  11.953  18.422  0.00  0.00    +0.000 NA
ATOM     28  C   UNL     1      -4.118  11.584  18.014  0.00  0.00    +0.000 C 
ATOM     29  C   UNL     1      -4.282  10.108  17.598  0.00  0.00    +0.000 C 
ATOM     30  O   UNL     1      -3.308   9.694  16.627  0.00  0.00    +0.000 OA
ATOM     31  C   UNL     1      -1.975   9.994  17.060  0.00  0.00    +0.000 C 
ATOM     32  C   UNL     1      -1.839  11.496  17.343  0.00  0.00    +0.000 C 
ENDBRANCH  26  27
ENDBRANCH  25  26
ENDBRANCH   7  25
TORSDOF 4
ENDMDL
MODEL 9
REMARK VINA RESULT:      -7.8      2.218      2.815
REMARK  Name = 
REMARK  7 active torsions:
REMARK  status: ('A' for Active; 'I' for Inactive)
REMARK    1  A    between atoms: C_1  and  N_2
REMARK    2  A    between atoms: N_2  and  C_3
REMARK    3  A    between atoms: N_9  and  C_10
REMARK    4  A    between atoms: C_10  and  C_11
REMARK    5  A    between atoms: C_11  and  N_12
REMARK    6  A    between atoms: C_27  and  C_28
REMARK    7  A    between atoms: C_27  and  C_29
REMARK                            x       y       z     vdW  Elec       q    Type
REMARK                         _______ _______ _______ _____ _____    ______ ____
ROOT
ATOM      1  C   UNL     1       3.895   5.743  17.529  0.00  0.00    +0.000 A 
ATOM      2  N   UNL     1       3.562   7.013  17.253  0.00  0.00    +0.000 NA
ATOM      3  C   UNL     1       2.760   7.623  18.140  0.00  0.00    +0.000 A 
ATOM      4  S   UNL     1       2.365   9.264  17.921  0.00  0.00    +0.000 S 
ATOM      5  C   UNL     1       1.448   9.314  19.368  0.00  0.00    +0.000 A 
ATOM      6  C   UNL     1       0.786  10.394  19.973  0.00  0.00    +0.000 A 
ATOM      7  N   UNL     1       0.832  11.732  19.501  0.00  0.00    +0.000 N 
ATOM      8  N   UNL     1       0.109  10.124  21.116  0.00  0.00    +0.000 NA
ATOM      9  C   UNL     1       0.126   8.890  21.628  0.00  0.00    +0.000 A 
ATOM     10  N   UNL     1       0.759   7.830  21.142  0.00  0.00    +0.000 NA
ATOM     11  C   UNL     1       1.427   8.057  19.981  0.00  0.00    +0.000 A 
ATOM     12  C   UNL     1       2.207   7.066  19.283  0.00  0.00    +0.000 A 
ATOM     13  C   UNL     1       2.513   5.697  19.535  0.00  0.00    +0.000 A 
ATOM     14  C   UNL     1       3.396   5.046  18.642  0.00  0.00    +0.000 A 
ATOM     15  C   UNL     1       3.734   3.584  18.838  0.00  0.00    +0.000 C 
ATOM     16  O   UNL     1       3.397   3.056  20.123  0.00  0.00    +0.000 OA
ATOM     17  C   UNL     1       2.087   3.407  20.583  0.00  0.00    +0.000 C 
ATOM     18  C   UNL     1       0.988   2.863  19.656  0.00  0.00    +0.000 C 
ATOM     19  C   UNL     1       1.936   2.724  21.951  0.00  0.00    +0.000 C 
ATOM     20  C   UNL     1       2.014   4.938  20.751  0.00  0.00    +0.000 C 
ATOM     21  H   UNL     1       1.631  11.863  18.886  0.00  0.00    +0.000 HD
ENDROOT
BRANCH   1  23
ATOM     22  C   UNL     1       5.307   5.915  15.580  0.00  0.00    +0.000 C 
ATOM     23  N   UNL     1       4.791   5.083  16.659  0.00  0.00    +0.000 N 
ATOM     24  H   UNL     1       5.555   4.703  17.212  0.00  0.00    +0.000 HD
ENDBRANCH   1  23
BRANCH   7  25
ATOM     25  C   UNL     1       0.773  12.654  20.644  0.00  0.00    +0.000 C 
BRANCH  25  26
ATOM     26  C   UNL     1       2.080  13.417  20.960  0.00  0.00    +0.000 C 
BRANCH  26  27
ATOM     27  N   UNL     1       1.847  14.510  21.943  0.00  0.00    +0.000 NA
ATOM     28  C   UNL     1       0.693  15.367  21.596  0.00  0.00    +0.000 C 
ATOM     29  C   UNL     1       0.955  16.344  20.432  0.00  0.00    +0.000 C 
ATOM     30  O   UNL     1       2.154  17.113  20.612  0.00  0.00    +0.000 OA
ATOM     31  C   UNL     1       3.282  16.270  20.881  0.00  0.00    +0.000 C 
ATOM     32  C   UNL     1       3.011  15.409  22.122  0.00  0.00    +0.000 C 
ENDBRANCH  26  27
ENDBRANCH  25  26
ENDBRANCH   7  25
TORSDOF 4
ENDMDL
