MODEL 1
REMARK VINA RESULT:      -7.9      0.000      0.000
REMARK  Name = 
REMARK  6 active torsions:
REMARK  status: ('A' for Active; 'I' for Inactive)
REMARK    1  A    between atoms: C_1  and  N_2
REMARK    2  A    between atoms: N_5  and  C_6
REMARK    3  A    between atoms: C_9  and  N_10
REMARK    4  A    between atoms: C_16  and  S_17
REMARK    5  A    between atoms: S_17  and  C_18
REMARK    6  A    between atoms: N_24  and  C_25
REMARK                            x       y       z     vdW  Elec       q    Type
REMARK                         _______ _______ _______ _____ _____    ______ ____
ROOT
ATOM      1  N   UNL     1       8.258   8.168  17.054  0.00  0.00    +0.000 N 
ATOM      2  C   UNL     1       7.180   7.279  16.998  0.00  0.00    +0.000 A 
ATOM      3  N   UNL     1       7.475   6.075  16.455  0.00  0.00    +0.000 NA
ATOM      4  C   UNL     1       6.522   5.105  16.422  0.00  0.00    +0.000 A 
ATOM      5  C   UNL     1       5.258   5.367  16.928  0.00  0.00    +0.000 A 
ATOM      6  N   UNL     1       4.121   4.613  17.042  0.00  0.00    +0.000 NA
ATOM      7  C   UNL     1       3.238   5.417  17.602  0.00  0.00    +0.000 A 
ATOM      8  N   UNL     1       3.752   6.671  17.854  0.00  0.00    +0.000 N 
ATOM      9  C   UNL     1       5.063   6.638  17.431  0.00  0.00    +0.000 A 
ATOM     10  N   UNL     1       5.976   7.616  17.492  0.00  0.00    +0.000 NA
ATOM     11  H   UNL     1       9.081   7.688  16.721  0.00  0.00    +0.000 HD
ENDROOT
BRANCH   1  15
ATOM     12  C   UNL     1       8.993  11.588  19.505  0.00  0.00    +0.000 A 
ATOM     13  C   UNL     1       8.444  11.697  18.221  0.00  0.00    +0.000 A 
ATOM     14  C   UNL     1       8.187  10.564  17.427  0.00  0.00    +0.000 A 
ATOM     15  C   UNL     1       8.477   9.275  17.888  0.00  0.00    +0.000 A 
ATOM     16  C   UNL     1       8.962   9.164  19.187  0.00  0.00    +0.000 A 
ATOM     17  C   UNL     1       9.226  10.293  19.969  0.00  0.00    +0.000 A 
BRANCH  12  22
ATOM     18  C   UNL     1       8.314  15.812  23.017  0.00  0.00    +0.000 C 
ATOM     19  N   UNL     1       9.069  14.905  22.159  0.00  0.00    +0.000 NA
ATOM     20  C   UNL     1       8.619  15.013  20.750  0.00  0.00    +0.000 C 
ATOM     21  C   UNL     1       9.368  14.045  19.798  0.00  0.00    +0.000 C 
ATOM     22  N   UNL     1       9.256  12.675  20.309  0.00  0.00    +0.000 N 
ATOM     23  C   UNL     1       9.684  12.515  21.709  0.00  0.00    +0.000 C 
ATOM     24  C   UNL     1       8.907  13.504  22.608  0.00  0.00    +0.000 C 
ENDBRANCH  12  22
ENDBRANCH   1  15
BRANCH   8  25
ATOM     25  C   UNL     1       3.071   7.823  18.411  0.00  0.00    +0.000 C 
ATOM     26  C   UNL     1       2.054   8.486  17.483  0.00  0.00    +0.000 C 
ATOM     27  C   UNL     1       1.169   9.303  18.415  0.00  0.00    +0.000 C 
ATOM     28  C   UNL     1       1.209   8.607  19.774  0.00  0.00    +0.000 C 
ATOM     29  C   UNL     1       2.289   7.533  19.695  0.00  0.00    +0.000 C 
ENDBRANCH   8  25
BRANCH   7  30
ATOM     30  S   UNL     1       1.618   4.932  17.998  0.00  0.00    +0.000 S 
BRANCH  30  31
ATOM     31  C   UNL     1       1.993   3.933  19.430  0.00  0.00    +0.000 A 
ATOM     32  C   UNL     1       1.027   3.689  20.412  0.00  0.00    +0.000 A 
ATOM     33  C   UNL     1       1.341   2.920  21.534  0.00  0.00    +0.000 A 
ATOM     34  C   UNL     1       2.619   2.382  21.676  0.00  0.00    +0.000 A 
ATOM     35  C   UNL     1       3.580   2.598  20.688  0.00  0.00    +0.000 A 
ATOM     36  C   UNL     1       3.265   3.366  19.565  0.00  0.00    +0.000 A 
ENDBRANCH  30  31
ENDBRANCH   7  30
TORSDOF 5
ENDMDL
MODEL 2
REMARK VINA RESULT:      -7.7      5.806     10.548
REMARK  Name = 
REMARK  6 active torsions:
REMARK  status: ('A' for Active; 'I' for Inactive)
REMARK    1  A    between atoms: C_1  and  N_2
REMARK    2  A    between atoms: N_5  and  C_6
REMARK    3  A    between atoms: C_9  and  N_10
REMARK    4  A    between atoms: C_16  and  S_17
REMARK    5  A    between atoms: S_17  and  C_18
REMARK    6  A    between atoms: N_24  and  C_25
REMARK                            x       y       z     vdW  Elec       q    Type
REMARK                         _______ _______ _______ _____ _____    ______ ____
ROOT
ATOM      1  N   UNL     1      -0.295   9.575  20.999  0.00  0.00    +0.000 N 
ATOM      2  C   UNL     1      -0.270  10.935  21.323  0.00  0.00    +0.000 A 
ATOM      3  N   UNL     1      -1.172  11.305  22.260  0.00  0.00    +0.000 NA
ATOM      4  C   UNL     1      -1.184  12.589  22.710  0.00  0.00    +0.000 A 
ATOM      5  C   UNL     1      -0.282  13.505  22.189  0.00  0.00    +0.000 A 
ATOM      6  N   UNL     1      -0.047  14.830  22.437  0.00  0.00    +0.000 NA
ATOM      7  C   UNL     1       0.937  15.157  21.621  0.00  0.00    +0.000 A 
ATOM      8  N   UNL     1       1.351  14.097  20.843  0.00  0.00    +0.000 N 
ATOM      9  C   UNL     1       0.573  13.023  21.217  0.00  0.00    +0.000 A 
ATOM     10  N   UNL     1       0.623  11.767  20.757  0.00  0.00    +0.000 NA
ATOM     11  H   UNL     1      -0.968   9.120  21.600  0.00  0.00    +0.000 HD
ENDROOT
BRANCH   1  15
ATOM     12  C   UNL     1       2.671   7.074  19.213  0.00  0.00    +0.000 A 
ATOM     13  C   UNL     1       2.235   8.258  18.608  0.00  0.00    +0.000 A 
ATOM     14  C   UNL     1       1.270   9.088  19.212  0.00  0.00    +0.000 A 
ATOM     15  C   UNL     1       0.701   8.756  20.446  0.00  0.00    +0.000 A 
ATOM     16  C   UNL     1       1.181   7.613  21.076  0.00  0.00    +0.000 A 
ATOM     17  C   UNL     1       2.131   6.787  20.468  0.00  0.00    +0.000 A 
BRANCH  12  22
ATOM     18  C   UNL     1       7.534   4.906  17.701  0.00  0.00    +0.000 C 
ATOM     19  N   UNL     1       6.079   4.966  17.802  0.00  0.00    +0.000 NA
ATOM     20  C   UNL     1       5.552   6.181  17.135  0.00  0.00    +0.000 C 
ATOM     21  C   UNL     1       4.011   6.312  17.242  0.00  0.00    +0.000 C 
ATOM     22  N   UNL     1       3.612   6.240  18.652  0.00  0.00    +0.000 N 
ATOM     23  C   UNL     1       4.118   5.054  19.364  0.00  0.00    +0.000 C 
ATOM     24  C   UNL     1       5.654   4.976  19.221  0.00  0.00    +0.000 C 
ENDBRANCH  12  22
ENDBRANCH   1  15
BRANCH   8  25
ATOM     25  C   UNL     1       2.365  14.088  19.808  0.00  0.00    +0.000 C 
ATOM     26  C   UNL     1       1.912  14.630  18.452  0.00  0.00    +0.000 C 
ATOM     27  C   UNL     1       3.208  14.964  17.727  0.00  0.00    +0.000 C 
ATOM     28  C   UNL     1       4.242  15.275  18.806  0.00  0.00    +0.000 C 
ATOM     29  C   UNL     1       3.619  14.898  20.146  0.00  0.00    +0.000 C 
ENDBRANCH   8  25
BRANCH   7  30
ATOM     30  S   UNL     1       1.643  16.743  21.559  0.00  0.00    +0.000 S 
BRANCH  30  31
ATOM     31  C   UNL     1       0.802  17.341  20.102  0.00  0.00    +0.000 A 
ATOM     32  C   UNL     1      -0.573  17.149  19.933  0.00  0.00    +0.000 A 
ATOM     33  C   UNL     1      -1.214  17.607  18.780  0.00  0.00    +0.000 A 
ATOM     34  C   UNL     1      -0.484  18.268  17.793  0.00  0.00    +0.000 A 
ATOM     35  C   UNL     1       0.882  18.487  17.965  0.00  0.00    +0.000 A 
ATOM     36  C   UNL     1       1.522  18.030  19.120  0.00  0.00    +0.000 A 
ENDBRANCH  30  31
ENDBRANCH   7  30
TORSDOF 5
ENDMDL
MODEL 3
REMARK VINA RESULT:      -7.7      4.578      7.541
REMARK  Name = 
REMARK  6 active torsions:
REMARK  status: ('A' for Active; 'I' for Inactive)
REMARK    1  A    between atoms: C_1  and  N_2
REMARK    2  A    between atoms: N_5  and  C_6
REMARK    3  A    between atoms: C_9  and  N_10
REMARK    4  A    between atoms: C_16  and  S_17
REMARK    5  A    between atoms: S_17  and  C_18
REMARK    6  A    between atoms: N_24  and  C_25
REMARK                            x       y       z     vdW  Elec       q    Type
REMARK                         _______ _______ _______ _____ _____    ______ ____
ROOT
ATOM      1  N   UNL     1       3.032  15.578  19.858  0.00  0.00    +0.000 N 
ATOM      2  C   UNL     1       1.843  14.841  19.836  0.00  0.00    +0.000 A 
ATOM      3  N   UNL     1       0.718  15.592  19.862  0.00  0.00    +0.000 NA
ATOM      4  C   UNL     1      -0.495  14.984  19.765  0.00  0.00    +0.000 A 
ATOM      5  C   UNL     1      -0.563  13.603  19.658  0.00  0.00    +0.000 A 
ATOM      6  N   UNL     1      -1.605  12.724  19.539  0.00  0.00    +0.000 NA
ATOM      7  C   UNL     1      -1.039  11.533  19.486  0.00  0.00    +0.000 A 
ATOM      8  N   UNL     1       0.335  11.599  19.572  0.00  0.00    +0.000 N 
ATOM      9  C   UNL     1       0.648  12.938  19.670  0.00  0.00    +0.000 A 
ATOM     10  N   UNL     1       1.860  13.499  19.753  0.00  0.00    +0.000 NA
ATOM     11  H   UNL     1       2.795  16.559  19.826  0.00  0.00    +0.000 HD
ENDROOT
BRANCH   1  15
ATOM     12  C   UNL     1       6.997  14.631  18.584  0.00  0.00    +0.000 A 
ATOM     13  C   UNL     1       6.693  14.916  19.920  0.00  0.00    +0.000 A 
ATOM     14  C   UNL     1       5.380  15.208  20.336  0.00  0.00    +0.000 A 
ATOM     15  C   UNL     1       4.320  15.233  19.424  0.00  0.00    +0.000 A 
ATOM     16  C   UNL     1       4.612  14.887  18.108  0.00  0.00    +0.000 A 
ATOM     17  C   UNL     1       5.918  14.608  17.697  0.00  0.00    +0.000 A 
BRANCH  12  22
ATOM     18  C   UNL     1      12.327  13.141  18.532  0.00  0.00    +0.000 C 
ATOM     19  N   UNL     1      11.058  13.559  17.945  0.00  0.00    +0.000 NA
ATOM     20  C   UNL     1      10.649  14.888  18.460  0.00  0.00    +0.000 C 
ATOM     21  C   UNL     1       9.287  15.366  17.893  0.00  0.00    +0.000 C 
ATOM     22  N   UNL     1       8.268  14.340  18.142  0.00  0.00    +0.000 N 
ATOM     23  C   UNL     1       8.631  12.998  17.656  0.00  0.00    +0.000 C 
ATOM     24  C   UNL     1       9.993  12.577  18.251  0.00  0.00    +0.000 C 
ENDBRANCH  12  22
ENDBRANCH   1  15
BRANCH   8  25
ATOM     25  C   UNL     1       1.285  10.504  19.597  0.00  0.00    +0.000 C 
ATOM     26  C   UNL     1       0.927   9.358  20.543  0.00  0.00    +0.000 C 
ATOM     27  C   UNL     1       1.759   8.184  20.045  0.00  0.00    +0.000 C 
ATOM     28  C   UNL     1       1.993   8.419  18.554  0.00  0.00    +0.000 C 
ATOM     29  C   UNL     1       1.504   9.829  18.241  0.00  0.00    +0.000 C 
ENDBRANCH   8  25
BRANCH   7  30
ATOM     30  S   UNL     1      -1.933  10.055  19.302  0.00  0.00    +0.000 S 
BRANCH  30  31
ATOM     31  C   UNL     1      -2.689  10.409  17.724  0.00  0.00    +0.000 A 
ATOM     32  C   UNL     1      -3.863  11.166  17.641  0.00  0.00    +0.000 A 
ATOM     33  C   UNL     1      -4.452  11.420  16.401  0.00  0.00    +0.000 A 
ATOM     34  C   UNL     1      -3.866  10.928  15.236  0.00  0.00    +0.000 A 
ATOM     35  C   UNL     1      -2.682  10.195  15.308  0.00  0.00    +0.000 A 
ATOM     36  C   UNL     1      -2.091   9.942  16.548  0.00  0.00    +0.000 A 
ENDBRANCH  30  31
ENDBRANCH   7  30
TORSDOF 5
ENDMDL
MODEL 4
REMARK VINA RESULT:      -7.6      5.854     10.581
REMARK  Name = 
REMARK  6 active torsions:
REMARK  status: ('A' for Active; 'I' for Inactive)
REMARK    1  A    between atoms: C_1  and  N_2
REMARK    2  A    between atoms: N_5  and  C_6
REMARK    3  A    between atoms: C_9  and  N_10
REMARK    4  A    between atoms: C_16  and  S_17
REMARK    5  A    between atoms: S_17  and  C_18
REMARK    6  A    between atoms: N_24  and  C_25
REMARK                            x       y       z     vdW  Elec       q    Type
REMARK                         _______ _______ _______ _____ _____    ______ ____
ROOT
ATOM      1  N   UNL     1      -0.347   9.707  21.165  0.00  0.00    +0.000 N 
ATOM      2  C   UNL     1      -0.379  11.051  21.550  0.00  0.00    +0.000 A 
ATOM      3  N   UNL     1      -1.140  11.303  22.639  0.00  0.00    +0.000 NA
ATOM      4  C   UNL     1      -1.181  12.564  23.150  0.00  0.00    +0.000 A 
ATOM      5  C   UNL     1      -0.458  13.575  22.537  0.00  0.00    +0.000 A 
ATOM      6  N   UNL     1      -0.294  14.906  22.811  0.00  0.00    +0.000 NA
ATOM      7  C   UNL     1       0.509  15.350  21.863  0.00  0.00    +0.000 A 
ATOM      8  N   UNL     1       0.873  14.361  20.975  0.00  0.00    +0.000 N 
ATOM      9  C   UNL     1       0.260  13.207  21.415  0.00  0.00    +0.000 A 
ATOM     10  N   UNL     1       0.335  11.979  20.890  0.00  0.00    +0.000 NA
ATOM     11  H   UNL     1      -0.870   9.172  21.843  0.00  0.00    +0.000 HD
ENDROOT
BRANCH   1  15
ATOM     12  C   UNL     1       2.474   7.550  18.792  0.00  0.00    +0.000 A 
ATOM     13  C   UNL     1       1.857   8.719  18.333  0.00  0.00    +0.000 A 
ATOM     14  C   UNL     1       0.943   9.435  19.129  0.00  0.00    +0.000 A 
ATOM     15  C   UNL     1       0.606   9.001  20.415  0.00  0.00    +0.000 A 
ATOM     16  C   UNL     1       1.268   7.875  20.895  0.00  0.00    +0.000 A 
ATOM     17  C   UNL     1       2.168   7.161  20.098  0.00  0.00    +0.000 A 
BRANCH  12  22
ATOM     18  C   UNL     1       6.993   4.726  17.294  0.00  0.00    +0.000 C 
ATOM     19  N   UNL     1       5.665   5.302  17.112  0.00  0.00    +0.000 NA
ATOM     20  C   UNL     1       5.705   6.779  17.248  0.00  0.00    +0.000 C 
ATOM     21  C   UNL     1       4.311   7.440  17.096  0.00  0.00    +0.000 C 
ATOM     22  N   UNL     1       3.374   6.825  18.043  0.00  0.00    +0.000 N 
ATOM     23  C   UNL     1       3.303   5.356  17.955  0.00  0.00    +0.000 C 
ATOM     24  C   UNL     1       4.717   4.755  18.110  0.00  0.00    +0.000 C 
ENDBRANCH  12  22
ENDBRANCH   1  15
BRANCH   8  25
ATOM     25  C   UNL     1       1.698  14.480  19.789  0.00  0.00    +0.000 C 
ATOM     26  C   UNL     1       3.159  14.071  19.972  0.00  0.00    +0.000 C 
ATOM     27  C   UNL     1       3.661  13.821  18.556  0.00  0.00    +0.000 C 
ATOM     28  C   UNL     1       2.444  13.413  17.730  0.00  0.00    +0.000 C 
ATOM     29  C   UNL     1       1.213  13.651  18.598  0.00  0.00    +0.000 C 
ENDBRANCH   8  25
BRANCH   7  30
ATOM     30  S   UNL     1       1.063  16.994  21.768  0.00  0.00    +0.000 S 
BRANCH  30  31
ATOM     31  C   UNL     1       0.390  17.398  20.165  0.00  0.00    +0.000 A 
ATOM     32  C   UNL     1      -0.979  17.271  19.904  0.00  0.00    +0.000 A 
ATOM     33  C   UNL     1      -1.488  17.575  18.641  0.00  0.00    +0.000 A 
ATOM     34  C   UNL     1      -0.633  18.017  17.632  0.00  0.00    +0.000 A 
ATOM     35  C   UNL     1       0.729  18.171  17.891  0.00  0.00    +0.000 A 
ATOM     36  C   UNL     1       1.238  17.869  19.156  0.00  0.00    +0.000 A 
ENDBRANCH  30  31
ENDBRANCH   7  30
TORSDOF 5
ENDMDL
MODEL 5
REMARK VINA RESULT:      -7.6      0.233      1.168
REMARK  Name = 
REMARK  6 active torsions:
REMARK  status: ('A' for Active; 'I' for Inactive)
REMARK    1  A    between atoms: C_1  and  N_2
REMARK    2  A    between atoms: N_5  and  C_6
REMARK    3  A    between atoms: C_9  and  N_10
REMARK    4  A    between atoms: C_16  and  S_17
REMARK    5  A    between atoms: S_17  and  C_18
REMARK    6  A    between atoms: N_24  and  C_25
REMARK                            x       y       z     vdW  Elec       q    Type
REMARK                         _______ _______ _______ _____ _____    ______ ____
ROOT
ATOM      1  N   UNL     1       8.276   8.227  17.051  0.00  0.00    +0.000 N 
ATOM      2  C   UNL     1       7.203   7.332  17.000  0.00  0.00    +0.000 A 
ATOM      3  N   UNL     1       7.504   6.125  16.469  0.00  0.00    +0.000 NA
ATOM      4  C   UNL     1       6.556   5.150  16.441  0.00  0.00    +0.000 A 
ATOM      5  C   UNL     1       5.290   5.410  16.942  0.00  0.00    +0.000 A 
ATOM      6  N   UNL     1       4.156   4.653  17.060  0.00  0.00    +0.000 NA
ATOM      7  C   UNL     1       3.268   5.458  17.611  0.00  0.00    +0.000 A 
ATOM      8  N   UNL     1       3.775   6.716  17.853  0.00  0.00    +0.000 N 
ATOM      9  C   UNL     1       5.088   6.686  17.433  0.00  0.00    +0.000 A 
ATOM     10  N   UNL     1       5.995   7.668  17.488  0.00  0.00    +0.000 NA
ATOM     11  H   UNL     1       9.102   7.747  16.723  0.00  0.00    +0.000 HD
ENDROOT
BRANCH   1  15
ATOM     12  C   UNL     1       8.851  11.571  19.644  0.00  0.00    +0.000 A 
ATOM     13  C   UNL     1       9.143  10.262  20.044  0.00  0.00    +0.000 A 
ATOM     14  C   UNL     1       8.969   9.166  19.177  0.00  0.00    +0.000 A 
ATOM     15  C   UNL     1       8.488   9.342  17.875  0.00  0.00    +0.000 A 
ATOM     16  C   UNL     1       8.260  10.650  17.458  0.00  0.00    +0.000 A 
ATOM     17  C   UNL     1       8.424  11.734  18.325  0.00  0.00    +0.000 A 
BRANCH  12  22
ATOM     18  C   UNL     1       7.853  15.505  23.408  0.00  0.00    +0.000 C 
ATOM     19  N   UNL     1       8.651  14.775  22.428  0.00  0.00    +0.000 NA
ATOM     20  C   UNL     1       8.024  14.836  21.085  0.00  0.00    +0.000 C 
ATOM     21  C   UNL     1       8.815  14.047  20.010  0.00  0.00    +0.000 C 
ATOM     22  N   UNL     1       9.011  12.665  20.465  0.00  0.00    +0.000 N 
ATOM     23  C   UNL     1       9.623  12.550  21.799  0.00  0.00    +0.000 C 
ATOM     24  C   UNL     1       8.796  13.356  22.825  0.00  0.00    +0.000 C 
ENDBRANCH  12  22
ENDBRANCH   1  15
BRANCH   8  25
ATOM     25  C   UNL     1       3.088   7.869  18.398  0.00  0.00    +0.000 C 
ATOM     26  C   UNL     1       2.057   8.509  17.467  0.00  0.00    +0.000 C 
ATOM     27  C   UNL     1       1.172   9.332  18.394  0.00  0.00    +0.000 C 
ATOM     28  C   UNL     1       1.228   8.656  19.762  0.00  0.00    +0.000 C 
ATOM     29  C   UNL     1       2.317   7.591  19.691  0.00  0.00    +0.000 C 
ENDBRANCH   8  25
BRANCH   7  30
ATOM     30  S   UNL     1       1.649   4.968  18.007  0.00  0.00    +0.000 S 
BRANCH  30  31
ATOM     31  C   UNL     1       2.028   3.962  19.433  0.00  0.00    +0.000 A 
ATOM     32  C   UNL     1       3.303   3.415  19.611  0.00  0.00    +0.000 A 
ATOM     33  C   UNL     1       3.580   2.617  20.722  0.00  0.00    +0.000 A 
ATOM     34  C   UNL     1       2.585   2.368  21.667  0.00  0.00    +0.000 A 
ATOM     35  C   UNL     1       1.319   2.931  21.510  0.00  0.00    +0.000 A 
ATOM     36  C   UNL     1       1.043   3.731  20.400  0.00  0.00    +0.000 A 
ENDBRANCH  30  31
ENDBRANCH   7  30
TORSDOF 5
ENDMDL
MODEL 6
REMARK VINA RESULT:      -7.6      5.589     10.580
REMARK  Name = 
REMARK  6 active torsions:
REMARK  status: ('A' for Active; 'I' for Inactive)
REMARK    1  A    between atoms: C_1  and  N_2
REMARK    2  A    between atoms: N_5  and  C_6
REMARK    3  A    between atoms: C_9  and  N_10
REMARK    4  A    between atoms: C_16  and  S_17
REMARK    5  A    between atoms: S_17  and  C_18
REMARK    6  A    between atoms: N_24  and  C_25
REMARK                            x       y       z     vdW  Elec       q    Type
REMARK                         _______ _______ _______ _____ _____    ______ ____
ROOT
ATOM      1  N   UNL     1       0.185   9.397  20.160  0.00  0.00    +0.000 N 
ATOM      2  C   UNL     1       0.204  10.718  20.618  0.00  0.00    +0.000 A 
ATOM      3  N   UNL     1      -0.754  11.010  21.527  0.00  0.00    +0.000 NA
ATOM      4  C   UNL     1      -0.781  12.243  22.100  0.00  0.00    +0.000 A 
ATOM      5  C   UNL     1       0.162  13.191  21.730  0.00  0.00    +0.000 A 
ATOM      6  N   UNL     1       0.395  14.481  22.123  0.00  0.00    +0.000 NA
ATOM      7  C   UNL     1       1.432  14.870  21.407  0.00  0.00    +0.000 A 
ATOM      8  N   UNL     1       1.885  13.884  20.556  0.00  0.00    +0.000 N 
ATOM      9  C   UNL     1       1.073  12.791  20.772  0.00  0.00    +0.000 A 
ATOM     10  N   UNL     1       1.140  11.586  20.195  0.00  0.00    +0.000 NA
ATOM     11  H   UNL     1      -0.530   8.897  20.669  0.00  0.00    +0.000 HD
ENDROOT
BRANCH   1  15
ATOM     12  C   UNL     1       3.221   7.009  18.338  0.00  0.00    +0.000 A 
ATOM     13  C   UNL     1       2.640   8.100  17.682  0.00  0.00    +0.000 A 
ATOM     14  C   UNL     1       1.654   8.895  18.296  0.00  0.00    +0.000 A 
ATOM     15  C   UNL     1       1.206   8.620  19.593  0.00  0.00    +0.000 A 
ATOM     16  C   UNL     1       1.829   7.574  20.267  0.00  0.00    +0.000 A 
ATOM     17  C   UNL     1       2.800   6.782  19.650  0.00  0.00    +0.000 A 
BRANCH  12  22
ATOM     18  C   UNL     1       5.963   3.856  14.707  0.00  0.00    +0.000 C 
ATOM     19  N   UNL     1       5.761   4.561  15.969  0.00  0.00    +0.000 NA
ATOM     20  C   UNL     1       4.574   4.032  16.686  0.00  0.00    +0.000 C 
ATOM     21  C   UNL     1       4.293   4.770  18.020  0.00  0.00    +0.000 C 
ATOM     22  N   UNL     1       4.188   6.211  17.768  0.00  0.00    +0.000 N 
ATOM     23  C   UNL     1       5.340   6.784  17.050  0.00  0.00    +0.000 C 
ATOM     24  C   UNL     1       5.573   6.010  15.734  0.00  0.00    +0.000 C 
ENDBRANCH  12  22
ENDBRANCH   1  15
BRANCH   8  25
ATOM     25  C   UNL     1       2.964  13.959  19.592  0.00  0.00    +0.000 C 
ATOM     26  C   UNL     1       2.580  14.549  18.235  0.00  0.00    +0.000 C 
ATOM     27  C   UNL     1       3.907  14.962  17.613  0.00  0.00    +0.000 C 
ATOM     28  C   UNL     1       4.856  15.258  18.772  0.00  0.00    +0.000 C 
ATOM     29  C   UNL     1       4.161  14.796  20.049  0.00  0.00    +0.000 C 
ENDBRANCH   8  25
BRANCH   7  30
ATOM     30  S   UNL     1       2.157  16.442  21.547  0.00  0.00    +0.000 S 
BRANCH  30  31
ATOM     31  C   UNL     1       1.180  17.285  20.314  0.00  0.00    +0.000 A 
ATOM     32  C   UNL     1       1.713  17.592  19.057  0.00  0.00    +0.000 A 
ATOM     33  C   UNL     1       0.942  18.266  18.109  0.00  0.00    +0.000 A 
ATOM     34  C   UNL     1      -0.371  18.630  18.408  0.00  0.00    +0.000 A 
ATOM     35  C   UNL     1      -0.918  18.305  19.648  0.00  0.00    +0.000 A 
ATOM     36  C   UNL     1      -0.147  17.628  20.596  0.00  0.00    +0.000 A 
ENDBRANCH  30  31
ENDBRANCH   7  30
TORSDOF 5
ENDMDL
MODEL 7
REMARK VINA RESULT:      -7.6      5.952     10.706
REMARK  Name = 
REMARK  6 active torsions:
REMARK  status: ('A' for Active; 'I' for Inactive)
REMARK    1  A    between atoms: C_1  and  N_2
REMARK    2  A    between atoms: N_5  and  C_6
REMARK    3  A    between atoms: C_9  and  N_10
REMARK    4  A    between atoms: C_16  and  S_17
REMARK    5  A    between atoms: S_17  and  C_18
REMARK    6  A    between atoms: N_24  and  C_25
REMARK                            x       y       z     vdW  Elec       q    Type
REMARK                         _______ _______ _______ _____ _____    ______ ____
ROOT
ATOM      1  N   UNL     1      -0.475  10.029  21.267  0.00  0.00    +0.000 N 
ATOM      2  C   UNL     1      -0.428  11.397  21.554  0.00  0.00    +0.000 A 
ATOM      3  N   UNL     1      -1.160  11.770  22.628  0.00  0.00    +0.000 NA
ATOM      4  C   UNL     1      -1.125  13.064  23.046  0.00  0.00    +0.000 A 
ATOM      5  C   UNL     1      -0.354  13.987  22.356  0.00  0.00    +0.000 A 
ATOM      6  N   UNL     1      -0.112  15.323  22.531  0.00  0.00    +0.000 NA
ATOM      7  C   UNL     1       0.704  15.650  21.548  0.00  0.00    +0.000 A 
ATOM      8  N   UNL     1       1.001  14.581  20.731  0.00  0.00    +0.000 N 
ATOM      9  C   UNL     1       0.329  13.499  21.258  0.00  0.00    +0.000 A 
ATOM     10  N   UNL     1       0.329  12.234  20.823  0.00  0.00    +0.000 NA
ATOM     11  H   UNL     1      -1.020   9.575  21.986  0.00  0.00    +0.000 HD
ENDROOT
BRANCH   1  15
ATOM     12  C   UNL     1       2.351   7.569  19.218  0.00  0.00    +0.000 A 
ATOM     13  C   UNL     1       1.876   7.250  20.496  0.00  0.00    +0.000 A 
ATOM     14  C   UNL     1       0.930   8.056  21.157  0.00  0.00    +0.000 A 
ATOM     15  C   UNL     1       0.428   9.219  20.563  0.00  0.00    +0.000 A 
ATOM     16  C   UNL     1       0.852   9.500  19.268  0.00  0.00    +0.000 A 
ATOM     17  C   UNL     1       1.800   8.703  18.620  0.00  0.00    +0.000 A 
BRANCH  12  22
ATOM     18  C   UNL     1       7.122   5.189  17.730  0.00  0.00    +0.000 C 
ATOM     19  N   UNL     1       5.690   5.458  17.652  0.00  0.00    +0.000 NA
ATOM     20  C   UNL     1       5.436   6.891  17.362  0.00  0.00    +0.000 C 
ATOM     21  C   UNL     1       3.926   7.239  17.302  0.00  0.00    +0.000 C 
ATOM     22  N   UNL     1       3.275   6.804  18.542  0.00  0.00    +0.000 N 
ATOM     23  C   UNL     1       3.504   5.388  18.880  0.00  0.00    +0.000 C 
ATOM     24  C   UNL     1       5.021   5.101  18.924  0.00  0.00    +0.000 C 
ENDBRANCH  12  22
ENDBRANCH   1  15
BRANCH   8  25
ATOM     25  C   UNL     1       1.817  14.568  19.533  0.00  0.00    +0.000 C 
ATOM     26  C   UNL     1       3.315  14.378  19.772  0.00  0.00    +0.000 C 
ATOM     27  C   UNL     1       3.857  13.922  18.424  0.00  0.00    +0.000 C 
ATOM     28  C   UNL     1       2.705  13.222  17.707  0.00  0.00    +0.000 C 
ATOM     29  C   UNL     1       1.446  13.474  18.529  0.00  0.00    +0.000 C 
ENDBRANCH   8  25
BRANCH   7  30
ATOM     30  S   UNL     1       1.347  17.249  21.330  0.00  0.00    +0.000 S 
BRANCH  30  31
ATOM     31  C   UNL     1       0.593  17.616  19.754  0.00  0.00    +0.000 A 
ATOM     32  C   UNL     1       1.371  17.974  18.648  0.00  0.00    +0.000 A 
ATOM     33  C   UNL     1       0.766  18.274  17.426  0.00  0.00    +0.000 A 
ATOM     34  C   UNL     1      -0.621  18.209  17.300  0.00  0.00    +0.000 A 
ATOM     35  C   UNL     1      -1.403  17.827  18.391  0.00  0.00    +0.000 A 
ATOM     36  C   UNL     1      -0.797  17.525  19.612  0.00  0.00    +0.000 A 
ENDBRANCH  30  31
ENDBRANCH   7  30
TORSDOF 5
ENDMDL
MODEL 8
REMARK VINA RESULT:      -7.4      5.299      9.887
REMARK  Name = 
REMARK  6 active torsions:
REMARK  status: ('A' for Active; 'I' for Inactive)
REMARK    1  A    between atoms: C_1  and  N_2
REMARK    2  A    between atoms: N_5  and  C_6
REMARK    3  A    between atoms: C_9  and  N_10
REMARK    4  A    between atoms: C_16  and  S_17
REMARK    5  A    between atoms: S_17  and  C_18
REMARK    6  A    between atoms: N_24  and  C_25
REMARK                            x       y       z     vdW  Elec       q    Type
REMARK                         _______ _______ _______ _____ _____    ______ ____
ROOT
ATOM      1  N   UNL     1       0.672   7.466  21.078  0.00  0.00    +0.000 N 
ATOM      2  C   UNL     1       0.278   8.738  21.507  0.00  0.00    +0.000 A 
ATOM      3  N   UNL     1      -0.406   8.749  22.673  0.00  0.00    +0.000 NA
ATOM      4  C   UNL     1      -0.770   9.938  23.225  0.00  0.00    +0.000 A 
ATOM      5  C   UNL     1      -0.451  11.121  22.576  0.00  0.00    +0.000 A 
ATOM      6  N   UNL     1      -0.665  12.440  22.874  0.00  0.00    +0.000 NA
ATOM      7  C   UNL     1      -0.135  13.105  21.866  0.00  0.00    +0.000 A 
ATOM      8  N   UNL     1       0.415  12.272  20.916  0.00  0.00    +0.000 N 
ATOM      9  C   UNL     1       0.224  10.987  21.378  0.00  0.00    +0.000 A 
ATOM     10  N   UNL     1       0.609   9.839  20.809  0.00  0.00    +0.000 NA
ATOM     11  H   UNL     1       0.406   6.798  21.788  0.00  0.00    +0.000 HD
ENDROOT
BRANCH   1  15
ATOM     12  C   UNL     1       3.754   6.300  18.362  0.00  0.00    +0.000 A 
ATOM     13  C   UNL     1       3.021   7.480  18.192  0.00  0.00    +0.000 A 
ATOM     14  C   UNL     1       2.020   7.868  19.103  0.00  0.00    +0.000 A 
ATOM     15  C   UNL     1       1.710   7.081  20.217  0.00  0.00    +0.000 A 
ATOM     16  C   UNL     1       2.482   5.941  20.419  0.00  0.00    +0.000 A 
ATOM     17  C   UNL     1       3.468   5.555  19.507  0.00  0.00    +0.000 A 
BRANCH  12  22
ATOM     18  C   UNL     1       6.308   4.056  13.994  0.00  0.00    +0.000 C 
ATOM     19  N   UNL     1       6.226   4.785  15.256  0.00  0.00    +0.000 NA
ATOM     20  C   UNL     1       5.663   3.926  16.326  0.00  0.00    +0.000 C 
ATOM     21  C   UNL     1       5.522   4.663  17.683  0.00  0.00    +0.000 C 
ATOM     22  N   UNL     1       4.741   5.891  17.493  0.00  0.00    +0.000 N 
ATOM     23  C   UNL     1       5.255   6.775  16.433  0.00  0.00    +0.000 C 
ATOM     24  C   UNL     1       5.376   5.988  15.109  0.00  0.00    +0.000 C 
ENDBRANCH  12  22
ENDBRANCH   1  15
BRANCH   8  25
ATOM     25  C   UNL     1       1.039  12.635  19.659  0.00  0.00    +0.000 C 
ATOM     26  C   UNL     1       2.377  13.362  19.786  0.00  0.00    +0.000 C 
ATOM     27  C   UNL     1       3.029  13.195  18.420  0.00  0.00    +0.000 C 
ATOM     28  C   UNL     1       2.469  11.904  17.826  0.00  0.00    +0.000 C 
ATOM     29  C   UNL     1       1.331  11.450  18.735  0.00  0.00    +0.000 C 
ENDBRANCH   8  25
BRANCH   7  30
ATOM     30  S   UNL     1      -0.112  14.839  21.769  0.00  0.00    +0.000 S 
BRANCH  30  31
ATOM     31  C   UNL     1      -1.384  15.179  22.976  0.00  0.00    +0.000 A 
ATOM     32  C   UNL     1      -2.738  15.142  22.626  0.00  0.00    +0.000 A 
ATOM     33  C   UNL     1      -3.720  15.426  23.576  0.00  0.00    +0.000 A 
ATOM     34  C   UNL     1      -3.355  15.740  24.884  0.00  0.00    +0.000 A 
ATOM     35  C   UNL     1      -2.009  15.753  25.248  0.00  0.00    +0.000 A 
ATOM     36  C   UNL     1      -1.026  15.467  24.298  0.00  0.00    +0.000 A 
ENDBRANCH  30  31
ENDBRANCH   7  30
TORSDOF 5
ENDMDL
MODEL 9
REMARK VINA RESULT:      -7.4      5.557     10.093
REMARK  Name = 
REMARK  6 active torsions:
REMARK  status: ('A' for Active; 'I' for Inactive)
REMARK    1  A    between atoms: C_1  and  N_2
REMARK    2  A    between atoms: N_5  and  C_6
REMARK    3  A    between atoms: C_9  and  N_10
REMARK    4  A    between atoms: C_16  and  S_17
REMARK    5  A    between atoms: S_17  and  C_18
REMARK    6  A    between atoms: N_24  and  C_25
REMARK                            x       y       z     vdW  Elec       q    Type
REMARK                         _______ _______ _______ _____ _____    ______ ____
ROOT
ATOM      1  N   UNL     1       0.768   8.060  21.828  0.00  0.00    +0.000 N 
ATOM      2  C   UNL     1      -0.013   9.214  21.937  0.00  0.00    +0.000 A 
ATOM      3  N   UNL     1      -0.138   9.689  23.197  0.00  0.00    +0.000 NA
ATOM      4  C   UNL     1      -0.812  10.852  23.411  0.00  0.00    +0.000 A 
ATOM      5  C   UNL     1      -1.375  11.525  22.338  0.00  0.00    +0.000 A 
ATOM      6  N   UNL     1      -2.085  12.690  22.233  0.00  0.00    +0.000 NA
ATOM      7  C   UNL     1      -2.357  12.805  20.947  0.00  0.00    +0.000 A 
ATOM      8  N   UNL     1      -1.856  11.756  20.206  0.00  0.00    +0.000 N 
ATOM      9  C   UNL     1      -1.208  10.932  21.101  0.00  0.00    +0.000 A 
ATOM     10  N   UNL     1      -0.545   9.798  20.848  0.00  0.00    +0.000 NA
ATOM     11  H   UNL     1       1.143   7.845  22.741  0.00  0.00    +0.000 HD
ENDROOT
BRANCH   1  15
ATOM     12  C   UNL     1       2.981   6.431  18.558  0.00  0.00    +0.000 A 
ATOM     13  C   UNL     1       2.563   5.644  19.638  0.00  0.00    +0.000 A 
ATOM     14  C   UNL     1       1.817   6.184  20.703  0.00  0.00    +0.000 A 
ATOM     15  C   UNL     1       1.468   7.539  20.729  0.00  0.00    +0.000 A 
ATOM     16  C   UNL     1       1.829   8.305  19.625  0.00  0.00    +0.000 A 
ATOM     17  C   UNL     1       2.578   7.768  18.575  0.00  0.00    +0.000 A 
BRANCH  12  22
ATOM     18  C   UNL     1       7.097   4.216  15.593  0.00  0.00    +0.000 C 
ATOM     19  N   UNL     1       5.762   4.764  15.813  0.00  0.00    +0.000 NA
ATOM     20  C   UNL     1       5.838   6.169  16.280  0.00  0.00    +0.000 C 
ATOM     21  C   UNL     1       4.446   6.791  16.561  0.00  0.00    +0.000 C 
ATOM     22  N   UNL     1       3.710   5.936  17.500  0.00  0.00    +0.000 N 
ATOM     23  C   UNL     1       3.614   4.526  17.085  0.00  0.00    +0.000 C 
ATOM     24  C   UNL     1       5.028   3.963  16.818  0.00  0.00    +0.000 C 
ENDBRANCH  12  22
ENDBRANCH   1  15
BRANCH   8  25
ATOM     25  C   UNL     1      -1.996  11.517  18.784  0.00  0.00    +0.000 C 
ATOM     26  C   UNL     1      -1.144  10.374  18.232  0.00  0.00    +0.000 C 
ATOM     27  C   UNL     1      -1.803  10.016  16.907  0.00  0.00    +0.000 C 
ATOM     28  C   UNL     1      -3.276  10.397  17.039  0.00  0.00    +0.000 C 
ATOM     29  C   UNL     1      -3.422  11.183  18.338  0.00  0.00    +0.000 C 
ENDBRANCH   8  25
BRANCH   7  30
ATOM     30  S   UNL     1      -3.227  14.147  20.269  0.00  0.00    +0.000 S 
BRANCH  30  31
ATOM     31  C   UNL     1      -4.775  13.908  21.125  0.00  0.00    +0.000 A 
ATOM     32  C   UNL     1      -5.211  14.817  22.095  0.00  0.00    +0.000 A 
ATOM     33  C   UNL     1      -6.416  14.607  22.768  0.00  0.00    +0.000 A 
ATOM     34  C   UNL     1      -7.197  13.491  22.469  0.00  0.00    +0.000 A 
ATOM     35  C   UNL     1      -6.782  12.594  21.486  0.00  0.00    +0.000 A 
ATOM     36  C   UNL     1      -5.578  12.805  20.811  0.00  0.00    +0.000 A 
ENDBRANCH  30  31
ENDBRANCH   7  30
TORSDOF 5
ENDMDL
