MODEL 1
REMARK VINA RESULT:      -6.1      0.000      0.000
REMARK  Name = 
REMARK  6 active torsions:
REMARK  status: ('A' for Active; 'I' for Inactive)
REMARK    1  A    between atoms: O_1  and  C_2
REMARK    2  A    between atoms: C_2  and  C_3
REMARK    3  A    between atoms: C_2  and  C_9
REMARK    4  A    between atoms: C_2  and  C_15
REMARK    5  A    between atoms: C_15  and  C_16
REMARK    6  A    between atoms: C_15  and  N_22
REMARK                            x       y       z     vdW  Elec       q    Type
REMARK                         _______ _______ _______ _____ _____    ______ ____
ROOT
ATOM      1  C   UNL     1       8.548  15.273  20.166  0.00  0.00    +0.000 C 
ENDROOT
BRANCH   1   2
ATOM      2  C   UNL     1       7.193  15.819  19.641  0.00  0.00    +0.000 A 
ATOM      3  C   UNL     1       6.267  15.057  18.906  0.00  0.00    +0.000 A 
ATOM      4  C   UNL     1       5.082  15.627  18.440  0.00  0.00    +0.000 A 
ATOM      5  C   UNL     1       4.838  16.956  18.721  0.00  0.00    +0.000 A 
ATOM      6  N   UNL     1       5.688  17.733  19.418  0.00  0.00    +0.000 NA
ATOM      7  C   UNL     1       6.835  17.154  19.854  0.00  0.00    +0.000 A 
ENDBRANCH   1   2
BRANCH   1   8
ATOM      8  C   UNL     1       9.676  15.730  19.216  0.00  0.00    +0.000 A 
ATOM      9  C   UNL     1      10.898  16.232  19.705  0.00  0.00    +0.000 A 
ATOM     10  C   UNL     1      11.882  16.712  18.845  0.00  0.00    +0.000 A 
ATOM     11  C   UNL     1      11.621  16.696  17.491  0.00  0.00    +0.000 A 
ATOM     12  N   UNL     1      10.470  16.233  16.964  0.00  0.00    +0.000 NA
ATOM     13  C   UNL     1       9.534  15.762  17.830  0.00  0.00    +0.000 A 
ENDBRANCH   1   8
BRANCH   1  14
ATOM     14  O   UNL     1       8.875  15.880  21.441  0.00  0.00    +0.000 OA
ATOM     15  H   UNL     1       9.707  15.497  21.751  0.00  0.00    +0.000 HD
ENDBRANCH   1  14
BRANCH   1  16
ATOM     16  C   UNL     1       8.438  13.654  20.420  0.00  0.00    +0.000 C 
BRANCH  16  17
ATOM     17  N   UNL     1       8.050  13.217  21.818  0.00  0.00    +0.000 NA
ATOM     18  C   UNL     1       6.695  13.638  22.223  0.00  0.00    +0.000 C 
ATOM     19  C   UNL     1       6.264  13.337  23.671  0.00  0.00    +0.000 C 
ATOM     20  C   UNL     1       6.171  11.849  23.987  0.00  0.00    +0.000 C 
ATOM     21  O   UNL     1       7.398  11.254  24.396  0.00  0.00    +0.000 OA
ATOM     22  C   UNL     1       8.552  11.680  23.685  0.00  0.00    +0.000 C 
ATOM     23  C   UNL     1       8.344  11.823  22.166  0.00  0.00    +0.000 C 
ENDBRANCH  16  17
BRANCH  16  24
ATOM     24  C   UNL     1       9.591  12.819  19.823  0.00  0.00    +0.000 A 
ATOM     25  C   UNL     1       9.499  12.184  18.577  0.00  0.00    +0.000 A 
ATOM     26  C   UNL     1      10.615  11.568  18.000  0.00  0.00    +0.000 A 
ATOM     27  C   UNL     1      11.843  11.571  18.657  0.00  0.00    +0.000 A 
ATOM     28  C   UNL     1      11.949  12.159  19.913  0.00  0.00    +0.000 A 
ATOM     29  C   UNL     1      10.833  12.773  20.492  0.00  0.00    +0.000 A 
ENDBRANCH  16  24
ENDBRANCH   1  16
TORSDOF 6
ENDMDL
MODEL 2
REMARK VINA RESULT:      -5.8      8.182     10.583
REMARK  Name = 
REMARK  6 active torsions:
REMARK  status: ('A' for Active; 'I' for Inactive)
REMARK    1  A    between atoms: O_1  and  C_2
REMARK    2  A    between atoms: C_2  and  C_3
REMARK    3  A    between atoms: C_2  and  C_9
REMARK    4  A    between atoms: C_2  and  C_15
REMARK    5  A    between atoms: C_15  and  C_16
REMARK    6  A    between atoms: C_15  and  N_22
REMARK                            x       y       z     vdW  Elec       q    Type
REMARK                         _______ _______ _______ _____ _____    ______ ____
ROOT
ATOM      1  C   UNL     1       0.279  11.264  18.908  0.00  0.00    +0.000 C 
ENDROOT
BRANCH   1   2
ATOM      2  C   UNL     1      -1.106  10.958  18.277  0.00  0.00    +0.000 A 
ATOM      3  C   UNL     1      -1.851   9.794  18.539  0.00  0.00    +0.000 A 
ATOM      4  C   UNL     1      -3.077   9.574  17.910  0.00  0.00    +0.000 A 
ATOM      5  C   UNL     1      -3.543  10.527  17.027  0.00  0.00    +0.000 A 
ATOM      6  N   UNL     1      -2.871  11.658  16.738  0.00  0.00    +0.000 NA
ATOM      7  C   UNL     1      -1.680  11.843  17.360  0.00  0.00    +0.000 A 
ENDBRANCH   1   2
BRANCH   1   8
ATOM      8  C   UNL     1       1.004   9.933  19.198  0.00  0.00    +0.000 A 
ATOM      9  C   UNL     1       1.694   9.229  18.191  0.00  0.00    +0.000 A 
ATOM     10  C   UNL     1       2.282   7.993  18.442  0.00  0.00    +0.000 A 
ATOM     11  C   UNL     1       2.159   7.463  19.710  0.00  0.00    +0.000 A 
ATOM     12  N   UNL     1       1.507   8.086  20.712  0.00  0.00    +0.000 NA
ATOM     13  C   UNL     1       0.953   9.296  20.437  0.00  0.00    +0.000 A 
ENDBRANCH   1   8
BRANCH   1  14
ATOM     14  O   UNL     1       1.129  11.941  17.948  0.00  0.00    +0.000 OA
ATOM     15  H   UNL     1       1.107  12.888  18.142  0.00  0.00    +0.000 HD
ENDBRANCH   1  14
BRANCH   1  16
ATOM     16  C   UNL     1       0.100  12.277  20.188  0.00  0.00    +0.000 C 
BRANCH  16  17
ATOM     17  N   UNL     1      -1.183  12.138  20.983  0.00  0.00    +0.000 NA
ATOM     18  C   UNL     1      -0.972  11.826  22.409  0.00  0.00    +0.000 C 
ATOM     19  C   UNL     1      -2.223  11.551  23.266  0.00  0.00    +0.000 C 
ATOM     20  C   UNL     1      -3.148  12.755  23.403  0.00  0.00    +0.000 C 
ATOM     21  O   UNL     1      -4.095  12.898  22.350  0.00  0.00    +0.000 OA
ATOM     22  C   UNL     1      -3.603  12.621  21.045  0.00  0.00    +0.000 C 
ATOM     23  C   UNL     1      -2.195  13.177  20.767  0.00  0.00    +0.000 C 
ENDBRANCH  16  17
BRANCH  16  24
ATOM     24  C   UNL     1       0.487  13.746  19.917  0.00  0.00    +0.000 A 
ATOM     25  C   UNL     1      -0.181  14.545  18.979  0.00  0.00    +0.000 A 
ATOM     26  C   UNL     1       0.096  15.912  18.872  0.00  0.00    +0.000 A 
ATOM     27  C   UNL     1       1.046  16.508  19.697  0.00  0.00    +0.000 A 
ATOM     28  C   UNL     1       1.751  15.729  20.608  0.00  0.00    +0.000 A 
ATOM     29  C   UNL     1       1.478  14.361  20.714  0.00  0.00    +0.000 A 
ENDBRANCH  16  24
ENDBRANCH   1  16
TORSDOF 6
ENDMDL
MODEL 3
REMARK VINA RESULT:      -5.8      0.757      1.296
REMARK  Name = 
REMARK  6 active torsions:
REMARK  status: ('A' for Active; 'I' for Inactive)
REMARK    1  A    between atoms: O_1  and  C_2
REMARK    2  A    between atoms: C_2  and  C_3
REMARK    3  A    between atoms: C_2  and  C_9
REMARK    4  A    between atoms: C_2  and  C_15
REMARK    5  A    between atoms: C_15  and  C_16
REMARK    6  A    between atoms: C_15  and  N_22
REMARK                            x       y       z     vdW  Elec       q    Type
REMARK                         _______ _______ _______ _____ _____    ______ ____
ROOT
ATOM      1  C   UNL     1       8.690  15.335  20.341  0.00  0.00    +0.000 C 
ENDROOT
BRANCH   1   2
ATOM      2  C   UNL     1       7.342  15.996  19.949  0.00  0.00    +0.000 A 
ATOM      3  C   UNL     1       6.908  17.245  20.428  0.00  0.00    +0.000 A 
ATOM      4  C   UNL     1       5.667  17.762  20.054  0.00  0.00    +0.000 A 
ATOM      5  C   UNL     1       4.877  17.020  19.199  0.00  0.00    +0.000 A 
ATOM      6  N   UNL     1       5.241  15.819  18.711  0.00  0.00    +0.000 NA
ATOM      7  C   UNL     1       6.450  15.339  19.096  0.00  0.00    +0.000 A 
ENDBRANCH   1   2
BRANCH   1   8
ATOM      8  C   UNL     1       9.776  15.772  19.335  0.00  0.00    +0.000 A 
ATOM      9  C   UNL     1       9.564  15.711  17.943  0.00  0.00    +0.000 A 
ATOM     10  C   UNL     1      10.572  16.035  17.040  0.00  0.00    +0.000 A 
ATOM     11  C   UNL     1      11.800  16.408  17.547  0.00  0.00    +0.000 A 
ATOM     12  N   UNL     1      12.064  16.479  18.867  0.00  0.00    +0.000 NA
ATOM     13  C   UNL     1      11.055  16.166  19.722  0.00  0.00    +0.000 A 
ENDBRANCH   1   8
BRANCH   1  14
ATOM     14  O   UNL     1       9.149  15.847  21.618  0.00  0.00    +0.000 OA
ATOM     15  H   UNL     1      10.111  15.756  21.650  0.00  0.00    +0.000 HD
ENDBRANCH   1  14
BRANCH   1  16
ATOM     16  C   UNL     1       8.488  13.715  20.520  0.00  0.00    +0.000 C 
BRANCH  16  17
ATOM     17  N   UNL     1       8.069  13.236  21.895  0.00  0.00    +0.000 NA
ATOM     18  C   UNL     1       6.715  13.664  22.291  0.00  0.00    +0.000 C 
ATOM     19  C   UNL     1       6.253  13.321  23.721  0.00  0.00    +0.000 C 
ATOM     20  C   UNL     1       6.133  11.824  23.983  0.00  0.00    +0.000 C 
ATOM     21  O   UNL     1       7.343  11.195  24.391  0.00  0.00    +0.000 OA
ATOM     22  C   UNL     1       8.516  11.628  23.715  0.00  0.00    +0.000 C 
ATOM     23  C   UNL     1       8.336  11.826  22.199  0.00  0.00    +0.000 C 
ENDBRANCH  16  17
BRANCH  16  24
ATOM     24  C   UNL     1       9.595  12.845  19.887  0.00  0.00    +0.000 A 
ATOM     25  C   UNL     1       9.452  12.230  18.636  0.00  0.00    +0.000 A 
ATOM     26  C   UNL     1      10.531  11.579  18.027  0.00  0.00    +0.000 A 
ATOM     27  C   UNL     1      11.772  11.528  18.656  0.00  0.00    +0.000 A 
ATOM     28  C   UNL     1      11.928  12.096  19.916  0.00  0.00    +0.000 A 
ATOM     29  C   UNL     1      10.849  12.745  20.527  0.00  0.00    +0.000 A 
ENDBRANCH  16  24
ENDBRANCH   1  16
TORSDOF 6
ENDMDL
MODEL 4
REMARK VINA RESULT:      -5.8      7.752     10.409
REMARK  Name = 
REMARK  6 active torsions:
REMARK  status: ('A' for Active; 'I' for Inactive)
REMARK    1  A    between atoms: O_1  and  C_2
REMARK    2  A    between atoms: C_2  and  C_3
REMARK    3  A    between atoms: C_2  and  C_9
REMARK    4  A    between atoms: C_2  and  C_15
REMARK    5  A    between atoms: C_15  and  C_16
REMARK    6  A    between atoms: C_15  and  N_22
REMARK                            x       y       z     vdW  Elec       q    Type
REMARK                         _______ _______ _______ _____ _____    ______ ____
ROOT
ATOM      1  C   UNL     1      -1.248  12.507  19.510  0.00  0.00    +0.000 C 
ENDROOT
BRANCH   1   2
ATOM      2  C   UNL     1      -2.156  12.540  20.768  0.00  0.00    +0.000 A 
ATOM      3  C   UNL     1      -1.764  12.071  22.035  0.00  0.00    +0.000 A 
ATOM      4  C   UNL     1      -2.647  12.105  23.115  0.00  0.00    +0.000 A 
ATOM      5  C   UNL     1      -3.914  12.614  22.911  0.00  0.00    +0.000 A 
ATOM      6  N   UNL     1      -4.343  13.075  21.720  0.00  0.00    +0.000 NA
ATOM      7  C   UNL     1      -3.465  13.024  20.688  0.00  0.00    +0.000 A 
ENDBRANCH   1   2
BRANCH   1   8
ATOM      8  C   UNL     1      -1.893  11.587  18.450  0.00  0.00    +0.000 A 
ATOM      9  C   UNL     1      -2.424  10.327  18.787  0.00  0.00    +0.000 A 
ATOM     10  C   UNL     1      -2.936   9.471  17.816  0.00  0.00    +0.000 A 
ATOM     11  C   UNL     1      -2.898   9.888  16.501  0.00  0.00    +0.000 A 
ATOM     12  N   UNL     1      -2.398  11.080  16.118  0.00  0.00    +0.000 NA
ATOM     13  C   UNL     1      -1.915  11.896  17.091  0.00  0.00    +0.000 A 
ENDBRANCH   1   8
BRANCH   1  14
ATOM     14  O   UNL     1      -1.208  13.813  18.884  0.00  0.00    +0.000 OA
ATOM     15  H   UNL     1      -1.343  14.480  19.571  0.00  0.00    +0.000 HD
ENDBRANCH   1  14
BRANCH   1  16
ATOM     16  C   UNL     1       0.292  12.134  19.940  0.00  0.00    +0.000 C 
BRANCH  16  17
ATOM     17  N   UNL     1       1.331  13.217  19.730  0.00  0.00    +0.000 NA
ATOM     18  C   UNL     1       1.791  13.855  20.977  0.00  0.00    +0.000 C 
ATOM     19  C   UNL     1       2.760  15.047  20.847  0.00  0.00    +0.000 C 
ATOM     20  C   UNL     1       4.107  14.677  20.239  0.00  0.00    +0.000 C 
ATOM     21  O   UNL     1       4.141  14.698  18.816  0.00  0.00    +0.000 OA
ATOM     22  C   UNL     1       2.989  14.173  18.170  0.00  0.00    +0.000 C 
ATOM     23  C   UNL     1       2.429  12.892  18.813  0.00  0.00    +0.000 C 
ENDBRANCH  16  17
BRANCH  16  24
ATOM     24  C   UNL     1       0.775  10.737  19.494  0.00  0.00    +0.000 A 
ATOM     25  C   UNL     1       1.244  10.477  18.199  0.00  0.00    +0.000 A 
ATOM     26  C   UNL     1       1.816   9.241  17.877  0.00  0.00    +0.000 A 
ATOM     27  C   UNL     1       1.931   8.242  18.840  0.00  0.00    +0.000 A 
ATOM     28  C   UNL     1       1.436   8.463  20.121  0.00  0.00    +0.000 A 
ATOM     29  C   UNL     1       0.860   9.696  20.444  0.00  0.00    +0.000 A 
ENDBRANCH  16  24
ENDBRANCH   1  16
TORSDOF 6
ENDMDL
MODEL 5
REMARK VINA RESULT:      -5.6      7.746     10.368
REMARK  Name = 
REMARK  6 active torsions:
REMARK  status: ('A' for Active; 'I' for Inactive)
REMARK    1  A    between atoms: O_1  and  C_2
REMARK    2  A    between atoms: C_2  and  C_3
REMARK    3  A    between atoms: C_2  and  C_9
REMARK    4  A    between atoms: C_2  and  C_15
REMARK    5  A    between atoms: C_15  and  C_16
REMARK    6  A    between atoms: C_15  and  N_22
REMARK                            x       y       z     vdW  Elec       q    Type
REMARK                         _______ _______ _______ _____ _____    ______ ____
ROOT
ATOM      1  C   UNL     1       0.422  11.018  18.908  0.00  0.00    +0.000 C 
ENDROOT
BRANCH   1   2
ATOM      2  C   UNL     1      -0.994  10.839  18.298  0.00  0.00    +0.000 A 
ATOM      3  C   UNL     1      -1.822   9.728  18.541  0.00  0.00    +0.000 A 
ATOM      4  C   UNL     1      -3.072   9.622  17.931  0.00  0.00    +0.000 A 
ATOM      5  C   UNL     1      -3.479  10.635  17.085  0.00  0.00    +0.000 A 
ATOM      6  N   UNL     1      -2.727  11.719  16.816  0.00  0.00    +0.000 NA
ATOM      7  C   UNL     1      -1.514  11.793  17.418  0.00  0.00    +0.000 A 
ENDBRANCH   1   2
BRANCH   1   8
ATOM      8  C   UNL     1       1.052   9.626  19.131  0.00  0.00    +0.000 A 
ATOM      9  C   UNL     1       1.036   8.999  20.393  0.00  0.00    +0.000 A 
ATOM     10  C   UNL     1       1.671   7.778  20.606  0.00  0.00    +0.000 A 
ATOM     11  C   UNL     1       2.333   7.200  19.542  0.00  0.00    +0.000 A 
ATOM     12  N   UNL     1       2.388   7.755  18.315  0.00  0.00    +0.000 NA
ATOM     13  C   UNL     1       1.750   8.941  18.138  0.00  0.00    +0.000 A 
ENDBRANCH   1   8
BRANCH   1  14
ATOM     14  O   UNL     1       1.301  11.668  17.957  0.00  0.00    +0.000 OA
ATOM     15  H   UNL     1       2.005  11.047  17.723  0.00  0.00    +0.000 HD
ENDBRANCH   1  14
BRANCH   1  16
ATOM     16  C   UNL     1       0.343  11.989  20.230  0.00  0.00    +0.000 C 
BRANCH  16  17
ATOM     17  N   UNL     1      -0.971  11.996  20.984  0.00  0.00    +0.000 NA
ATOM     18  C   UNL     1      -0.841  11.666  22.415  0.00  0.00    +0.000 C 
ATOM     19  C   UNL     1      -2.142  11.534  23.232  0.00  0.00    +0.000 C 
ATOM     20  C   UNL     1      -2.930  12.833  23.342  0.00  0.00    +0.000 C 
ATOM     21  O   UNL     1      -3.822  13.078  22.259  0.00  0.00    +0.000 OA
ATOM     22  C   UNL     1      -3.323  12.746  20.970  0.00  0.00    +0.000 C 
ATOM     23  C   UNL     1      -1.854  13.140  20.738  0.00  0.00    +0.000 C 
ENDBRANCH  16  17
BRANCH  16  24
ATOM     24  C   UNL     1       0.939  13.400  20.040  0.00  0.00    +0.000 A 
ATOM     25  C   UNL     1       2.146  13.799  20.631  0.00  0.00    +0.000 A 
ATOM     26  C   UNL     1       2.731  15.029  20.312  0.00  0.00    +0.000 A 
ATOM     27  C   UNL     1       2.121  15.886  19.399  0.00  0.00    +0.000 A 
ATOM     28  C   UNL     1       0.903  15.531  18.830  0.00  0.00    +0.000 A 
ATOM     29  C   UNL     1       0.315  14.302  19.151  0.00  0.00    +0.000 A 
ENDBRANCH  16  24
ENDBRANCH   1  16
TORSDOF 6
ENDMDL
MODEL 6
REMARK VINA RESULT:      -5.6      7.474     10.517
REMARK  Name = 
REMARK  6 active torsions:
REMARK  status: ('A' for Active; 'I' for Inactive)
REMARK    1  A    between atoms: O_1  and  C_2
REMARK    2  A    between atoms: C_2  and  C_3
REMARK    3  A    between atoms: C_2  and  C_9
REMARK    4  A    between atoms: C_2  and  C_15
REMARK    5  A    between atoms: C_15  and  C_16
REMARK    6  A    between atoms: C_15  and  N_22
REMARK                            x       y       z     vdW  Elec       q    Type
REMARK                         _______ _______ _______ _____ _____    ______ ____
ROOT
ATOM      1  C   UNL     1      -0.256  13.859  19.905  0.00  0.00    +0.000 C 
ENDROOT
BRANCH   1   2
ATOM      2  C   UNL     1       1.168  14.385  19.582  0.00  0.00    +0.000 A 
ATOM      3  C   UNL     1       2.345  13.637  19.763  0.00  0.00    +0.000 A 
ATOM      4  C   UNL     1       3.594  14.189  19.479  0.00  0.00    +0.000 A 
ATOM      5  C   UNL     1       3.647  15.487  19.012  0.00  0.00    +0.000 A 
ATOM      6  N   UNL     1       2.554  16.250  18.821  0.00  0.00    +0.000 NA
ATOM      7  C   UNL     1       1.353  15.689  19.111  0.00  0.00    +0.000 A 
ENDBRANCH   1   2
BRANCH   1   8
ATOM      8  C   UNL     1      -0.675  14.369  21.301  0.00  0.00    +0.000 A 
ATOM      9  C   UNL     1      -2.022  14.639  21.617  0.00  0.00    +0.000 A 
ATOM     10  C   UNL     1      -2.385  15.169  22.852  0.00  0.00    +0.000 A 
ATOM     11  C   UNL     1      -1.382  15.438  23.761  0.00  0.00    +0.000 A 
ATOM     12  N   UNL     1      -0.078  15.207  23.513  0.00  0.00    +0.000 NA
ATOM     13  C   UNL     1       0.243  14.679  22.302  0.00  0.00    +0.000 A 
ENDBRANCH   1   8
BRANCH   1  14
ATOM     14  O   UNL     1      -1.225  14.440  18.998  0.00  0.00    +0.000 OA
ATOM     15  H   UNL     1      -1.672  15.164  19.458  0.00  0.00    +0.000 HD
ENDBRANCH   1  14
BRANCH   1  16
ATOM     16  C   UNL     1      -0.314  12.232  19.690  0.00  0.00    +0.000 C 
BRANCH  16  17
ATOM     17  N   UNL     1      -1.388  11.713  18.756  0.00  0.00    +0.000 NA
ATOM     18  C   UNL     1      -1.025  10.464  18.061  0.00  0.00    +0.000 C 
ATOM     19  C   UNL     1      -2.010   9.930  17.003  0.00  0.00    +0.000 C 
ATOM     20  C   UNL     1      -3.360   9.518  17.577  0.00  0.00    +0.000 C 
ATOM     21  O   UNL     1      -4.304  10.577  17.692  0.00  0.00    +0.000 OA
ATOM     22  C   UNL     1      -3.777  11.819  18.140  0.00  0.00    +0.000 C 
ATOM     23  C   UNL     1      -2.756  11.698  19.285  0.00  0.00    +0.000 C 
ENDBRANCH  16  17
BRANCH  16  24
ATOM     24  C   UNL     1      -0.181  11.397  20.982  0.00  0.00    +0.000 A 
ATOM     25  C   UNL     1      -1.136  11.434  22.008  0.00  0.00    +0.000 A 
ATOM     26  C   UNL     1      -1.062  10.551  23.091  0.00  0.00    +0.000 A 
ATOM     27  C   UNL     1      -0.033   9.616  23.172  0.00  0.00    +0.000 A 
ATOM     28  C   UNL     1       0.948   9.587  22.187  0.00  0.00    +0.000 A 
ATOM     29  C   UNL     1       0.877  10.472  21.105  0.00  0.00    +0.000 A 
ENDBRANCH  16  24
ENDBRANCH   1  16
TORSDOF 6
ENDMDL
MODEL 7
REMARK VINA RESULT:      -5.6      7.667     10.366
REMARK  Name = 
REMARK  6 active torsions:
REMARK  status: ('A' for Active; 'I' for Inactive)
REMARK    1  A    between atoms: O_1  and  C_2
REMARK    2  A    between atoms: C_2  and  C_3
REMARK    3  A    between atoms: C_2  and  C_9
REMARK    4  A    between atoms: C_2  and  C_15
REMARK    5  A    between atoms: C_15  and  C_16
REMARK    6  A    between atoms: C_15  and  N_22
REMARK                            x       y       z     vdW  Elec       q    Type
REMARK                         _______ _______ _______ _____ _____    ______ ____
ROOT
ATOM      1  C   UNL     1      -1.017  12.390  19.624  0.00  0.00    +0.000 C 
ENDROOT
BRANCH   1   2
ATOM      2  C   UNL     1      -1.901  12.377  20.900  0.00  0.00    +0.000 A 
ATOM      3  C   UNL     1      -3.189  12.938  20.972  0.00  0.00    +0.000 A 
ATOM      4  C   UNL     1      -3.912  12.916  22.165  0.00  0.00    +0.000 A 
ATOM      5  C   UNL     1      -3.335  12.328  23.272  0.00  0.00    +0.000 A 
ATOM      6  N   UNL     1      -2.106  11.777  23.261  0.00  0.00    +0.000 NA
ATOM      7  C   UNL     1      -1.424  11.818  22.089  0.00  0.00    +0.000 A 
ENDBRANCH   1   2
BRANCH   1   8
ATOM      8  C   UNL     1      -1.704  11.546  18.529  0.00  0.00    +0.000 A 
ATOM      9  C   UNL     1      -2.255  10.279  18.806  0.00  0.00    +0.000 A 
ATOM     10  C   UNL     1      -2.807   9.491  17.799  0.00  0.00    +0.000 A 
ATOM     11  C   UNL     1      -2.788   9.982  16.510  0.00  0.00    +0.000 A 
ATOM     12  N   UNL     1      -2.270  11.183  16.183  0.00  0.00    +0.000 NA
ATOM     13  C   UNL     1      -1.749  11.932  17.190  0.00  0.00    +0.000 A 
ENDBRANCH   1   8
BRANCH   1  14
ATOM     14  O   UNL     1      -0.955  13.727  19.069  0.00  0.00    +0.000 OA
ATOM     15  H   UNL     1      -0.625  14.323  19.755  0.00  0.00    +0.000 HD
ENDBRANCH   1  14
BRANCH   1  16
ATOM     16  C   UNL     1       0.520  11.956  20.004  0.00  0.00    +0.000 C 
BRANCH  16  17
ATOM     17  N   UNL     1       1.586  13.015  19.812  0.00  0.00    +0.000 NA
ATOM     18  C   UNL     1       1.636  13.573  18.447  0.00  0.00    +0.000 C 
ATOM     19  C   UNL     1       2.767  14.571  18.131  0.00  0.00    +0.000 C 
ATOM     20  C   UNL     1       2.683  15.865  18.931  0.00  0.00    +0.000 C 
ATOM     21  O   UNL     1       3.303  15.811  20.212  0.00  0.00    +0.000 OA
ATOM     22  C   UNL     1       3.105  14.604  20.936  0.00  0.00    +0.000 C 
ATOM     23  C   UNL     1       1.674  14.043  20.854  0.00  0.00    +0.000 C 
ENDBRANCH  16  17
BRANCH  16  24
ATOM     24  C   UNL     1       0.951  10.564  19.494  0.00  0.00    +0.000 A 
ATOM     25  C   UNL     1       1.455  10.355  18.202  0.00  0.00    +0.000 A 
ATOM     26  C   UNL     1       1.979   9.112  17.828  0.00  0.00    +0.000 A 
ATOM     27  C   UNL     1       2.008   8.055  18.735  0.00  0.00    +0.000 A 
ATOM     28  C   UNL     1       1.477   8.227  20.008  0.00  0.00    +0.000 A 
ATOM     29  C   UNL     1       0.950   9.468  20.383  0.00  0.00    +0.000 A 
ENDBRANCH  16  24
ENDBRANCH   1  16
TORSDOF 6
ENDMDL
MODEL 8
REMARK VINA RESULT:      -5.5      8.219     11.076
REMARK  Name = 
REMARK  6 active torsions:
REMARK  status: ('A' for Active; 'I' for Inactive)
REMARK    1  A    between atoms: O_1  and  C_2
REMARK    2  A    between atoms: C_2  and  C_3
REMARK    3  A    between atoms: C_2  and  C_9
REMARK    4  A    between atoms: C_2  and  C_15
REMARK    5  A    between atoms: C_15  and  C_16
REMARK    6  A    between atoms: C_15  and  N_22
REMARK                            x       y       z     vdW  Elec       q    Type
REMARK                         _______ _______ _______ _____ _____    ______ ____
ROOT
ATOM      1  C   UNL     1      -0.109  11.932  19.388  0.00  0.00    +0.000 C 
ENDROOT
BRANCH   1   2
ATOM      2  C   UNL     1      -0.196  11.098  20.694  0.00  0.00    +0.000 A 
ATOM      3  C   UNL     1      -0.142   9.693  20.738  0.00  0.00    +0.000 A 
ATOM      4  C   UNL     1      -0.258   9.011  21.949  0.00  0.00    +0.000 A 
ATOM      5  C   UNL     1      -0.425   9.747  23.104  0.00  0.00    +0.000 A 
ATOM      6  N   UNL     1      -0.486  11.092  23.122  0.00  0.00    +0.000 NA
ATOM      7  C   UNL     1      -0.376  11.729  21.929  0.00  0.00    +0.000 A 
ENDBRANCH   1   2
BRANCH   1   8
ATOM      8  C   UNL     1       0.918  13.068  19.585  0.00  0.00    +0.000 A 
ATOM      9  C   UNL     1       0.741  14.336  18.998  0.00  0.00    +0.000 A 
ATOM     10  C   UNL     1       1.707  15.332  19.117  0.00  0.00    +0.000 A 
ATOM     11  C   UNL     1       2.857  15.037  19.820  0.00  0.00    +0.000 A 
ATOM     12  N   UNL     1       3.085  13.841  20.397  0.00  0.00    +0.000 NA
ATOM     13  C   UNL     1       2.119  12.894  20.271  0.00  0.00    +0.000 A 
ENDBRANCH   1   8
BRANCH   1  14
ATOM     14  O   UNL     1       0.438  11.127  18.313  0.00  0.00    +0.000 OA
ATOM     15  H   UNL     1       1.083  10.516  18.694  0.00  0.00    +0.000 HD
ENDBRANCH   1  14
BRANCH   1  16
ATOM     16  C   UNL     1      -1.612  12.399  18.920  0.00  0.00    +0.000 C 
BRANCH  16  17
ATOM     17  N   UNL     1      -2.556  12.835  20.023  0.00  0.00    +0.000 NA
ATOM     18  C   UNL     1      -2.257  14.170  20.573  0.00  0.00    +0.000 C 
ATOM     19  C   UNL     1      -3.093  14.643  21.778  0.00  0.00    +0.000 C 
ATOM     20  C   UNL     1      -4.573  14.825  21.463  0.00  0.00    +0.000 C 
ATOM     21  O   UNL     1      -5.354  13.641  21.587  0.00  0.00    +0.000 OA
ATOM     22  C   UNL     1      -4.744  12.452  21.102  0.00  0.00    +0.000 C 
ATOM     23  C   UNL     1      -3.986  12.626  19.773  0.00  0.00    +0.000 C 
ENDBRANCH  16  17
BRANCH  16  24
ATOM     24  C   UNL     1      -2.285  11.483  17.876  0.00  0.00    +0.000 A 
ATOM     25  C   UNL     1      -2.304  11.784  16.506  0.00  0.00    +0.000 A 
ATOM     26  C   UNL     1      -2.785  10.858  15.574  0.00  0.00    +0.000 A 
ATOM     27  C   UNL     1      -3.259   9.616  15.990  0.00  0.00    +0.000 A 
ATOM     28  C   UNL     1      -3.288   9.311  17.347  0.00  0.00    +0.000 A 
ATOM     29  C   UNL     1      -2.810  10.237  18.280  0.00  0.00    +0.000 A 
ENDBRANCH  16  24
ENDBRANCH   1  16
TORSDOF 6
ENDMDL
MODEL 9
REMARK VINA RESULT:      -5.5      8.092     10.600
REMARK  Name = 
REMARK  6 active torsions:
REMARK  status: ('A' for Active; 'I' for Inactive)
REMARK    1  A    between atoms: O_1  and  C_2
REMARK    2  A    between atoms: C_2  and  C_3
REMARK    3  A    between atoms: C_2  and  C_9
REMARK    4  A    between atoms: C_2  and  C_15
REMARK    5  A    between atoms: C_15  and  C_16
REMARK    6  A    between atoms: C_15  and  N_22
REMARK                            x       y       z     vdW  Elec       q    Type
REMARK                         _______ _______ _______ _____ _____    ______ ____
ROOT
ATOM      1  C   UNL     1      -1.585  12.450  19.496  0.00  0.00    +0.000 C 
ENDROOT
BRANCH   1   2
ATOM      2  C   UNL     1      -2.683  12.580  20.585  0.00  0.00    +0.000 A 
ATOM      3  C   UNL     1      -3.953  13.141  20.360  0.00  0.00    +0.000 A 
ATOM      4  C   UNL     1      -4.879  13.253  21.397  0.00  0.00    +0.000 A 
ATOM      5  C   UNL     1      -4.520  12.798  22.650  0.00  0.00    +0.000 A 
ATOM      6  N   UNL     1      -3.319  12.254  22.923  0.00  0.00    +0.000 NA
ATOM      7  C   UNL     1      -2.437  12.163  21.897  0.00  0.00    +0.000 A 
ENDBRANCH   1   2
BRANCH   1   8
ATOM      8  C   UNL     1      -2.078  11.484  18.398  0.00  0.00    +0.000 A 
ATOM      9  C   UNL     1      -2.006  11.817  17.031  0.00  0.00    +0.000 A 
ATOM     10  C   UNL     1      -2.520  10.975  16.049  0.00  0.00    +0.000 A 
ATOM     11  C   UNL     1      -3.120   9.800  16.455  0.00  0.00    +0.000 A 
ATOM     12  N   UNL     1      -3.224   9.430  17.747  0.00  0.00    +0.000 NA
ATOM     13  C   UNL     1      -2.703  10.270  18.680  0.00  0.00    +0.000 A 
ENDBRANCH   1   8
BRANCH   1  14
ATOM     14  O   UNL     1      -1.400  13.715  18.814  0.00  0.00    +0.000 OA
ATOM     15  H   UNL     1      -0.554  14.089  19.097  0.00  0.00    +0.000 HD
ENDBRANCH   1  14
BRANCH   1  16
ATOM     16  C   UNL     1      -0.148  12.067  20.194  0.00  0.00    +0.000 C 
BRANCH  16  17
ATOM     17  N   UNL     1       0.849  13.197  20.346  0.00  0.00    +0.000 NA
ATOM     18  C   UNL     1       0.717  13.946  21.609  0.00  0.00    +0.000 C 
ATOM     19  C   UNL     1       1.614  15.186  21.795  0.00  0.00    +0.000 C 
ATOM     20  C   UNL     1       3.102  14.864  21.846  0.00  0.00    +0.000 C 
ATOM     21  O   UNL     1       3.736  14.791  20.574  0.00  0.00    +0.000 OA
ATOM     22  C   UNL     1       2.984  14.151  19.551  0.00  0.00    +0.000 C 
ATOM     23  C   UNL     1       2.242  12.883  20.009  0.00  0.00    +0.000 C 
ENDBRANCH  16  17
BRANCH  16  24
ATOM     24  C   UNL     1       0.494  10.757  19.690  0.00  0.00    +0.000 A 
ATOM     25  C   UNL     1       1.054  10.632  18.410  0.00  0.00    +0.000 A 
ATOM     26  C   UNL     1       1.763   9.482  18.045  0.00  0.00    +0.000 A 
ATOM     27  C   UNL     1       1.925   8.435  18.949  0.00  0.00    +0.000 A 
ATOM     28  C   UNL     1       1.345   8.518  20.210  0.00  0.00    +0.000 A 
ATOM     29  C   UNL     1       0.633   9.666  20.575  0.00  0.00    +0.000 A 
ENDBRANCH  16  24
ENDBRANCH   1  16
TORSDOF 6
ENDMDL
