MODEL 1
REMARK VINA RESULT:      -8.5      0.000      0.000
REMARK  Name = 
REMARK  8 active torsions:
REMARK  status: ('A' for Active; 'I' for Inactive)
REMARK    1  A    between atoms: C_2  and  O_3
REMARK    2  A    between atoms: C_2  and  C_4
REMARK    3  A    between atoms: C_4  and  C_5
REMARK    4  A    between atoms: C_8  and  N_9
REMARK    5  A    between atoms: N_10  and  C_11
REMARK    6  A    between atoms: C_12  and  O_13
REMARK    7  A    between atoms: C_14  and  C_15
REMARK    8  A    between atoms: C_15  and  O_17
REMARK                            x       y       z     vdW  Elec       q    Type
REMARK                         _______ _______ _______ _____ _____    ______ ____
ROOT
ATOM      1  C   UNL     1       3.945   6.010  17.523  0.00  0.00    +0.000 A 
ATOM      2  C   UNL     1       5.128   5.910  16.598  0.00  0.00    +0.000 A 
ATOM      3  C   UNL     1       5.563   4.698  16.082  0.00  0.00    +0.000 A 
ATOM      4  C   UNL     1       4.956   3.560  16.611  0.00  0.00    +0.000 A 
ATOM      5  C   UNL     1       3.856   3.574  17.450  0.00  0.00    +0.000 A 
ATOM      6  C   UNL     1       3.169   2.378  17.721  0.00  0.00    +0.000 A 
ATOM      7  C   UNL     1       1.839   2.228  18.279  0.00  0.00    +0.000 A 
ATOM      8  C   UNL     1       1.572   3.011  19.471  0.00  0.00    +0.000 A 
ATOM      9  C   UNL     1       2.297   4.268  19.106  0.00  0.00    +0.000 A 
ATOM     10  C   UNL     1       3.312   4.695  18.000  0.00  0.00    +0.000 A 
ENDROOT
BRANCH   1  12
ATOM     11  N   UNL     1       2.496   7.221  18.662  0.00  0.00    +0.000 NA
ATOM     12  N   UNL     1       3.463   7.253  17.846  0.00  0.00    +0.000 NA
BRANCH  11  16
ATOM     13  C   UNL     1       0.838  11.073  19.410  0.00  0.00    +0.000 A 
ATOM     14  C   UNL     1       1.508  10.794  18.213  0.00  0.00    +0.000 A 
ATOM     15  C   UNL     1       1.952   9.485  17.951  0.00  0.00    +0.000 A 
ATOM     16  C   UNL     1       1.898   8.477  18.930  0.00  0.00    +0.000 A 
ATOM     17  C   UNL     1       1.235   8.779  20.126  0.00  0.00    +0.000 A 
ATOM     18  C   UNL     1       0.715  10.058  20.362  0.00  0.00    +0.000 A 
BRANCH  13  19
ATOM     19  C   UNL     1       0.091  12.339  19.618  0.00  0.00    +0.000 C 
BRANCH  19  21
ATOM     20  O   UNL     1      -2.260  12.197  19.238  0.00  0.00    +0.000 OA
ATOM     21  C   UNL     1      -1.187  12.520  18.798  0.00  0.00    +0.000 C 
BRANCH  21  22
ATOM     22  O   UNL     1      -1.027  12.996  17.533  0.00  0.00    +0.000 OA
ATOM     23  H   UNL     1      -0.892  12.321  16.849  0.00  0.00    +0.000 HD
ENDBRANCH  21  22
ENDBRANCH  19  21
ENDBRANCH  13  19
ENDBRANCH  11  16
ENDBRANCH   1  12
BRANCH   2  24
ATOM     24  O   UNL     1       5.891   7.028  16.297  0.00  0.00    +0.000 OA
ATOM     25  H   UNL     1       6.848   6.827  16.361  0.00  0.00    +0.000 HD
ENDBRANCH   2  24
BRANCH   3  26
ATOM     26  C   UNL     1       6.586   4.500  14.947  0.00  0.00    +0.000 C 
ATOM     27  O   UNL     1       7.534   5.220  14.863  0.00  0.00    +0.000 OA
BRANCH  26  28
ATOM     28  O   UNL     1       6.384   3.489  14.138  0.00  0.00    +0.000 OA
ATOM     29  H   UNL     1       6.174   2.617  14.574  0.00  0.00    +0.000 HD
ENDBRANCH  26  28
ENDBRANCH   3  26
TORSDOF 8
ENDMDL
MODEL 2
REMARK VINA RESULT:      -8.5      0.786      1.104
REMARK  Name = 
REMARK  8 active torsions:
REMARK  status: ('A' for Active; 'I' for Inactive)
REMARK    1  A    between atoms: C_2  and  O_3
REMARK    2  A    between atoms: C_2  and  C_4
REMARK    3  A    between atoms: C_4  and  C_5
REMARK    4  A    between atoms: C_8  and  N_9
REMARK    5  A    between atoms: N_10  and  C_11
REMARK    6  A    between atoms: C_12  and  O_13
REMARK    7  A    between atoms: C_14  and  C_15
REMARK    8  A    between atoms: C_15  and  O_17
REMARK                            x       y       z     vdW  Elec       q    Type
REMARK                         _______ _______ _______ _____ _____    ______ ____
ROOT
ATOM      1  C   UNL     1       3.390   5.849  17.809  0.00  0.00    +0.000 A 
ATOM      2  C   UNL     1       4.671   5.722  17.031  0.00  0.00    +0.000 A 
ATOM      3  C   UNL     1       5.195   4.491  16.664  0.00  0.00    +0.000 A 
ATOM      4  C   UNL     1       4.564   3.375  17.212  0.00  0.00    +0.000 A 
ATOM      5  C   UNL     1       3.376   3.413  17.921  0.00  0.00    +0.000 A 
ATOM      6  C   UNL     1       2.696   2.217  18.209  0.00  0.00    +0.000 A 
ATOM      7  C   UNL     1       1.316   2.062  18.626  0.00  0.00    +0.000 A 
ATOM      8  C   UNL     1       0.895   2.923  19.716  0.00  0.00    +0.000 A 
ATOM      9  C   UNL     1       1.622   4.174  19.334  0.00  0.00    +0.000 A 
ATOM     10  C   UNL     1       2.743   4.552  18.316  0.00  0.00    +0.000 A 
ENDROOT
BRANCH   1  12
ATOM     11  N   UNL     1       2.399   7.298  19.146  0.00  0.00    +0.000 NA
ATOM     12  N   UNL     1       2.841   7.095  17.976  0.00  0.00    +0.000 NA
BRANCH  11  16
ATOM     13  C   UNL     1       0.497  11.080  19.617  0.00  0.00    +0.000 A 
ATOM     14  C   UNL     1       1.150  10.741  18.425  0.00  0.00    +0.000 A 
ATOM     15  C   UNL     1       1.676   9.447  18.262  0.00  0.00    +0.000 A 
ATOM     16  C   UNL     1       1.723   8.529  19.325  0.00  0.00    +0.000 A 
ATOM     17  C   UNL     1       1.076   8.891  20.513  0.00  0.00    +0.000 A 
ATOM     18  C   UNL     1       0.475  10.148  20.657  0.00  0.00    +0.000 A 
BRANCH  13  19
ATOM     19  C   UNL     1      -0.330  12.305  19.741  0.00  0.00    +0.000 C 
BRANCH  19  21
ATOM     20  O   UNL     1       0.402  14.275  18.611  0.00  0.00    +0.000 OA
ATOM     21  C   UNL     1      -0.281  13.284  18.567  0.00  0.00    +0.000 C 
BRANCH  21  22
ATOM     22  O   UNL     1      -1.099  13.004  17.516  0.00  0.00    +0.000 OA
ATOM     23  H   UNL     1      -1.828  13.631  17.378  0.00  0.00    +0.000 HD
ENDBRANCH  21  22
ENDBRANCH  19  21
ENDBRANCH  13  19
ENDBRANCH  11  16
ENDBRANCH   1  12
BRANCH   2  24
ATOM     24  O   UNL     1       5.433   6.840  16.728  0.00  0.00    +0.000 OA
ATOM     25  H   UNL     1       6.339   6.757  17.091  0.00  0.00    +0.000 HD
ENDBRANCH   2  24
BRANCH   3  26
ATOM     26  C   UNL     1       6.345   4.244  15.669  0.00  0.00    +0.000 C 
ATOM     27  O   UNL     1       6.137   3.668  14.645  0.00  0.00    +0.000 OA
BRANCH  26  28
ATOM     28  O   UNL     1       7.517   4.737  15.985  0.00  0.00    +0.000 OA
ATOM     29  H   UNL     1       7.601   5.729  15.929  0.00  0.00    +0.000 HD
ENDBRANCH  26  28
ENDBRANCH   3  26
TORSDOF 8
ENDMDL
MODEL 3
REMARK VINA RESULT:      -8.4      1.024      1.455
REMARK  Name = 
REMARK  8 active torsions:
REMARK  status: ('A' for Active; 'I' for Inactive)
REMARK    1  A    between atoms: C_2  and  O_3
REMARK    2  A    between atoms: C_2  and  C_4
REMARK    3  A    between atoms: C_4  and  C_5
REMARK    4  A    between atoms: C_8  and  N_9
REMARK    5  A    between atoms: N_10  and  C_11
REMARK    6  A    between atoms: C_12  and  O_13
REMARK    7  A    between atoms: C_14  and  C_15
REMARK    8  A    between atoms: C_15  and  O_17
REMARK                            x       y       z     vdW  Elec       q    Type
REMARK                         _______ _______ _______ _____ _____    ______ ____
ROOT
ATOM      1  C   UNL     1       3.565   6.109  17.977  0.00  0.00    +0.000 A 
ATOM      2  C   UNL     1       4.991   6.144  17.495  0.00  0.00    +0.000 A 
ATOM      3  C   UNL     1       5.709   4.988  17.224  0.00  0.00    +0.000 A 
ATOM      4  C   UNL     1       5.098   3.792  17.596  0.00  0.00    +0.000 A 
ATOM      5  C   UNL     1       3.788   3.680  18.029  0.00  0.00    +0.000 A 
ATOM      6  C   UNL     1       3.193   2.411  18.135  0.00  0.00    +0.000 A 
ATOM      7  C   UNL     1       1.781   2.102  18.237  0.00  0.00    +0.000 A 
ATOM      8  C   UNL     1       1.045   2.867  19.227  0.00  0.00    +0.000 A 
ATOM      9  C   UNL     1       1.700   4.200  19.041  0.00  0.00    +0.000 A 
ATOM     10  C   UNL     1       2.967   4.732  18.301  0.00  0.00    +0.000 A 
ENDROOT
BRANCH   1  12
ATOM     11  N   UNL     1       2.443   7.550  19.212  0.00  0.00    +0.000 NA
ATOM     12  N   UNL     1       2.864   7.284  18.048  0.00  0.00    +0.000 NA
BRANCH  11  16
ATOM     13  C   UNL     1      -0.163  10.902  19.550  0.00  0.00    +0.000 A 
ATOM     14  C   UNL     1      -0.033   9.979  20.594  0.00  0.00    +0.000 A 
ATOM     15  C   UNL     1       0.913   8.942  20.494  0.00  0.00    +0.000 A 
ATOM     16  C   UNL     1       1.617   8.697  19.303  0.00  0.00    +0.000 A 
ATOM     17  C   UNL     1       1.463   9.624  18.265  0.00  0.00    +0.000 A 
ATOM     18  C   UNL     1       0.585  10.709  18.386  0.00  0.00    +0.000 A 
BRANCH  13  19
ATOM     19  C   UNL     1      -0.914  12.173  19.711  0.00  0.00    +0.000 C 
BRANCH  19  21
ATOM     20  O   UNL     1      -3.297  12.199  19.820  0.00  0.00    +0.000 OA
ATOM     21  C   UNL     1      -2.321  12.214  19.115  0.00  0.00    +0.000 C 
BRANCH  21  22
ATOM     22  O   UNL     1      -2.400  12.198  17.756  0.00  0.00    +0.000 OA
ATOM     23  H   UNL     1      -2.839  12.966  17.356  0.00  0.00    +0.000 HD
ENDBRANCH  21  22
ENDBRANCH  19  21
ENDBRANCH  13  19
ENDBRANCH  11  16
ENDBRANCH   1  12
BRANCH   2  24
ATOM     24  O   UNL     1       5.676   7.345  17.390  0.00  0.00    +0.000 OA
ATOM     25  H   UNL     1       6.567   7.277  17.792  0.00  0.00    +0.000 HD
ENDBRANCH   2  24
BRANCH   3  26
ATOM     26  C   UNL     1       7.066   4.902  16.499  0.00  0.00    +0.000 C 
ATOM     27  O   UNL     1       7.267   5.561  15.525  0.00  0.00    +0.000 OA
BRANCH  26  28
ATOM     28  O   UNL     1       7.974   4.122  17.033  0.00  0.00    +0.000 OA
ATOM     29  H   UNL     1       7.644   3.251  17.391  0.00  0.00    +0.000 HD
ENDBRANCH  26  28
ENDBRANCH   3  26
TORSDOF 8
ENDMDL
MODEL 4
REMARK VINA RESULT:      -8.3      0.499      1.060
REMARK  Name = 
REMARK  8 active torsions:
REMARK  status: ('A' for Active; 'I' for Inactive)
REMARK    1  A    between atoms: C_2  and  O_3
REMARK    2  A    between atoms: C_2  and  C_4
REMARK    3  A    between atoms: C_4  and  C_5
REMARK    4  A    between atoms: C_8  and  N_9
REMARK    5  A    between atoms: N_10  and  C_11
REMARK    6  A    between atoms: C_12  and  O_13
REMARK    7  A    between atoms: C_14  and  C_15
REMARK    8  A    between atoms: C_15  and  O_17
REMARK                            x       y       z     vdW  Elec       q    Type
REMARK                         _______ _______ _______ _____ _____    ______ ____
ROOT
ATOM      1  C   UNL     1       3.559   5.879  17.535  0.00  0.00    +0.000 A 
ATOM      2  C   UNL     1       4.790   5.871  16.670  0.00  0.00    +0.000 A 
ATOM      3  C   UNL     1       5.387   4.693  16.244  0.00  0.00    +0.000 A 
ATOM      4  C   UNL     1       4.890   3.521  16.811  0.00  0.00    +0.000 A 
ATOM      5  C   UNL     1       3.755   3.449  17.599  0.00  0.00    +0.000 A 
ATOM      6  C   UNL     1       3.197   2.196  17.909  0.00  0.00    +0.000 A 
ATOM      7  C   UNL     1       1.868   1.920  18.415  0.00  0.00    +0.000 A 
ATOM      8  C   UNL     1       1.453   2.727  19.548  0.00  0.00    +0.000 A 
ATOM      9  C   UNL     1       2.046   4.040  19.143  0.00  0.00    +0.000 A 
ATOM     10  C   UNL     1       3.058   4.525  18.059  0.00  0.00    +0.000 A 
ENDROOT
BRANCH   1  12
ATOM     11  N   UNL     1       2.592   7.242  18.975  0.00  0.00    +0.000 NA
ATOM     12  N   UNL     1       2.922   7.072  17.765  0.00  0.00    +0.000 NA
BRANCH  11  16
ATOM     13  C   UNL     1       0.183  10.654  19.812  0.00  0.00    +0.000 A 
ATOM     14  C   UNL     1       0.381   9.654  20.772  0.00  0.00    +0.000 A 
ATOM     15  C   UNL     1       1.265   8.594  20.503  0.00  0.00    +0.000 A 
ATOM     16  C   UNL     1       1.830   8.409  19.230  0.00  0.00    +0.000 A 
ATOM     17  C   UNL     1       1.611   9.413  18.278  0.00  0.00    +0.000 A 
ATOM     18  C   UNL     1       0.798  10.516  18.565  0.00  0.00    +0.000 A 
BRANCH  13  19
ATOM     19  C   UNL     1      -0.490  11.936  20.136  0.00  0.00    +0.000 C 
BRANCH  19  21
ATOM     20  O   UNL     1      -2.446  12.029  18.773  0.00  0.00    +0.000 OA
ATOM     21  C   UNL     1      -1.386  12.530  19.050  0.00  0.00    +0.000 C 
BRANCH  21  22
ATOM     22  O   UNL     1      -0.886  13.603  18.377  0.00  0.00    +0.000 OA
ATOM     23  H   UNL     1       0.038  13.824  18.576  0.00  0.00    +0.000 HD
ENDBRANCH  21  22
ENDBRANCH  19  21
ENDBRANCH  13  19
ENDBRANCH  11  16
ENDBRANCH   1  12
BRANCH   2  24
ATOM     24  O   UNL     1       5.434   7.053  16.339  0.00  0.00    +0.000 OA
ATOM     25  H   UNL     1       4.918   7.561  15.678  0.00  0.00    +0.000 HD
ENDBRANCH   2  24
BRANCH   3  26
ATOM     26  C   UNL     1       6.482   4.558  15.168  0.00  0.00    +0.000 C 
ATOM     27  O   UNL     1       7.400   5.320  15.150  0.00  0.00    +0.000 OA
BRANCH  26  28
ATOM     28  O   UNL     1       6.371   3.554  14.334  0.00  0.00    +0.000 OA
ATOM     29  H   UNL     1       6.561   3.760  13.376  0.00  0.00    +0.000 HD
ENDBRANCH  26  28
ENDBRANCH   3  26
TORSDOF 8
ENDMDL
MODEL 5
REMARK VINA RESULT:      -8.3      1.128      1.392
REMARK  Name = 
REMARK  8 active torsions:
REMARK  status: ('A' for Active; 'I' for Inactive)
REMARK    1  A    between atoms: C_2  and  O_3
REMARK    2  A    between atoms: C_2  and  C_4
REMARK    3  A    between atoms: C_4  and  C_5
REMARK    4  A    between atoms: C_8  and  N_9
REMARK    5  A    between atoms: N_10  and  C_11
REMARK    6  A    between atoms: C_12  and  O_13
REMARK    7  A    between atoms: C_14  and  C_15
REMARK    8  A    between atoms: C_15  and  O_17
REMARK                            x       y       z     vdW  Elec       q    Type
REMARK                         _______ _______ _______ _____ _____    ______ ____
ROOT
ATOM      1  C   UNL     1       3.047   6.117  18.435  0.00  0.00    +0.000 A 
ATOM      2  C   UNL     1       4.195   6.127  17.462  0.00  0.00    +0.000 A 
ATOM      3  C   UNL     1       4.593   4.989  16.776  0.00  0.00    +0.000 A 
ATOM      4  C   UNL     1       3.988   3.798  17.172  0.00  0.00    +0.000 A 
ATOM      5  C   UNL     1       2.918   3.713  18.045  0.00  0.00    +0.000 A 
ATOM      6  C   UNL     1       2.222   2.499  18.182  0.00  0.00    +0.000 A 
ATOM      7  C   UNL     1       0.911   2.291  18.763  0.00  0.00    +0.000 A 
ATOM      8  C   UNL     1       0.697   2.913  20.056  0.00  0.00    +0.000 A 
ATOM      9  C   UNL     1       1.428   4.199  19.834  0.00  0.00    +0.000 A 
ATOM     10  C   UNL     1       2.410   4.757  18.757  0.00  0.00    +0.000 A 
ENDROOT
BRANCH   1  12
ATOM     11  N   UNL     1       2.022   8.035  18.070  0.00  0.00    +0.000 NA
ATOM     12  N   UNL     1       2.596   7.311  18.936  0.00  0.00    +0.000 NA
BRANCH  11  16
ATOM     13  C   UNL     1       1.052  11.953  19.432  0.00  0.00    +0.000 A 
ATOM     14  C   UNL     1       1.982  11.754  18.404  0.00  0.00    +0.000 A 
ATOM     15  C   UNL     1       2.203  10.457  17.906  0.00  0.00    +0.000 A 
ATOM     16  C   UNL     1       1.645   9.324  18.522  0.00  0.00    +0.000 A 
ATOM     17  C   UNL     1       0.727   9.543  19.557  0.00  0.00    +0.000 A 
ATOM     18  C   UNL     1       0.437  10.838  20.005  0.00  0.00    +0.000 A 
BRANCH  13  19
ATOM     19  C   UNL     1       0.557  13.305  19.795  0.00  0.00    +0.000 C 
BRANCH  19  21
ATOM     20  O   UNL     1      -0.120  15.264  18.615  0.00  0.00    +0.000 OA
ATOM     21  C   UNL     1      -0.204  14.067  18.709  0.00  0.00    +0.000 C 
BRANCH  21  22
ATOM     22  O   UNL     1      -1.023  13.325  17.915  0.00  0.00    +0.000 OA
ATOM     23  H   UNL     1      -1.679  13.831  17.408  0.00  0.00    +0.000 HD
ENDBRANCH  21  22
ENDBRANCH  19  21
ENDBRANCH  13  19
ENDBRANCH  11  16
ENDBRANCH   1  12
BRANCH   2  24
ATOM     24  O   UNL     1       4.964   7.267  17.283  0.00  0.00    +0.000 OA
ATOM     25  H   UNL     1       4.934   7.840  18.078  0.00  0.00    +0.000 HD
ENDBRANCH   2  24
BRANCH   3  26
ATOM     26  C   UNL     1       5.573   4.932  15.588  0.00  0.00    +0.000 C 
ATOM     27  O   UNL     1       5.797   5.914  14.948  0.00  0.00    +0.000 OA
BRANCH  26  28
ATOM     28  O   UNL     1       6.166   3.785  15.365  0.00  0.00    +0.000 OA
ATOM     29  H   UNL     1       7.026   3.638  15.849  0.00  0.00    +0.000 HD
ENDBRANCH  26  28
ENDBRANCH   3  26
TORSDOF 8
ENDMDL
MODEL 6
REMARK VINA RESULT:      -8.3      1.360      1.831
REMARK  Name = 
REMARK  8 active torsions:
REMARK  status: ('A' for Active; 'I' for Inactive)
REMARK    1  A    between atoms: C_2  and  O_3
REMARK    2  A    between atoms: C_2  and  C_4
REMARK    3  A    between atoms: C_4  and  C_5
REMARK    4  A    between atoms: C_8  and  N_9
REMARK    5  A    between atoms: N_10  and  C_11
REMARK    6  A    between atoms: C_12  and  O_13
REMARK    7  A    between atoms: C_14  and  C_15
REMARK    8  A    between atoms: C_15  and  O_17
REMARK                            x       y       z     vdW  Elec       q    Type
REMARK                         _______ _______ _______ _____ _____    ______ ____
ROOT
ATOM      1  C   UNL     1       3.621   5.813  17.610  0.00  0.00    +0.000 A 
ATOM      2  C   UNL     1       4.832   5.842  16.718  0.00  0.00    +0.000 A 
ATOM      3  C   UNL     1       5.425   4.684  16.237  0.00  0.00    +0.000 A 
ATOM      4  C   UNL     1       4.946   3.489  16.773  0.00  0.00    +0.000 A 
ATOM      5  C   UNL     1       3.830   3.384  17.584  0.00  0.00    +0.000 A 
ATOM      6  C   UNL     1       3.285   2.117  17.861  0.00  0.00    +0.000 A 
ATOM      7  C   UNL     1       1.969   1.816  18.388  0.00  0.00    +0.000 A 
ATOM      8  C   UNL     1       1.576   2.581  19.557  0.00  0.00    +0.000 A 
ATOM      9  C   UNL     1       2.153   3.910  19.185  0.00  0.00    +0.000 A 
ATOM     10  C   UNL     1       3.138   4.439  18.097  0.00  0.00    +0.000 A 
ENDROOT
BRANCH   1  12
ATOM     11  N   UNL     1       2.608   7.084  19.101  0.00  0.00    +0.000 NA
ATOM     12  N   UNL     1       2.983   6.993  17.895  0.00  0.00    +0.000 NA
BRANCH  11  16
ATOM     13  C   UNL     1       0.199  10.455  20.091  0.00  0.00    +0.000 A 
ATOM     14  C   UNL     1       0.448   9.443  21.026  0.00  0.00    +0.000 A 
ATOM     15  C   UNL     1       1.331   8.397  20.704  0.00  0.00    +0.000 A 
ATOM     16  C   UNL     1       1.845   8.239  19.406  0.00  0.00    +0.000 A 
ATOM     17  C   UNL     1       1.575   9.254  18.480  0.00  0.00    +0.000 A 
ATOM     18  C   UNL     1       0.763  10.344  18.818  0.00  0.00    +0.000 A 
BRANCH  13  19
ATOM     19  C   UNL     1      -0.474  11.724  20.463  0.00  0.00    +0.000 C 
BRANCH  19  21
ATOM     20  O   UNL     1       1.052  13.178  21.580  0.00  0.00    +0.000 OA
ATOM     21  C   UNL     1       0.087  12.464  21.678  0.00  0.00    +0.000 C 
BRANCH  21  22
ATOM     22  O   UNL     1      -0.521  12.213  22.869  0.00  0.00    +0.000 OA
ATOM     23  H   UNL     1      -1.304  12.755  23.058  0.00  0.00    +0.000 HD
ENDBRANCH  21  22
ENDBRANCH  19  21
ENDBRANCH  13  19
ENDBRANCH  11  16
ENDBRANCH   1  12
BRANCH   2  24
ATOM     24  O   UNL     1       5.462   7.040  16.413  0.00  0.00    +0.000 OA
ATOM     25  H   UNL     1       4.807   7.756  16.277  0.00  0.00    +0.000 HD
ENDBRANCH   2  24
BRANCH   3  26
ATOM     26  C   UNL     1       6.495   4.593  15.133  0.00  0.00    +0.000 C 
ATOM     27  O   UNL     1       7.387   5.384  15.097  0.00  0.00    +0.000 OA
BRANCH  26  28
ATOM     28  O   UNL     1       6.396   3.591  14.293  0.00  0.00    +0.000 OA
ATOM     29  H   UNL     1       6.339   3.836  13.328  0.00  0.00    +0.000 HD
ENDBRANCH  26  28
ENDBRANCH   3  26
TORSDOF 8
ENDMDL
MODEL 7
REMARK VINA RESULT:      -8.3      2.409      3.635
REMARK  Name = 
REMARK  8 active torsions:
REMARK  status: ('A' for Active; 'I' for Inactive)
REMARK    1  A    between atoms: C_2  and  O_3
REMARK    2  A    between atoms: C_2  and  C_4
REMARK    3  A    between atoms: C_4  and  C_5
REMARK    4  A    between atoms: C_8  and  N_9
REMARK    5  A    between atoms: N_10  and  C_11
REMARK    6  A    between atoms: C_12  and  O_13
REMARK    7  A    between atoms: C_14  and  C_15
REMARK    8  A    between atoms: C_15  and  O_17
REMARK                            x       y       z     vdW  Elec       q    Type
REMARK                         _______ _______ _______ _____ _____    ______ ____
ROOT
ATOM      1  C   UNL     1       3.368   5.780  18.005  0.00  0.00    +0.000 A 
ATOM      2  C   UNL     1       2.768   4.403  18.101  0.00  0.00    +0.000 A 
ATOM      3  C   UNL     1       3.549   3.258  18.166  0.00  0.00    +0.000 A 
ATOM      4  C   UNL     1       4.915   3.442  17.955  0.00  0.00    +0.000 A 
ATOM      5  C   UNL     1       5.538   4.674  17.875  0.00  0.00    +0.000 A 
ATOM      6  C   UNL     1       6.942   4.752  17.915  0.00  0.00    +0.000 A 
ATOM      7  C   UNL     1       7.756   5.921  18.179  0.00  0.00    +0.000 A 
ATOM      8  C   UNL     1       7.407   7.108  17.420  0.00  0.00    +0.000 A 
ATOM      9  C   UNL     1       5.916   6.982  17.443  0.00  0.00    +0.000 A 
ATOM     10  C   UNL     1       4.891   5.873  17.834  0.00  0.00    +0.000 A 
ENDROOT
BRANCH   1  12
ATOM     11  N   UNL     1       2.538   7.366  19.293  0.00  0.00    +0.000 NA
ATOM     12  N   UNL     1       2.544   6.868  18.129  0.00  0.00    +0.000 NA
BRANCH  11  16
ATOM     13  C   UNL     1      -0.137  10.641  19.804  0.00  0.00    +0.000 A 
ATOM     14  C   UNL     1       0.512  10.421  18.583  0.00  0.00    +0.000 A 
ATOM     15  C   UNL     1       1.306   9.272  18.414  0.00  0.00    +0.000 A 
ATOM     16  C   UNL     1       1.612   8.420  19.489  0.00  0.00    +0.000 A 
ATOM     17  C   UNL     1       0.964   8.665  20.706  0.00  0.00    +0.000 A 
ATOM     18  C   UNL     1       0.105   9.760  20.861  0.00  0.00    +0.000 A 
BRANCH  13  19
ATOM     19  C   UNL     1      -1.211  11.655  19.954  0.00  0.00    +0.000 C 
BRANCH  19  21
ATOM     20  O   UNL     1      -3.049  11.374  18.461  0.00  0.00    +0.000 OA
ATOM     21  C   UNL     1      -2.031  11.969  18.703  0.00  0.00    +0.000 C 
BRANCH  21  22
ATOM     22  O   UNL     1      -1.510  12.901  17.859  0.00  0.00    +0.000 OA
ATOM     23  H   UNL     1      -0.579  13.128  18.015  0.00  0.00    +0.000 HD
ENDBRANCH  21  22
ENDBRANCH  19  21
ENDBRANCH  13  19
ENDBRANCH  11  16
ENDBRANCH   1  12
BRANCH   2  24
ATOM     24  O   UNL     1       1.395   4.220  18.036  0.00  0.00    +0.000 OA
ATOM     25  H   UNL     1       1.129   3.870  17.160  0.00  0.00    +0.000 HD
ENDBRANCH   2  24
BRANCH   3  26
ATOM     26  C   UNL     1       3.065   1.837  18.515  0.00  0.00    +0.000 C 
ATOM     27  O   UNL     1       1.971   1.670  18.960  0.00  0.00    +0.000 OA
BRANCH  26  28
ATOM     28  O   UNL     1       3.887   0.851  18.252  0.00  0.00    +0.000 OA
ATOM     29  H   UNL     1       4.076   0.688  17.286  0.00  0.00    +0.000 HD
ENDBRANCH  26  28
ENDBRANCH   3  26
TORSDOF 8
ENDMDL
MODEL 8
REMARK VINA RESULT:      -8.2      2.388      3.739
REMARK  Name = 
REMARK  8 active torsions:
REMARK  status: ('A' for Active; 'I' for Inactive)
REMARK    1  A    between atoms: C_2  and  O_3
REMARK    2  A    between atoms: C_2  and  C_4
REMARK    3  A    between atoms: C_4  and  C_5
REMARK    4  A    between atoms: C_8  and  N_9
REMARK    5  A    between atoms: N_10  and  C_11
REMARK    6  A    between atoms: C_12  and  O_13
REMARK    7  A    between atoms: C_14  and  C_15
REMARK    8  A    between atoms: C_15  and  O_17
REMARK                            x       y       z     vdW  Elec       q    Type
REMARK                         _______ _______ _______ _____ _____    ______ ____
ROOT
ATOM      1  C   UNL     1       3.373   5.831  17.855  0.00  0.00    +0.000 A 
ATOM      2  C   UNL     1       2.756   4.460  17.890  0.00  0.00    +0.000 A 
ATOM      3  C   UNL     1       3.521   3.305  17.967  0.00  0.00    +0.000 A 
ATOM      4  C   UNL     1       4.897   3.478  17.828  0.00  0.00    +0.000 A 
ATOM      5  C   UNL     1       5.536   4.705  17.808  0.00  0.00    +0.000 A 
ATOM      6  C   UNL     1       6.936   4.766  17.920  0.00  0.00    +0.000 A 
ATOM      7  C   UNL     1       7.749   5.919  18.251  0.00  0.00    +0.000 A 
ATOM      8  C   UNL     1       7.450   7.127  17.504  0.00  0.00    +0.000 A 
ATOM      9  C   UNL     1       5.958   7.018  17.449  0.00  0.00    +0.000 A 
ATOM     10  C   UNL     1       4.904   5.911  17.763  0.00  0.00    +0.000 A 
ENDROOT
BRANCH   1  12
ATOM     11  N   UNL     1       2.540   7.432  19.123  0.00  0.00    +0.000 NA
ATOM     12  N   UNL     1       2.555   6.926  17.963  0.00  0.00    +0.000 NA
BRANCH  11  16
ATOM     13  C   UNL     1      -0.330  10.517  19.746  0.00  0.00    +0.000 A 
ATOM     14  C   UNL     1       0.038   9.650  20.782  0.00  0.00    +0.000 A 
ATOM     15  C   UNL     1       1.063   8.711  20.575  0.00  0.00    +0.000 A 
ATOM     16  C   UNL     1       1.620   8.493  19.302  0.00  0.00    +0.000 A 
ATOM     17  C   UNL     1       1.231   9.362  18.275  0.00  0.00    +0.000 A 
ATOM     18  C   UNL     1       0.269  10.357  18.494  0.00  0.00    +0.000 A 
BRANCH  13  19
ATOM     19  C   UNL     1      -1.179  11.712  19.981  0.00  0.00    +0.000 C 
BRANCH  19  21
ATOM     20  O   UNL     1      -0.660  13.657  18.701  0.00  0.00    +0.000 OA
ATOM     21  C   UNL     1      -1.346  12.673  18.804  0.00  0.00    +0.000 C 
BRANCH  21  22
ATOM     22  O   UNL     1      -2.351  12.386  17.931  0.00  0.00    +0.000 OA
ATOM     23  H   UNL     1      -2.066  12.142  17.036  0.00  0.00    +0.000 HD
ENDBRANCH  21  22
ENDBRANCH  19  21
ENDBRANCH  13  19
ENDBRANCH  11  16
ENDBRANCH   1  12
BRANCH   2  24
ATOM     24  O   UNL     1       1.386   4.294  17.751  0.00  0.00    +0.000 OA
ATOM     25  H   UNL     1       0.897   4.884  18.362  0.00  0.00    +0.000 HD
ENDBRANCH   2  24
BRANCH   3  26
ATOM     26  C   UNL     1       3.006   1.882  18.258  0.00  0.00    +0.000 C 
ATOM     27  O   UNL     1       3.778   0.986  18.413  0.00  0.00    +0.000 OA
BRANCH  26  28
ATOM     28  O   UNL     1       1.709   1.734  18.372  0.00  0.00    +0.000 OA
ATOM     29  H   UNL     1       1.250   1.304  17.597  0.00  0.00    +0.000 HD
ENDBRANCH  26  28
ENDBRANCH   3  26
TORSDOF 8
ENDMDL
MODEL 9
REMARK VINA RESULT:      -8.2      1.019      1.580
REMARK  Name = 
REMARK  8 active torsions:
REMARK  status: ('A' for Active; 'I' for Inactive)
REMARK    1  A    between atoms: C_2  and  O_3
REMARK    2  A    between atoms: C_2  and  C_4
REMARK    3  A    between atoms: C_4  and  C_5
REMARK    4  A    between atoms: C_8  and  N_9
REMARK    5  A    between atoms: N_10  and  C_11
REMARK    6  A    between atoms: C_12  and  O_13
REMARK    7  A    between atoms: C_14  and  C_15
REMARK    8  A    between atoms: C_15  and  O_17
REMARK                            x       y       z     vdW  Elec       q    Type
REMARK                         _______ _______ _______ _____ _____    ______ ____
ROOT
ATOM      1  C   UNL     1       3.266   5.876  17.864  0.00  0.00    +0.000 A 
ATOM      2  C   UNL     1       4.557   5.781  17.096  0.00  0.00    +0.000 A 
ATOM      3  C   UNL     1       5.115   4.564  16.734  0.00  0.00    +0.000 A 
ATOM      4  C   UNL     1       4.508   3.432  17.276  0.00  0.00    +0.000 A 
ATOM      5  C   UNL     1       3.314   3.440  17.975  0.00  0.00    +0.000 A 
ATOM      6  C   UNL     1       2.662   2.227  18.257  0.00  0.00    +0.000 A 
ATOM      7  C   UNL     1       1.284   2.037  18.663  0.00  0.00    +0.000 A 
ATOM      8  C   UNL     1       0.831   2.886  19.749  0.00  0.00    +0.000 A 
ATOM      9  C   UNL     1       1.529   4.156  19.374  0.00  0.00    +0.000 A 
ATOM     10  C   UNL     1       2.648   4.563  18.365  0.00  0.00    +0.000 A 
ENDROOT
BRANCH   1  12
ATOM     11  N   UNL     1       2.338   7.346  19.221  0.00  0.00    +0.000 NA
ATOM     12  N   UNL     1       2.684   7.107  18.027  0.00  0.00    +0.000 NA
BRANCH  11  16
ATOM     13  C   UNL     1       0.090  10.906  19.866  0.00  0.00    +0.000 A 
ATOM     14  C   UNL     1       0.287   9.978  20.896  0.00  0.00    +0.000 A 
ATOM     15  C   UNL     1       1.120   8.865  20.681  0.00  0.00    +0.000 A 
ATOM     16  C   UNL     1       1.630   8.559  19.408  0.00  0.00    +0.000 A 
ATOM     17  C   UNL     1       1.412   9.493  18.388  0.00  0.00    +0.000 A 
ATOM     18  C   UNL     1       0.651  10.647  18.613  0.00  0.00    +0.000 A 
BRANCH  13  19
ATOM     19  C   UNL     1      -0.523  12.235  20.110  0.00  0.00    +0.000 C 
BRANCH  19  21
ATOM     20  O   UNL     1       1.123  13.913  19.703  0.00  0.00    +0.000 OA
ATOM     21  C   UNL     1       0.084  13.416  19.352  0.00  0.00    +0.000 C 
BRANCH  21  22
ATOM     22  O   UNL     1      -0.649  13.907  18.315  0.00  0.00    +0.000 OA
ATOM     23  H   UNL     1      -0.152  14.430  17.666  0.00  0.00    +0.000 HD
ENDBRANCH  21  22
ENDBRANCH  19  21
ENDBRANCH  13  19
ENDBRANCH  11  16
ENDBRANCH   1  12
BRANCH   2  24
ATOM     24  O   UNL     1       5.292   6.919  16.800  0.00  0.00    +0.000 OA
ATOM     25  H   UNL     1       5.894   7.151  17.537  0.00  0.00    +0.000 HD
ENDBRANCH   2  24
BRANCH   3  26
ATOM     26  C   UNL     1       6.279   4.347  15.747  0.00  0.00    +0.000 C 
ATOM     27  O   UNL     1       6.092   3.776  14.717  0.00  0.00    +0.000 OA
BRANCH  26  28
ATOM     28  O   UNL     1       7.438   4.860  16.079  0.00  0.00    +0.000 OA
ATOM     29  H   UNL     1       7.561   5.829  15.873  0.00  0.00    +0.000 HD
ENDBRANCH  26  28
ENDBRANCH   3  26
TORSDOF 8
ENDMDL
