MODEL 1
REMARK VINA RESULT:      -8.0      0.000      0.000
REMARK  Name = 
REMARK  5 active torsions:
REMARK  status: ('A' for Active; 'I' for Inactive)
REMARK    1  A    between atoms: C_1  and  C_2
REMARK    2  A    between atoms: C_6  and  C_7
REMARK    3  A    between atoms: N_9  and  C_10
REMARK    4  A    between atoms: N_13  and  C_14
REMARK    5  A    between atoms: C_14  and  C_15
REMARK                            x       y       z     vdW  Elec       q    Type
REMARK                         _______ _______ _______ _____ _____    ______ ____
ROOT
ATOM      1  C   UNL     1       7.815   6.269  18.386  0.00  0.00    +0.000 C 
ATOM      2  C   UNL     1       7.208   6.197  16.985  0.00  0.00    +0.000 C 
ATOM      3  C   UNL     1       5.687   6.257  16.957  0.00  0.00    +0.000 C 
ATOM      4  N   UNL     1       5.107   5.234  17.846  0.00  0.00    +0.000 NA
ATOM      5  C   UNL     1       5.439   5.602  19.233  0.00  0.00    +0.000 C 
ATOM      6  C   UNL     1       6.953   5.628  19.485  0.00  0.00    +0.000 C 
ENDROOT
BRANCH   1   9
ATOM      7  C   UNL     1       8.165   8.792  18.103  0.00  0.00    +0.000 C 
ATOM      8  O   UNL     1       7.365   8.977  17.194  0.00  0.00    +0.000 OA
ATOM      9  N   UNL     1       8.397   7.576  18.702  0.00  0.00    +0.000 N 
ATOM     10  H   UNL     1       9.143   7.602  19.396  0.00  0.00    +0.000 HD
BRANCH   7  16
ATOM     11  C   UNL     1      11.132  12.603  17.304  0.00  0.00    +0.000 C 
ATOM     12  C   UNL     1      10.400  11.735  18.289  0.00  0.00    +0.000 A 
ATOM     13  C   UNL     1      10.527  11.971  19.656  0.00  0.00    +0.000 A 
ATOM     14  C   UNL     1       9.856  11.141  20.548  0.00  0.00    +0.000 A 
ATOM     15  C   UNL     1       9.077  10.095  20.060  0.00  0.00    +0.000 A 
ATOM     16  C   UNL     1       8.993   9.922  18.685  0.00  0.00    +0.000 A 
ATOM     17  N   UNL     1       9.641  10.728  17.782  0.00  0.00    +0.000 NA
ENDBRANCH   7  16
ENDBRANCH   1   9
BRANCH   4  18
ATOM     18  C   UNL     1       3.643   5.192  17.623  0.00  0.00    +0.000 C 
BRANCH  18  19
ATOM     19  C   UNL     1       2.840   4.391  18.631  0.00  0.00    +0.000 A 
ATOM     20  C   UNL     1       2.058   5.056  19.590  0.00  0.00    +0.000 A 
ATOM     21  C   UNL     1       1.269   4.337  20.491  0.00  0.00    +0.000 A 
ATOM     22  C   UNL     1       1.247   2.946  20.443  0.00  0.00    +0.000 A 
ATOM     23  C   UNL     1       2.014   2.273  19.493  0.00  0.00    +0.000 A 
ATOM     24  C   UNL     1       2.806   2.990  18.591  0.00  0.00    +0.000 A 
ENDBRANCH  18  19
ENDBRANCH   4  18
TORSDOF 4
ENDMDL
MODEL 2
REMARK VINA RESULT:      -8.0      1.364      2.133
REMARK  Name = 
REMARK  5 active torsions:
REMARK  status: ('A' for Active; 'I' for Inactive)
REMARK    1  A    between atoms: C_1  and  C_2
REMARK    2  A    between atoms: C_6  and  C_7
REMARK    3  A    between atoms: N_9  and  C_10
REMARK    4  A    between atoms: N_13  and  C_14
REMARK    5  A    between atoms: C_14  and  C_15
REMARK                            x       y       z     vdW  Elec       q    Type
REMARK                         _______ _______ _______ _____ _____    ______ ____
ROOT
ATOM      1  C   UNL     1       6.540   6.857  16.802  0.00  0.00    +0.000 C 
ATOM      2  C   UNL     1       5.070   6.803  17.217  0.00  0.00    +0.000 C 
ATOM      3  C   UNL     1       4.791   5.917  18.423  0.00  0.00    +0.000 C 
ATOM      4  N   UNL     1       5.341   4.565  18.218  0.00  0.00    +0.000 NA
ATOM      5  C   UNL     1       6.809   4.673  18.204  0.00  0.00    +0.000 C 
ATOM      6  C   UNL     1       7.320   5.559  17.059  0.00  0.00    +0.000 C 
ENDROOT
BRANCH   1   9
ATOM      7  C   UNL     1       8.110   8.314  18.210  0.00  0.00    +0.000 C 
ATOM      8  O   UNL     1       8.536   7.440  18.954  0.00  0.00    +0.000 OA
ATOM      9  N   UNL     1       7.209   8.100  17.192  0.00  0.00    +0.000 N 
ATOM     10  H   UNL     1       6.921   8.957  16.721  0.00  0.00    +0.000 HD
BRANCH   7  16
ATOM     11  C   UNL     1      10.813  11.640  20.575  0.00  0.00    +0.000 C 
ATOM     12  C   UNL     1       9.851  11.329  19.463  0.00  0.00    +0.000 A 
ATOM     13  C   UNL     1       9.393  12.348  18.631  0.00  0.00    +0.000 A 
ATOM     14  C   UNL     1       8.486  12.038  17.623  0.00  0.00    +0.000 A 
ATOM     15  C   UNL     1       8.054  10.723  17.468  0.00  0.00    +0.000 A 
ATOM     16  C   UNL     1       8.556   9.759  18.331  0.00  0.00    +0.000 A 
ATOM     17  N   UNL     1       9.454  10.036  19.331  0.00  0.00    +0.000 NA
ENDBRANCH   7  16
ENDBRANCH   1   9
BRANCH   4  18
ATOM     18  C   UNL     1       4.864   3.691  19.315  0.00  0.00    +0.000 C 
BRANCH  18  19
ATOM     19  C   UNL     1       3.362   3.492  19.400  0.00  0.00    +0.000 A 
ATOM     20  C   UNL     1       2.684   2.830  18.364  0.00  0.00    +0.000 A 
ATOM     21  C   UNL     1       1.310   2.588  18.448  0.00  0.00    +0.000 A 
ATOM     22  C   UNL     1       0.598   3.000  19.572  0.00  0.00    +0.000 A 
ATOM     23  C   UNL     1       1.259   3.653  20.611  0.00  0.00    +0.000 A 
ATOM     24  C   UNL     1       2.634   3.898  20.527  0.00  0.00    +0.000 A 
ENDBRANCH  18  19
ENDBRANCH   4  18
TORSDOF 4
ENDMDL
MODEL 3
REMARK VINA RESULT:      -8.0      0.246      1.028
REMARK  Name = 
REMARK  5 active torsions:
REMARK  status: ('A' for Active; 'I' for Inactive)
REMARK    1  A    between atoms: C_1  and  C_2
REMARK    2  A    between atoms: C_6  and  C_7
REMARK    3  A    between atoms: N_9  and  C_10
REMARK    4  A    between atoms: N_13  and  C_14
REMARK    5  A    between atoms: C_14  and  C_15
REMARK                            x       y       z     vdW  Elec       q    Type
REMARK                         _______ _______ _______ _____ _____    ______ ____
ROOT
ATOM      1  C   UNL     1       7.821   6.309  18.354  0.00  0.00    +0.000 C 
ATOM      2  C   UNL     1       7.233   6.246  16.944  0.00  0.00    +0.000 C 
ATOM      3  C   UNL     1       5.713   6.323  16.895  0.00  0.00    +0.000 C 
ATOM      4  N   UNL     1       5.109   5.305  17.774  0.00  0.00    +0.000 NA
ATOM      5  C   UNL     1       5.426   5.667  19.166  0.00  0.00    +0.000 C 
ATOM      6  C   UNL     1       6.936   5.676  19.439  0.00  0.00    +0.000 C 
ENDROOT
BRANCH   1   9
ATOM      7  C   UNL     1       8.168   8.837  18.112  0.00  0.00    +0.000 C 
ATOM      8  O   UNL     1       7.346   9.040  17.227  0.00  0.00    +0.000 OA
ATOM      9  N   UNL     1       8.413   7.608  18.680  0.00  0.00    +0.000 N 
ATOM     10  H   UNL     1       9.177   7.620  19.355  0.00  0.00    +0.000 HD
BRANCH   7  16
ATOM     11  C   UNL     1      11.216  12.584  17.317  0.00  0.00    +0.000 C 
ATOM     12  C   UNL     1      10.458  11.737  18.300  0.00  0.00    +0.000 A 
ATOM     13  C   UNL     1      10.578  11.979  19.667  0.00  0.00    +0.000 A 
ATOM     14  C   UNL     1       9.882  11.167  20.557  0.00  0.00    +0.000 A 
ATOM     15  C   UNL     1       9.087  10.134  20.069  0.00  0.00    +0.000 A 
ATOM     16  C   UNL     1       9.013   9.954  18.694  0.00  0.00    +0.000 A 
ATOM     17  N   UNL     1       9.685  10.742  17.793  0.00  0.00    +0.000 NA
ENDBRANCH   7  16
ENDBRANCH   1   9
BRANCH   4  18
ATOM     18  C   UNL     1       3.648   5.280  17.531  0.00  0.00    +0.000 C 
BRANCH  18  19
ATOM     19  C   UNL     1       2.846   4.327  18.397  0.00  0.00    +0.000 A 
ATOM     20  C   UNL     1       3.055   2.943  18.293  0.00  0.00    +0.000 A 
ATOM     21  C   UNL     1       2.367   2.051  19.119  0.00  0.00    +0.000 A 
ATOM     22  C   UNL     1       1.464   2.532  20.064  0.00  0.00    +0.000 A 
ATOM     23  C   UNL     1       1.250   3.905  20.182  0.00  0.00    +0.000 A 
ATOM     24  C   UNL     1       1.936   4.799  19.354  0.00  0.00    +0.000 A 
ENDBRANCH  18  19
ENDBRANCH   4  18
TORSDOF 4
ENDMDL
MODEL 4
REMARK VINA RESULT:      -8.0      6.020      8.754
REMARK  Name = 
REMARK  5 active torsions:
REMARK  status: ('A' for Active; 'I' for Inactive)
REMARK    1  A    between atoms: C_1  and  C_2
REMARK    2  A    between atoms: C_6  and  C_7
REMARK    3  A    between atoms: N_9  and  C_10
REMARK    4  A    between atoms: N_13  and  C_14
REMARK    5  A    between atoms: C_14  and  C_15
REMARK                            x       y       z     vdW  Elec       q    Type
REMARK                         _______ _______ _______ _____ _____    ______ ____
ROOT
ATOM      1  C   UNL     1       1.180   9.847  19.006  0.00  0.00    +0.000 C 
ATOM      2  C   UNL     1       2.225   9.524  17.938  0.00  0.00    +0.000 C 
ATOM      3  C   UNL     1       2.532   8.041  17.789  0.00  0.00    +0.000 C 
ATOM      4  N   UNL     1       2.892   7.448  19.090  0.00  0.00    +0.000 NA
ATOM      5  C   UNL     1       1.692   7.466  19.942  0.00  0.00    +0.000 C 
ATOM      6  C   UNL     1       1.184   8.890  20.208  0.00  0.00    +0.000 C 
ENDROOT
BRANCH   1   9
ATOM      7  C   UNL     1      -1.007  11.172  18.835  0.00  0.00    +0.000 C 
ATOM      8  O   UNL     1      -0.784  11.989  19.721  0.00  0.00    +0.000 OA
ATOM      9  N   UNL     1      -0.134  10.181  18.452  0.00  0.00    +0.000 N 
ATOM     10  H   UNL     1      -0.517   9.557  17.743  0.00  0.00    +0.000 HD
BRANCH   7  16
ATOM     11  C   UNL     1      -3.306  10.174  14.630  0.00  0.00    +0.000 C 
ATOM     12  C   UNL     1      -3.382  10.697  16.037  0.00  0.00    +0.000 A 
ATOM     13  C   UNL     1      -4.588  11.183  16.538  0.00  0.00    +0.000 A 
ATOM     14  C   UNL     1      -4.626  11.680  17.836  0.00  0.00    +0.000 A 
ATOM     15  C   UNL     1      -3.465  11.685  18.605  0.00  0.00    +0.000 A 
ATOM     16  C   UNL     1      -2.300  11.181  18.043  0.00  0.00    +0.000 A 
ATOM     17  N   UNL     1      -2.235  10.680  16.766  0.00  0.00    +0.000 NA
ENDBRANCH   7  16
ENDBRANCH   1   9
BRANCH   4  18
ATOM     18  C   UNL     1       3.383   6.069  18.859  0.00  0.00    +0.000 C 
BRANCH  18  19
ATOM     19  C   UNL     1       2.443   4.951  19.273  0.00  0.00    +0.000 A 
ATOM     20  C   UNL     1       1.732   4.237  18.296  0.00  0.00    +0.000 A 
ATOM     21  C   UNL     1       0.905   3.169  18.651  0.00  0.00    +0.000 A 
ATOM     22  C   UNL     1       0.781   2.798  19.988  0.00  0.00    +0.000 A 
ATOM     23  C   UNL     1       1.485   3.495  20.969  0.00  0.00    +0.000 A 
ATOM     24  C   UNL     1       2.312   4.567  20.615  0.00  0.00    +0.000 A 
ENDBRANCH  18  19
ENDBRANCH   4  18
TORSDOF 4
ENDMDL
MODEL 5
REMARK VINA RESULT:      -7.9      1.498      1.995
REMARK  Name = 
REMARK  5 active torsions:
REMARK  status: ('A' for Active; 'I' for Inactive)
REMARK    1  A    between atoms: C_1  and  C_2
REMARK    2  A    between atoms: C_6  and  C_7
REMARK    3  A    between atoms: N_9  and  C_10
REMARK    4  A    between atoms: N_13  and  C_14
REMARK    5  A    between atoms: C_14  and  C_15
REMARK                            x       y       z     vdW  Elec       q    Type
REMARK                         _______ _______ _______ _____ _____    ______ ____
ROOT
ATOM      1  C   UNL     1       6.352   6.901  16.747  0.00  0.00    +0.000 C 
ATOM      2  C   UNL     1       4.923   6.835  17.288  0.00  0.00    +0.000 C 
ATOM      3  C   UNL     1       4.726   5.837  18.420  0.00  0.00    +0.000 C 
ATOM      4  N   UNL     1       5.215   4.501  18.031  0.00  0.00    +0.000 NA
ATOM      5  C   UNL     1       6.679   4.579  17.893  0.00  0.00    +0.000 C 
ATOM      6  C   UNL     1       7.112   5.567  16.800  0.00  0.00    +0.000 C 
ENDROOT
BRANCH   1   9
ATOM      7  C   UNL     1       8.047   8.182  18.180  0.00  0.00    +0.000 C 
ATOM      8  O   UNL     1       8.471   7.237  18.832  0.00  0.00    +0.000 OA
ATOM      9  N   UNL     1       7.090   8.083  17.197  0.00  0.00    +0.000 N 
ATOM     10  H   UNL     1       6.815   8.984  16.808  0.00  0.00    +0.000 HD
BRANCH   7  16
ATOM     11  C   UNL     1       7.747  12.923  16.996  0.00  0.00    +0.000 C 
ATOM     12  C   UNL     1       8.400  11.848  17.819  0.00  0.00    +0.000 A 
ATOM     13  C   UNL     1       9.438  12.170  18.692  0.00  0.00    +0.000 A 
ATOM     14  C   UNL     1      10.039  11.153  19.426  0.00  0.00    +0.000 A 
ATOM     15  C   UNL     1       9.598   9.841  19.274  0.00  0.00    +0.000 A 
ATOM     16  C   UNL     1       8.558   9.595  18.388  0.00  0.00    +0.000 A 
ATOM     17  N   UNL     1       7.943  10.579  17.655  0.00  0.00    +0.000 NA
ENDBRANCH   7  16
ENDBRANCH   1   9
BRANCH   4  18
ATOM     18  C   UNL     1       4.812   3.530  19.074  0.00  0.00    +0.000 C 
BRANCH  18  19
ATOM     19  C   UNL     1       3.320   3.403  19.323  0.00  0.00    +0.000 A 
ATOM     20  C   UNL     1       2.486   2.881  18.322  0.00  0.00    +0.000 A 
ATOM     21  C   UNL     1       1.119   2.705  18.550  0.00  0.00    +0.000 A 
ATOM     22  C   UNL     1       0.569   3.043  19.784  0.00  0.00    +0.000 A 
ATOM     23  C   UNL     1       1.387   3.557  20.790  0.00  0.00    +0.000 A 
ATOM     24  C   UNL     1       2.755   3.737  20.562  0.00  0.00    +0.000 A 
ENDBRANCH  18  19
ENDBRANCH   4  18
TORSDOF 4
ENDMDL
MODEL 6
REMARK VINA RESULT:      -7.9      5.993      8.709
REMARK  Name = 
REMARK  5 active torsions:
REMARK  status: ('A' for Active; 'I' for Inactive)
REMARK    1  A    between atoms: C_1  and  C_2
REMARK    2  A    between atoms: C_6  and  C_7
REMARK    3  A    between atoms: N_9  and  C_10
REMARK    4  A    between atoms: N_13  and  C_14
REMARK    5  A    between atoms: C_14  and  C_15
REMARK                            x       y       z     vdW  Elec       q    Type
REMARK                         _______ _______ _______ _____ _____    ______ ____
ROOT
ATOM      1  C   UNL     1       1.223   9.821  18.885  0.00  0.00    +0.000 C 
ATOM      2  C   UNL     1       2.268   9.504  17.815  0.00  0.00    +0.000 C 
ATOM      3  C   UNL     1       2.566   8.021  17.649  0.00  0.00    +0.000 C 
ATOM      4  N   UNL     1       2.921   7.410  18.943  0.00  0.00    +0.000 NA
ATOM      5  C   UNL     1       1.719   7.426  19.793  0.00  0.00    +0.000 C 
ATOM      6  C   UNL     1       1.220   8.849  20.076  0.00  0.00    +0.000 C 
ENDROOT
BRANCH   1   9
ATOM      7  C   UNL     1      -1.080  10.945  18.886  0.00  0.00    +0.000 C 
ATOM      8  O   UNL     1      -0.992  11.520  19.964  0.00  0.00    +0.000 OA
ATOM      9  N   UNL     1      -0.087  10.170  18.333  0.00  0.00    +0.000 N 
ATOM     10  H   UNL     1      -0.364   9.720  17.461  0.00  0.00    +0.000 HD
BRANCH   7  16
ATOM     11  C   UNL     1      -3.196  10.147  14.544  0.00  0.00    +0.000 C 
ATOM     12  C   UNL     1      -3.318  10.655  15.953  0.00  0.00    +0.000 A 
ATOM     13  C   UNL     1      -4.517  11.210  16.394  0.00  0.00    +0.000 A 
ATOM     14  C   UNL     1      -4.598  11.693  17.696  0.00  0.00    +0.000 A 
ATOM     15  C   UNL     1      -3.484  11.615  18.528  0.00  0.00    +0.000 A 
ATOM     16  C   UNL     1      -2.323  11.046  18.023  0.00  0.00    +0.000 A 
ATOM     17  N   UNL     1      -2.217  10.558  16.744  0.00  0.00    +0.000 NA
ENDBRANCH   7  16
ENDBRANCH   1   9
BRANCH   4  18
ATOM     18  C   UNL     1       3.403   6.031  18.696  0.00  0.00    +0.000 C 
BRANCH  18  19
ATOM     19  C   UNL     1       2.578   4.918  19.316  0.00  0.00    +0.000 A 
ATOM     20  C   UNL     1       2.677   4.656  20.692  0.00  0.00    +0.000 A 
ATOM     21  C   UNL     1       1.886   3.673  21.291  0.00  0.00    +0.000 A 
ATOM     22  C   UNL     1       0.983   2.942  20.524  0.00  0.00    +0.000 A 
ATOM     23  C   UNL     1       0.870   3.194  19.157  0.00  0.00    +0.000 A 
ATOM     24  C   UNL     1       1.663   4.177  18.555  0.00  0.00    +0.000 A 
ENDBRANCH  18  19
ENDBRANCH   4  18
TORSDOF 4
ENDMDL
MODEL 7
REMARK VINA RESULT:      -7.9      5.802      8.844
REMARK  Name = 
REMARK  5 active torsions:
REMARK  status: ('A' for Active; 'I' for Inactive)
REMARK    1  A    between atoms: C_1  and  C_2
REMARK    2  A    between atoms: C_6  and  C_7
REMARK    3  A    between atoms: N_9  and  C_10
REMARK    4  A    between atoms: N_13  and  C_14
REMARK    5  A    between atoms: C_14  and  C_15
REMARK                            x       y       z     vdW  Elec       q    Type
REMARK                         _______ _______ _______ _____ _____    ______ ____
ROOT
ATOM      1  C   UNL     1       1.397   9.501  18.904  0.00  0.00    +0.000 C 
ATOM      2  C   UNL     1       2.360   8.947  17.853  0.00  0.00    +0.000 C 
ATOM      3  C   UNL     1       2.517   7.434  17.882  0.00  0.00    +0.000 C 
ATOM      4  N   UNL     1       2.875   6.970  19.234  0.00  0.00    +0.000 NA
ATOM      5  C   UNL     1       1.720   7.212  20.115  0.00  0.00    +0.000 C 
ATOM      6  C   UNL     1       1.363   8.701  20.216  0.00  0.00    +0.000 C 
ENDROOT
BRANCH   1   9
ATOM      7  C   UNL     1      -0.827  10.773  18.867  0.00  0.00    +0.000 C 
ATOM      8  O   UNL     1      -0.675  11.417  19.897  0.00  0.00    +0.000 OA
ATOM      9  N   UNL     1       0.098   9.895  18.354  0.00  0.00    +0.000 N 
ATOM     10  H   UNL     1      -0.229   9.401  17.524  0.00  0.00    +0.000 HD
BRANCH   7  16
ATOM     11  C   UNL     1      -3.024  10.012  14.559  0.00  0.00    +0.000 C 
ATOM     12  C   UNL     1      -3.116  10.519  15.970  0.00  0.00    +0.000 A 
ATOM     13  C   UNL     1      -4.301  11.090  16.431  0.00  0.00    +0.000 A 
ATOM     14  C   UNL     1      -4.354  11.571  17.735  0.00  0.00    +0.000 A 
ATOM     15  C   UNL     1      -3.228  11.476  18.549  0.00  0.00    +0.000 A 
ATOM     16  C   UNL     1      -2.083  10.892  18.024  0.00  0.00    +0.000 A 
ATOM     17  N   UNL     1      -2.004  10.405  16.743  0.00  0.00    +0.000 NA
ENDBRANCH   7  16
ENDBRANCH   1   9
BRANCH   4  18
ATOM     18  C   UNL     1       3.222   5.532  19.163  0.00  0.00    +0.000 C 
BRANCH  18  19
ATOM     19  C   UNL     1       4.471   5.187  18.373  0.00  0.00    +0.000 A 
ATOM     20  C   UNL     1       5.738   5.454  18.916  0.00  0.00    +0.000 A 
ATOM     21  C   UNL     1       6.900   5.094  18.230  0.00  0.00    +0.000 A 
ATOM     22  C   UNL     1       6.811   4.459  16.994  0.00  0.00    +0.000 A 
ATOM     23  C   UNL     1       5.559   4.183  16.444  0.00  0.00    +0.000 A 
ATOM     24  C   UNL     1       4.395   4.544  17.130  0.00  0.00    +0.000 A 
ENDBRANCH  18  19
ENDBRANCH   4  18
TORSDOF 4
ENDMDL
MODEL 8
REMARK VINA RESULT:      -7.9      5.755      8.818
REMARK  Name = 
REMARK  5 active torsions:
REMARK  status: ('A' for Active; 'I' for Inactive)
REMARK    1  A    between atoms: C_1  and  C_2
REMARK    2  A    between atoms: C_6  and  C_7
REMARK    3  A    between atoms: N_9  and  C_10
REMARK    4  A    between atoms: N_13  and  C_14
REMARK    5  A    between atoms: C_14  and  C_15
REMARK                            x       y       z     vdW  Elec       q    Type
REMARK                         _______ _______ _______ _____ _____    ______ ____
ROOT
ATOM      1  C   UNL     1       1.449   9.432  18.920  0.00  0.00    +0.000 C 
ATOM      2  C   UNL     1       2.391   8.871  17.854  0.00  0.00    +0.000 C 
ATOM      3  C   UNL     1       2.535   7.356  17.878  0.00  0.00    +0.000 C 
ATOM      4  N   UNL     1       2.909   6.888  19.225  0.00  0.00    +0.000 NA
ATOM      5  C   UNL     1       1.769   7.138  20.123  0.00  0.00    +0.000 C 
ATOM      6  C   UNL     1       1.426   8.630  20.231  0.00  0.00    +0.000 C 
ENDROOT
BRANCH   1   9
ATOM      7  C   UNL     1      -0.638  10.910  18.748  0.00  0.00    +0.000 C 
ATOM      8  O   UNL     1      -0.325  11.748  19.584  0.00  0.00    +0.000 OA
ATOM      9  N   UNL     1       0.146   9.838  18.389  0.00  0.00    +0.000 N 
ATOM     10  H   UNL     1      -0.307   9.210  17.725  0.00  0.00    +0.000 HD
BRANCH   7  16
ATOM     11  C   UNL     1      -3.101  10.048  14.607  0.00  0.00    +0.000 C 
ATOM     12  C   UNL     1      -3.113  10.558  16.020  0.00  0.00    +0.000 A 
ATOM     13  C   UNL     1      -4.283  11.088  16.561  0.00  0.00    +0.000 A 
ATOM     14  C   UNL     1      -4.262  11.573  17.865  0.00  0.00    +0.000 A 
ATOM     15  C   UNL     1      -3.079  11.524  18.598  0.00  0.00    +0.000 A 
ATOM     16  C   UNL     1      -1.953  10.979  17.995  0.00  0.00    +0.000 A 
ATOM     17  N   UNL     1      -1.946  10.489  16.713  0.00  0.00    +0.000 NA
ENDBRANCH   7  16
ENDBRANCH   1   9
BRANCH   4  18
ATOM     18  C   UNL     1       3.242   5.446  19.146  0.00  0.00    +0.000 C 
BRANCH  18  19
ATOM     19  C   UNL     1       4.544   5.102  18.449  0.00  0.00    +0.000 A 
ATOM     20  C   UNL     1       4.522   4.539  17.162  0.00  0.00    +0.000 A 
ATOM     21  C   UNL     1       5.711   4.265  16.481  0.00  0.00    +0.000 A 
ATOM     22  C   UNL     1       6.937   4.555  17.075  0.00  0.00    +0.000 A 
ATOM     23  C   UNL     1       6.974   5.118  18.349  0.00  0.00    +0.000 A 
ATOM     24  C   UNL     1       5.785   5.391  19.034  0.00  0.00    +0.000 A 
ENDBRANCH  18  19
ENDBRANCH   4  18
TORSDOF 4
ENDMDL
MODEL 9
REMARK VINA RESULT:      -7.8      4.478      7.119
REMARK  Name = 
REMARK  5 active torsions:
REMARK  status: ('A' for Active; 'I' for Inactive)
REMARK    1  A    between atoms: C_1  and  C_2
REMARK    2  A    between atoms: C_6  and  C_7
REMARK    3  A    between atoms: N_9  and  C_10
REMARK    4  A    between atoms: N_13  and  C_14
REMARK    5  A    between atoms: C_14  and  C_15
REMARK                            x       y       z     vdW  Elec       q    Type
REMARK                         _______ _______ _______ _____ _____    ______ ____
ROOT
ATOM      1  C   UNL     1       6.040   5.312  16.372  0.00  0.00    +0.000 C 
ATOM      2  C   UNL     1       5.765   4.458  17.609  0.00  0.00    +0.000 C 
ATOM      3  C   UNL     1       4.381   4.653  18.212  0.00  0.00    +0.000 C 
ATOM      4  N   UNL     1       4.122   6.080  18.477  0.00  0.00    +0.000 NA
ATOM      5  C   UNL     1       4.033   6.771  17.179  0.00  0.00    +0.000 C 
ATOM      6  C   UNL     1       5.337   6.679  16.376  0.00  0.00    +0.000 C 
ENDROOT
BRANCH   1   9
ATOM      7  C   UNL     1       6.762   4.680  13.995  0.00  0.00    +0.000 C 
ATOM      8  O   UNL     1       7.704   5.455  13.889  0.00  0.00    +0.000 OA
ATOM      9  N   UNL     1       5.977   4.557  15.118  0.00  0.00    +0.000 N 
ATOM     10  H   UNL     1       5.200   3.908  15.000  0.00  0.00    +0.000 HD
BRANCH   7  16
ATOM     11  C   UNL     1       3.241   3.010  11.032  0.00  0.00    +0.000 C 
ATOM     12  C   UNL     1       4.680   2.961  11.465  0.00  0.00    +0.000 A 
ATOM     13  C   UNL     1       5.560   2.065  10.862  0.00  0.00    +0.000 A 
ATOM     14  C   UNL     1       6.881   2.025  11.296  0.00  0.00    +0.000 A 
ATOM     15  C   UNL     1       7.295   2.873  12.320  0.00  0.00    +0.000 A 
ATOM     16  C   UNL     1       6.364   3.742  12.872  0.00  0.00    +0.000 A 
ATOM     17  N   UNL     1       5.056   3.806  12.460  0.00  0.00    +0.000 NA
ENDBRANCH   7  16
ENDBRANCH   1   9
BRANCH   4  18
ATOM     18  C   UNL     1       2.864   6.195  19.250  0.00  0.00    +0.000 C 
BRANCH  18  19
ATOM     19  C   UNL     1       2.293   4.896  19.787  0.00  0.00    +0.000 A 
ATOM     20  C   UNL     1       2.552   4.513  21.113  0.00  0.00    +0.000 A 
ATOM     21  C   UNL     1       1.992   3.349  21.643  0.00  0.00    +0.000 A 
ATOM     22  C   UNL     1       1.160   2.555  20.858  0.00  0.00    +0.000 A 
ATOM     23  C   UNL     1       0.889   2.926  19.541  0.00  0.00    +0.000 A 
ATOM     24  C   UNL     1       1.452   4.090  19.007  0.00  0.00    +0.000 A 
ENDBRANCH  18  19
ENDBRANCH   4  18
TORSDOF 4
ENDMDL
