MODEL 1
REMARK VINA RESULT:      -7.2      0.000      0.000
REMARK  Name = 
REMARK  8 active torsions:
REMARK  status: ('A' for Active; 'I' for Inactive)
REMARK    1  A    between atoms: C_1  and  C_2
REMARK    2  A    between atoms: C_2  and  N_3
REMARK    3  A    between atoms: C_5  and  C_6
REMARK    4  A    between atoms: C_6  and  O_8
REMARK    5  A    between atoms: C_15  and  N_16
REMARK    6  A    between atoms: N_19  and  C_20
REMARK    7  A    between atoms: C_20  and  C_21
REMARK    8  A    between atoms: C_21  and  N_22
REMARK                            x       y       z     vdW  Elec       q    Type
REMARK                         _______ _______ _______ _____ _____    ______ ____
ROOT
ATOM      1  N   UNL     1       3.873   5.509  17.999  0.00  0.00    +0.000 N 
ATOM      2  C   UNL     1       4.279   4.220  18.318  0.00  0.00    +0.000 A 
ATOM      3  C   UNL     1       3.849   3.480  19.354  0.00  0.00    +0.000 A 
ATOM      4  C   UNL     1       2.854   4.101  20.248  0.00  0.00    +0.000 A 
ATOM      5  O   UNL     1       2.398   3.469  21.196  0.00  0.00    +0.000 OA
ATOM      6  C   UNL     1       2.455   5.499  19.988  0.00  0.00    +0.000 A 
ATOM      7  C   UNL     1       1.598   6.125  20.894  0.00  0.00    +0.000 A 
ATOM      8  C   UNL     1       1.274   7.460  20.708  0.00  0.00    +0.000 A 
ATOM      9  F   UNL     1       0.518   8.040  21.653  0.00  0.00    +0.000 F 
ATOM     10  C   UNL     1       1.745   8.194  19.607  0.00  0.00    +0.000 A 
ATOM     11  C   UNL     1       2.552   7.495  18.685  0.00  0.00    +0.000 A 
ATOM     12  C   UNL     1       2.971   6.169  18.867  0.00  0.00    +0.000 A 
ENDROOT
BRANCH  10  13
ATOM     13  N   UNL     1       1.429   9.519  19.368  0.00  0.00    +0.000 N 
ATOM     14  C   UNL     1       0.546  10.283  20.267  0.00  0.00    +0.000 C 
ATOM     15  C   UNL     1       1.116  11.707  20.445  0.00  0.00    +0.000 C 
ATOM     16  N   UNL     1       1.325  12.447  19.176  0.00  0.00    +0.000 NA
ATOM     17  C   UNL     1       2.190  11.605  18.305  0.00  0.00    +0.000 C 
ATOM     18  C   UNL     1       1.686  10.158  18.069  0.00  0.00    +0.000 C 
BRANCH  16  19
ATOM     19  C   UNL     1       0.056  12.755  18.484  0.00  0.00    +0.000 C 
BRANCH  19  20
ATOM     20  C   UNL     1      -0.973  13.481  19.371  0.00  0.00    +0.000 C 
BRANCH  20  21
ATOM     21  N   UNL     1      -2.296  12.862  19.271  0.00  0.00    +0.000 NA
ATOM     22  H   UNL     1      -3.011  13.580  19.354  0.00  0.00    +0.000 HD
ATOM     23  H   UNL     1      -2.426  12.235  20.064  0.00  0.00    +0.000 HD
ENDBRANCH  20  21
ENDBRANCH  19  20
ENDBRANCH  16  19
ENDBRANCH  10  13
BRANCH   1  25
ATOM     24  C   UNL     1       5.263   5.330  15.957  0.00  0.00    +0.000 C 
ATOM     25  C   UNL     1       4.551   6.266  16.927  0.00  0.00    +0.000 C 
ENDBRANCH   1  25
BRANCH   3  26
ATOM     26  C   UNL     1       4.403   2.132  19.575  0.00  0.00    +0.000 C 
ATOM     27  O   UNL     1       5.096   1.840  20.539  0.00  0.00    +0.000 OA
BRANCH  26  28
ATOM     28  O   UNL     1       4.067   1.227  18.630  0.00  0.00    +0.000 OA
ATOM     29  H   UNL     1       3.122   0.933  18.670  0.00  0.00    +0.000 HD
ENDBRANCH  26  28
ENDBRANCH   3  26
TORSDOF 7
ENDMDL
MODEL 2
REMARK VINA RESULT:      -7.2      2.480      3.460
REMARK  Name = 
REMARK  8 active torsions:
REMARK  status: ('A' for Active; 'I' for Inactive)
REMARK    1  A    between atoms: C_1  and  C_2
REMARK    2  A    between atoms: C_2  and  N_3
REMARK    3  A    between atoms: C_5  and  C_6
REMARK    4  A    between atoms: C_6  and  O_8
REMARK    5  A    between atoms: C_15  and  N_16
REMARK    6  A    between atoms: N_19  and  C_20
REMARK    7  A    between atoms: C_20  and  C_21
REMARK    8  A    between atoms: C_21  and  N_22
REMARK                            x       y       z     vdW  Elec       q    Type
REMARK                         _______ _______ _______ _____ _____    ______ ____
ROOT
ATOM      1  N   UNL     1       2.748   5.142  20.028  0.00  0.00    +0.000 N 
ATOM      2  C   UNL     1       3.424   4.230  19.228  0.00  0.00    +0.000 A 
ATOM      3  C   UNL     1       3.987   4.477  18.034  0.00  0.00    +0.000 A 
ATOM      4  C   UNL     1       3.870   5.852  17.515  0.00  0.00    +0.000 A 
ATOM      5  O   UNL     1       4.387   6.153  16.444  0.00  0.00    +0.000 OA
ATOM      6  C   UNL     1       3.091   6.832  18.299  0.00  0.00    +0.000 A 
ATOM      7  C   UNL     1       2.884   8.102  17.759  0.00  0.00    +0.000 A 
ATOM      8  C   UNL     1       2.092   9.009  18.445  0.00  0.00    +0.000 A 
ATOM      9  F   UNL     1       1.853  10.185  17.843  0.00  0.00    +0.000 F 
ATOM     10  C   UNL     1       1.526   8.708  19.694  0.00  0.00    +0.000 A 
ATOM     11  C   UNL     1       1.822   7.436  20.226  0.00  0.00    +0.000 A 
ATOM     12  C   UNL     1       2.552   6.456  19.540  0.00  0.00    +0.000 A 
ENDROOT
BRANCH  10  13
ATOM     13  N   UNL     1       0.751   9.589  20.425  0.00  0.00    +0.000 N 
ATOM     14  C   UNL     1      -0.191   9.124  21.459  0.00  0.00    +0.000 C 
ATOM     15  C   UNL     1      -0.114  10.070  22.677  0.00  0.00    +0.000 C 
ATOM     16  N   UNL     1      -0.360  11.499  22.359  0.00  0.00    +0.000 NA
ATOM     17  C   UNL     1       0.597  11.890  21.288  0.00  0.00    +0.000 C 
ATOM     18  C   UNL     1       0.580  10.993  20.024  0.00  0.00    +0.000 C 
BRANCH  16  19
ATOM     19  C   UNL     1      -1.746  11.751  21.917  0.00  0.00    +0.000 C 
BRANCH  19  20
ATOM     20  C   UNL     1      -2.525  12.712  22.836  0.00  0.00    +0.000 C 
BRANCH  20  21
ATOM     21  N   UNL     1      -3.440  11.985  23.717  0.00  0.00    +0.000 NA
ATOM     22  H   UNL     1      -3.340  10.986  23.558  0.00  0.00    +0.000 HD
ATOM     23  H   UNL     1      -4.398  12.222  23.462  0.00  0.00    +0.000 HD
ENDBRANCH  20  21
ENDBRANCH  19  20
ENDBRANCH  16  19
ENDBRANCH  10  13
BRANCH   1  25
ATOM     24  C   UNL     1       1.281   3.392  20.988  0.00  0.00    +0.000 C 
ATOM     25  C   UNL     1       2.035   4.693  21.242  0.00  0.00    +0.000 C 
ENDBRANCH   1  25
BRANCH   3  26
ATOM     26  C   UNL     1       4.646   3.388  17.291  0.00  0.00    +0.000 C 
ATOM     27  O   UNL     1       4.156   2.276  17.153  0.00  0.00    +0.000 OA
BRANCH  26  28
ATOM     28  O   UNL     1       5.839   3.720  16.752  0.00  0.00    +0.000 OA
ATOM     29  H   UNL     1       6.018   4.693  16.735  0.00  0.00    +0.000 HD
ENDBRANCH  26  28
ENDBRANCH   3  26
TORSDOF 7
ENDMDL
MODEL 3
REMARK VINA RESULT:      -7.1      2.386      3.426
REMARK  Name = 
REMARK  8 active torsions:
REMARK  status: ('A' for Active; 'I' for Inactive)
REMARK    1  A    between atoms: C_1  and  C_2
REMARK    2  A    between atoms: C_2  and  N_3
REMARK    3  A    between atoms: C_5  and  C_6
REMARK    4  A    between atoms: C_6  and  O_8
REMARK    5  A    between atoms: C_15  and  N_16
REMARK    6  A    between atoms: N_19  and  C_20
REMARK    7  A    between atoms: C_20  and  C_21
REMARK    8  A    between atoms: C_21  and  N_22
REMARK                            x       y       z     vdW  Elec       q    Type
REMARK                         _______ _______ _______ _____ _____    ______ ____
ROOT
ATOM      1  N   UNL     1       2.614   5.465  19.920  0.00  0.00    +0.000 N 
ATOM      2  C   UNL     1       3.348   4.519  19.217  0.00  0.00    +0.000 A 
ATOM      3  C   UNL     1       4.015   4.716  18.069  0.00  0.00    +0.000 A 
ATOM      4  C   UNL     1       3.957   6.072  17.490  0.00  0.00    +0.000 A 
ATOM      5  O   UNL     1       4.569   6.328  16.457  0.00  0.00    +0.000 OA
ATOM      6  C   UNL     1       3.122   7.086  18.166  0.00  0.00    +0.000 A 
ATOM      7  C   UNL     1       2.976   8.336  17.562  0.00  0.00    +0.000 A 
ATOM      8  C   UNL     1       2.136   9.274  18.142  0.00  0.00    +0.000 A 
ATOM      9  F   UNL     1       1.962  10.427  17.478  0.00  0.00    +0.000 F 
ATOM     10  C   UNL     1       1.460   9.023  19.347  0.00  0.00    +0.000 A 
ATOM     11  C   UNL     1       1.696   7.770  19.950  0.00  0.00    +0.000 A 
ATOM     12  C   UNL     1       2.474   6.760  19.367  0.00  0.00    +0.000 A 
ENDROOT
BRANCH  10  13
ATOM     13  N   UNL     1       0.632   9.937  19.974  0.00  0.00    +0.000 N 
ATOM     14  C   UNL     1       1.028  10.620  21.217  0.00  0.00    +0.000 C 
ATOM     15  C   UNL     1       0.593  12.100  21.142  0.00  0.00    +0.000 C 
ATOM     16  N   UNL     1      -0.853  12.301  20.880  0.00  0.00    +0.000 NA
ATOM     17  C   UNL     1      -1.190  11.557  19.636  0.00  0.00    +0.000 C 
ATOM     18  C   UNL     1      -0.793  10.059  19.631  0.00  0.00    +0.000 C 
BRANCH  16  19
ATOM     19  C   UNL     1      -1.701  11.834  21.995  0.00  0.00    +0.000 C 
BRANCH  19  20
ATOM     20  C   UNL     1      -3.001  12.644  22.168  0.00  0.00    +0.000 C 
BRANCH  20  21
ATOM     21  N   UNL     1      -3.748  12.211  23.350  0.00  0.00    +0.000 NA
ATOM     22  H   UNL     1      -3.512  11.245  23.563  0.00  0.00    +0.000 HD
ATOM     23  H   UNL     1      -4.743  12.222  23.132  0.00  0.00    +0.000 HD
ENDBRANCH  20  21
ENDBRANCH  19  20
ENDBRANCH  16  19
ENDBRANCH  10  13
BRANCH   1  25
ATOM     24  C   UNL     1       1.838   3.558  21.298  0.00  0.00    +0.000 C 
ATOM     25  C   UNL     1       1.793   5.067  21.082  0.00  0.00    +0.000 C 
ENDBRANCH   1  25
BRANCH   3  26
ATOM     26  C   UNL     1       4.726   3.595  17.428  0.00  0.00    +0.000 C 
ATOM     27  O   UNL     1       4.226   2.493  17.254  0.00  0.00    +0.000 OA
BRANCH  26  28
ATOM     28  O   UNL     1       5.982   3.886  17.025  0.00  0.00    +0.000 OA
ATOM     29  H   UNL     1       6.058   4.735  16.520  0.00  0.00    +0.000 HD
ENDBRANCH  26  28
ENDBRANCH   3  26
TORSDOF 7
ENDMDL
MODEL 4
REMARK VINA RESULT:      -7.1      3.351      7.742
REMARK  Name = 
REMARK  8 active torsions:
REMARK  status: ('A' for Active; 'I' for Inactive)
REMARK    1  A    between atoms: C_1  and  C_2
REMARK    2  A    between atoms: C_2  and  N_3
REMARK    3  A    between atoms: C_5  and  C_6
REMARK    4  A    between atoms: C_6  and  O_8
REMARK    5  A    between atoms: C_15  and  N_16
REMARK    6  A    between atoms: N_19  and  C_20
REMARK    7  A    between atoms: C_20  and  C_21
REMARK    8  A    between atoms: C_21  and  N_22
REMARK                            x       y       z     vdW  Elec       q    Type
REMARK                         _______ _______ _______ _____ _____    ______ ____
ROOT
ATOM      1  N   UNL     1       1.294  10.319  19.298  0.00  0.00    +0.000 N 
ATOM      2  C   UNL     1       0.401  11.047  20.075  0.00  0.00    +0.000 A 
ATOM      3  C   UNL     1      -0.214  10.626  21.192  0.00  0.00    +0.000 A 
ATOM      4  C   UNL     1       0.080   9.251  21.636  0.00  0.00    +0.000 A 
ATOM      5  O   UNL     1      -0.426   8.814  22.665  0.00  0.00    +0.000 OA
ATOM      6  C   UNL     1       0.963   8.417  20.794  0.00  0.00    +0.000 A 
ATOM      7  C   UNL     1       1.155   7.082  21.152  0.00  0.00    +0.000 A 
ATOM      8  C   UNL     1       1.918   6.265  20.332  0.00  0.00    +0.000 A 
ATOM      9  F   UNL     1       2.001   4.969  20.673  0.00  0.00    +0.000 F 
ATOM     10  C   UNL     1       2.546   6.750  19.174  0.00  0.00    +0.000 A 
ATOM     11  C   UNL     1       2.375   8.122  18.895  0.00  0.00    +0.000 A 
ATOM     12  C   UNL     1       1.553   8.972  19.648  0.00  0.00    +0.000 A 
ENDROOT
BRANCH  10  13
ATOM     13  N   UNL     1       3.335   5.979  18.341  0.00  0.00    +0.000 N 
ATOM     14  C   UNL     1       4.645   6.448  17.855  0.00  0.00    +0.000 C 
ATOM     15  C   UNL     1       5.649   5.276  17.895  0.00  0.00    +0.000 C 
ATOM     16  N   UNL     1       5.219   4.074  17.138  0.00  0.00    +0.000 NA
ATOM     17  C   UNL     1       3.879   3.678  17.653  0.00  0.00    +0.000 C 
ATOM     18  C   UNL     1       2.807   4.798  17.642  0.00  0.00    +0.000 C 
BRANCH  16  19
ATOM     19  C   UNL     1       5.152   4.314  15.683  0.00  0.00    +0.000 C 
BRANCH  19  20
ATOM     20  C   UNL     1       6.468   4.008  14.942  0.00  0.00    +0.000 C 
BRANCH  20  21
ATOM     21  N   UNL     1       7.301   5.205  14.816  0.00  0.00    +0.000 NA
ATOM     22  H   UNL     1       8.272   4.928  14.691  0.00  0.00    +0.000 HD
ATOM     23  H   UNL     1       7.262   5.726  15.691  0.00  0.00    +0.000 HD
ENDBRANCH  20  21
ENDBRANCH  19  20
ENDBRANCH  16  19
ENDBRANCH  10  13
BRANCH   1  25
ATOM     24  C   UNL     1       2.383  12.233  18.165  0.00  0.00    +0.000 C 
ATOM     25  C   UNL     1       1.767  10.848  18.003  0.00  0.00    +0.000 C 
ENDBRANCH   1  25
BRANCH   3  26
ATOM     26  C   UNL     1      -1.162  11.513  21.889  0.00  0.00    +0.000 C 
ATOM     27  O   UNL     1      -2.061  12.116  21.321  0.00  0.00    +0.000 OA
BRANCH  26  28
ATOM     28  O   UNL     1      -0.972  11.598  23.224  0.00  0.00    +0.000 OA
ATOM     29  H   UNL     1      -0.103  11.235  23.532  0.00  0.00    +0.000 HD
ENDBRANCH  26  28
ENDBRANCH   3  26
TORSDOF 7
ENDMDL
MODEL 5
REMARK VINA RESULT:      -7.0      2.107      3.172
REMARK  Name = 
REMARK  8 active torsions:
REMARK  status: ('A' for Active; 'I' for Inactive)
REMARK    1  A    between atoms: C_1  and  C_2
REMARK    2  A    between atoms: C_2  and  N_3
REMARK    3  A    between atoms: C_5  and  C_6
REMARK    4  A    between atoms: C_6  and  O_8
REMARK    5  A    between atoms: C_15  and  N_16
REMARK    6  A    between atoms: N_19  and  C_20
REMARK    7  A    between atoms: C_20  and  C_21
REMARK    8  A    between atoms: C_21  and  N_22
REMARK                            x       y       z     vdW  Elec       q    Type
REMARK                         _______ _______ _______ _____ _____    ______ ____
ROOT
ATOM      1  N   UNL     1       2.585   5.008  20.028  0.00  0.00    +0.000 N 
ATOM      2  C   UNL     1       3.222   4.021  19.286  0.00  0.00    +0.000 A 
ATOM      3  C   UNL     1       3.841   4.183  18.106  0.00  0.00    +0.000 A 
ATOM      4  C   UNL     1       3.838   5.542  17.534  0.00  0.00    +0.000 A 
ATOM      5  O   UNL     1       4.411   5.766  16.472  0.00  0.00    +0.000 OA
ATOM      6  C   UNL     1       3.103   6.603  18.253  0.00  0.00    +0.000 A 
ATOM      7  C   UNL     1       3.005   7.862  17.660  0.00  0.00    +0.000 A 
ATOM      8  C   UNL     1       2.255   8.848  18.284  0.00  0.00    +0.000 A 
ATOM      9  F   UNL     1       2.119  10.013  17.632  0.00  0.00    +0.000 F 
ATOM     10  C   UNL     1       1.627   8.633  19.522  0.00  0.00    +0.000 A 
ATOM     11  C   UNL     1       1.815   7.365  20.109  0.00  0.00    +0.000 A 
ATOM     12  C   UNL     1       2.497   6.312  19.486  0.00  0.00    +0.000 A 
ENDROOT
BRANCH  10  13
ATOM     13  N   UNL     1       0.890   9.593  20.192  0.00  0.00    +0.000 N 
ATOM     14  C   UNL     1      -0.129   9.233  21.193  0.00  0.00    +0.000 C 
ATOM     15  C   UNL     1      -0.032  10.208  22.387  0.00  0.00    +0.000 C 
ATOM     16  N   UNL     1      -0.153  11.640  22.019  0.00  0.00    +0.000 NA
ATOM     17  C   UNL     1       0.877  11.924  20.983  0.00  0.00    +0.000 C 
ATOM     18  C   UNL     1       0.846  10.993  19.744  0.00  0.00    +0.000 C 
BRANCH  16  19
ATOM     19  C   UNL     1      -1.495  11.983  21.507  0.00  0.00    +0.000 C 
BRANCH  19  20
ATOM     20  C   UNL     1      -1.713  13.494  21.301  0.00  0.00    +0.000 C 
BRANCH  20  21
ATOM     21  N   UNL     1      -2.053  13.801  19.910  0.00  0.00    +0.000 NA
ATOM     22  H   UNL     1      -3.023  13.551  19.737  0.00  0.00    +0.000 HD
ATOM     23  H   UNL     1      -1.490  13.212  19.298  0.00  0.00    +0.000 HD
ENDBRANCH  20  21
ENDBRANCH  19  20
ENDBRANCH  16  19
ENDBRANCH  10  13
BRANCH   1  25
ATOM     24  C   UNL     1       1.496   3.161  21.270  0.00  0.00    +0.000 C 
ATOM     25  C   UNL     1       1.801   4.655  21.229  0.00  0.00    +0.000 C 
ENDBRANCH   1  25
BRANCH   3  26
ATOM     26  C   UNL     1       4.447   3.024  17.427  0.00  0.00    +0.000 C 
ATOM     27  O   UNL     1       4.003   1.888  17.510  0.00  0.00    +0.000 OA
BRANCH  26  28
ATOM     28  O   UNL     1       5.535   3.317  16.682  0.00  0.00    +0.000 OA
ATOM     29  H   UNL     1       5.327   3.756  15.819  0.00  0.00    +0.000 HD
ENDBRANCH  26  28
ENDBRANCH   3  26
TORSDOF 7
ENDMDL
MODEL 6
REMARK VINA RESULT:      -7.0      0.890      1.297
REMARK  Name = 
REMARK  8 active torsions:
REMARK  status: ('A' for Active; 'I' for Inactive)
REMARK    1  A    between atoms: C_1  and  C_2
REMARK    2  A    between atoms: C_2  and  N_3
REMARK    3  A    between atoms: C_5  and  C_6
REMARK    4  A    between atoms: C_6  and  O_8
REMARK    5  A    between atoms: C_15  and  N_16
REMARK    6  A    between atoms: N_19  and  C_20
REMARK    7  A    between atoms: C_20  and  C_21
REMARK    8  A    between atoms: C_21  and  N_22
REMARK                            x       y       z     vdW  Elec       q    Type
REMARK                         _______ _______ _______ _____ _____    ______ ____
ROOT
ATOM      1  N   UNL     1       3.760   5.901  18.128  0.00  0.00    +0.000 N 
ATOM      2  C   UNL     1       4.212   4.610  18.373  0.00  0.00    +0.000 A 
ATOM      3  C   UNL     1       3.777   3.781  19.335  0.00  0.00    +0.000 A 
ATOM      4  C   UNL     1       2.719   4.292  20.227  0.00  0.00    +0.000 A 
ATOM      5  O   UNL     1       2.255   3.575  21.108  0.00  0.00    +0.000 OA
ATOM      6  C   UNL     1       2.267   5.687  20.048  0.00  0.00    +0.000 A 
ATOM      7  C   UNL     1       1.346   6.209  20.958  0.00  0.00    +0.000 A 
ATOM      8  C   UNL     1       0.969   7.538  20.852  0.00  0.00    +0.000 A 
ATOM      9  F   UNL     1       0.149   8.016  21.802  0.00  0.00    +0.000 F 
ATOM     10  C   UNL     1       1.448   8.369  19.825  0.00  0.00    +0.000 A 
ATOM     11  C   UNL     1       2.323   7.773  18.893  0.00  0.00    +0.000 A 
ATOM     12  C   UNL     1       2.795   6.457  19.000  0.00  0.00    +0.000 A 
ENDROOT
BRANCH  10  13
ATOM     13  N   UNL     1       1.081   9.692  19.666  0.00  0.00    +0.000 N 
ATOM     14  C   UNL     1       0.804  10.269  18.339  0.00  0.00    +0.000 C 
ATOM     15  C   UNL     1      -0.427  11.196  18.436  0.00  0.00    +0.000 C 
ATOM     16  N   UNL     1      -0.305  12.272  19.451  0.00  0.00    +0.000 NA
ATOM     17  C   UNL     1       0.010  11.624  20.753  0.00  0.00    +0.000 C 
ATOM     18  C   UNL     1       1.239  10.679  20.745  0.00  0.00    +0.000 C 
BRANCH  16  19
ATOM     19  C   UNL     1       0.741  13.257  19.109  0.00  0.00    +0.000 C 
BRANCH  19  20
ATOM     20  C   UNL     1       0.294  14.721  19.282  0.00  0.00    +0.000 C 
BRANCH  20  21
ATOM     21  N   UNL     1      -1.165  14.834  19.322  0.00  0.00    +0.000 NA
ATOM     22  H   UNL     1      -1.536  14.172  19.999  0.00  0.00    +0.000 HD
ATOM     23  H   UNL     1      -1.541  14.559  18.416  0.00  0.00    +0.000 HD
ENDBRANCH  20  21
ENDBRANCH  19  20
ENDBRANCH  16  19
ENDBRANCH  10  13
BRANCH   1  25
ATOM     24  C   UNL     1       5.209   5.927  16.119  0.00  0.00    +0.000 C 
ATOM     25  C   UNL     1       4.445   6.761  17.141  0.00  0.00    +0.000 C 
ENDBRANCH   1  25
BRANCH   3  26
ATOM     26  C   UNL     1       4.383   2.446  19.486  0.00  0.00    +0.000 C 
ATOM     27  O   UNL     1       5.087   2.130  20.434  0.00  0.00    +0.000 OA
BRANCH  26  28
ATOM     28  O   UNL     1       4.083   1.580  18.493  0.00  0.00    +0.000 OA
ATOM     29  H   UNL     1       4.480   0.680  18.608  0.00  0.00    +0.000 HD
ENDBRANCH  26  28
ENDBRANCH   3  26
TORSDOF 7
ENDMDL
MODEL 7
REMARK VINA RESULT:      -6.9      2.302      3.446
REMARK  Name = 
REMARK  8 active torsions:
REMARK  status: ('A' for Active; 'I' for Inactive)
REMARK    1  A    between atoms: C_1  and  C_2
REMARK    2  A    between atoms: C_2  and  N_3
REMARK    3  A    between atoms: C_5  and  C_6
REMARK    4  A    between atoms: C_6  and  O_8
REMARK    5  A    between atoms: C_15  and  N_16
REMARK    6  A    between atoms: N_19  and  C_20
REMARK    7  A    between atoms: C_20  and  C_21
REMARK    8  A    between atoms: C_21  and  N_22
REMARK                            x       y       z     vdW  Elec       q    Type
REMARK                         _______ _______ _______ _____ _____    ______ ____
ROOT
ATOM      1  N   UNL     1       2.588   5.077  20.028  0.00  0.00    +0.000 N 
ATOM      2  C   UNL     1       3.210   4.081  19.287  0.00  0.00    +0.000 A 
ATOM      3  C   UNL     1       3.825   4.232  18.103  0.00  0.00    +0.000 A 
ATOM      4  C   UNL     1       3.834   5.589  17.525  0.00  0.00    +0.000 A 
ATOM      5  O   UNL     1       4.405   5.802  16.460  0.00  0.00    +0.000 OA
ATOM      6  C   UNL     1       3.115   6.660  18.244  0.00  0.00    +0.000 A 
ATOM      7  C   UNL     1       3.027   7.918  17.647  0.00  0.00    +0.000 A 
ATOM      8  C   UNL     1       2.292   8.914  18.271  0.00  0.00    +0.000 A 
ATOM      9  F   UNL     1       2.166  10.079  17.616  0.00  0.00    +0.000 F 
ATOM     10  C   UNL     1       1.668   8.712  19.513  0.00  0.00    +0.000 A 
ATOM     11  C   UNL     1       1.844   7.444  20.104  0.00  0.00    +0.000 A 
ATOM     12  C   UNL     1       2.512   6.380  19.481  0.00  0.00    +0.000 A 
ENDROOT
BRANCH  10  13
ATOM     13  N   UNL     1       0.946   9.682  20.183  0.00  0.00    +0.000 N 
ATOM     14  C   UNL     1       0.343  10.828  19.480  0.00  0.00    +0.000 C 
ATOM     15  C   UNL     1      -1.063  11.095  20.061  0.00  0.00    +0.000 C 
ATOM     16  N   UNL     1      -1.088  11.318  21.528  0.00  0.00    +0.000 NA
ATOM     17  C   UNL     1      -0.433  10.146  22.169  0.00  0.00    +0.000 C 
ATOM     18  C   UNL     1       0.988   9.811  21.648  0.00  0.00    +0.000 C 
BRANCH  16  19
ATOM     19  C   UNL     1      -0.398  12.563  21.923  0.00  0.00    +0.000 C 
BRANCH  19  20
ATOM     20  C   UNL     1      -1.126  13.352  23.028  0.00  0.00    +0.000 C 
BRANCH  20  21
ATOM     21  N   UNL     1      -2.507  12.893  23.191  0.00  0.00    +0.000 NA
ATOM     22  H   UNL     1      -3.136  13.689  23.133  0.00  0.00    +0.000 HD
ATOM     23  H   UNL     1      -2.616  12.509  24.129  0.00  0.00    +0.000 HD
ENDBRANCH  20  21
ENDBRANCH  19  20
ENDBRANCH  16  19
ENDBRANCH  10  13
BRANCH   1  25
ATOM     24  C   UNL     1       1.795   3.233  21.479  0.00  0.00    +0.000 C 
ATOM     25  C   UNL     1       1.806   4.738  21.235  0.00  0.00    +0.000 C 
ENDBRANCH   1  25
BRANCH   3  26
ATOM     26  C   UNL     1       4.415   3.063  17.425  0.00  0.00    +0.000 C 
ATOM     27  O   UNL     1       3.948   1.935  17.501  0.00  0.00    +0.000 OA
BRANCH  26  28
ATOM     28  O   UNL     1       5.513   3.338  16.690  0.00  0.00    +0.000 OA
ATOM     29  H   UNL     1       6.346   3.416  17.220  0.00  0.00    +0.000 HD
ENDBRANCH  26  28
ENDBRANCH   3  26
TORSDOF 7
ENDMDL
MODEL 8
REMARK VINA RESULT:      -6.9      1.130      1.757
REMARK  Name = 
REMARK  8 active torsions:
REMARK  status: ('A' for Active; 'I' for Inactive)
REMARK    1  A    between atoms: C_1  and  C_2
REMARK    2  A    between atoms: C_2  and  N_3
REMARK    3  A    between atoms: C_5  and  C_6
REMARK    4  A    between atoms: C_6  and  O_8
REMARK    5  A    between atoms: C_15  and  N_16
REMARK    6  A    between atoms: N_19  and  C_20
REMARK    7  A    between atoms: C_20  and  C_21
REMARK    8  A    between atoms: C_21  and  N_22
REMARK                            x       y       z     vdW  Elec       q    Type
REMARK                         _______ _______ _______ _____ _____    ______ ____
ROOT
ATOM      1  N   UNL     1       4.353   5.225  18.476  0.00  0.00    +0.000 N 
ATOM      2  C   UNL     1       4.732   3.907  18.696  0.00  0.00    +0.000 A 
ATOM      3  C   UNL     1       4.109   3.018  19.486  0.00  0.00    +0.000 A 
ATOM      4  C   UNL     1       2.907   3.489  20.200  0.00  0.00    +0.000 A 
ATOM      5  O   UNL     1       2.273   2.719  20.915  0.00  0.00    +0.000 OA
ATOM      6  C   UNL     1       2.517   4.906  20.054  0.00  0.00    +0.000 A 
ATOM      7  C   UNL     1       1.447   5.382  20.812  0.00  0.00    +0.000 A 
ATOM      8  C   UNL     1       1.115   6.726  20.746  0.00  0.00    +0.000 A 
ATOM      9  F   UNL     1       0.135   7.152  21.559  0.00  0.00    +0.000 F 
ATOM     10  C   UNL     1       1.793   7.620  19.901  0.00  0.00    +0.000 A 
ATOM     11  C   UNL     1       2.822   7.073  19.106  0.00  0.00    +0.000 A 
ATOM     12  C   UNL     1       3.246   5.740  19.192  0.00  0.00    +0.000 A 
ENDROOT
BRANCH  10  13
ATOM     13  N   UNL     1       1.481   8.962  19.784  0.00  0.00    +0.000 N 
ATOM     14  C   UNL     1       1.608   9.682  18.504  0.00  0.00    +0.000 C 
ATOM     15  C   UNL     1       0.397  10.626  18.333  0.00  0.00    +0.000 C 
ATOM     16  N   UNL     1       0.206  11.585  19.449  0.00  0.00    +0.000 NA
ATOM     17  C   UNL     1       0.124  10.796  20.708  0.00  0.00    +0.000 C 
ATOM     18  C   UNL     1       1.306   9.826  20.961  0.00  0.00    +0.000 C 
BRANCH  16  19
ATOM     19  C   UNL     1       1.300  12.573  19.540  0.00  0.00    +0.000 C 
BRANCH  19  20
ATOM     20  C   UNL     1       1.497  13.402  18.257  0.00  0.00    +0.000 C 
BRANCH  20  21
ATOM     21  N   UNL     1       2.874  13.314  17.769  0.00  0.00    +0.000 NA
ATOM     22  H   UNL     1       3.516  13.471  18.542  0.00  0.00    +0.000 HD
ATOM     23  H   UNL     1       3.036  14.069  17.104  0.00  0.00    +0.000 HD
ENDBRANCH  20  21
ENDBRANCH  19  20
ENDBRANCH  16  19
ENDBRANCH  10  13
BRANCH   1  25
ATOM     24  C   UNL     1       5.034   5.958  16.210  0.00  0.00    +0.000 C 
ATOM     25  C   UNL     1       5.226   6.140  17.711  0.00  0.00    +0.000 C 
ENDBRANCH   1  25
BRANCH   3  26
ATOM     26  C   UNL     1       4.656   1.658  19.639  0.00  0.00    +0.000 C 
ATOM     27  O   UNL     1       5.337   1.310  20.592  0.00  0.00    +0.000 OA
BRANCH  26  28
ATOM     28  O   UNL     1       4.329   0.808  18.641  0.00  0.00    +0.000 OA
ATOM     29  H   UNL     1       3.568   1.112  18.085  0.00  0.00    +0.000 HD
ENDBRANCH  26  28
ENDBRANCH   3  26
TORSDOF 7
ENDMDL
MODEL 9
REMARK VINA RESULT:      -6.9      1.165      1.805
REMARK  Name = 
REMARK  8 active torsions:
REMARK  status: ('A' for Active; 'I' for Inactive)
REMARK    1  A    between atoms: C_1  and  C_2
REMARK    2  A    between atoms: C_2  and  N_3
REMARK    3  A    between atoms: C_5  and  C_6
REMARK    4  A    between atoms: C_6  and  O_8
REMARK    5  A    between atoms: C_15  and  N_16
REMARK    6  A    between atoms: N_19  and  C_20
REMARK    7  A    between atoms: C_20  and  C_21
REMARK    8  A    between atoms: C_21  and  N_22
REMARK                            x       y       z     vdW  Elec       q    Type
REMARK                         _______ _______ _______ _____ _____    ______ ____
ROOT
ATOM      1  N   UNL     1       3.593   6.010  18.055  0.00  0.00    +0.000 N 
ATOM      2  C   UNL     1       3.986   4.684  18.191  0.00  0.00    +0.000 A 
ATOM      3  C   UNL     1       3.534   3.807  19.102  0.00  0.00    +0.000 A 
ATOM      4  C   UNL     1       2.527   4.301  20.060  0.00  0.00    +0.000 A 
ATOM      5  O   UNL     1       2.051   3.543  20.899  0.00  0.00    +0.000 OA
ATOM      6  C   UNL     1       2.142   5.726  19.998  0.00  0.00    +0.000 A 
ATOM      7  C   UNL     1       1.273   6.222  20.971  0.00  0.00    +0.000 A 
ATOM      8  C   UNL     1       0.961   7.572  20.974  0.00  0.00    +0.000 A 
ATOM      9  F   UNL     1       0.192   8.017  21.981  0.00  0.00    +0.000 F 
ATOM     10  C   UNL     1       1.455   8.453  19.998  0.00  0.00    +0.000 A 
ATOM     11  C   UNL     1       2.273   7.887  18.999  0.00  0.00    +0.000 A 
ATOM     12  C   UNL     1       2.681   6.546  18.994  0.00  0.00    +0.000 A 
ENDROOT
BRANCH  10  13
ATOM     13  N   UNL     1       1.151   9.801  19.948  0.00  0.00    +0.000 N 
ATOM     14  C   UNL     1       1.225  10.569  18.692  0.00  0.00    +0.000 C 
ATOM     15  C   UNL     1       0.017  11.529  18.614  0.00  0.00    +0.000 C 
ATOM     16  N   UNL     1      -0.113  12.446  19.774  0.00  0.00    +0.000 NA
ATOM     17  C   UNL     1      -0.145  11.609  21.004  0.00  0.00    +0.000 C 
ATOM     18  C   UNL     1       1.038  10.620  21.165  0.00  0.00    +0.000 C 
BRANCH  16  19
ATOM     19  C   UNL     1       0.994  13.421  19.853  0.00  0.00    +0.000 C 
BRANCH  19  20
ATOM     20  C   UNL     1       0.787  14.509  20.924  0.00  0.00    +0.000 C 
BRANCH  20  21
ATOM     21  N   UNL     1       1.789  14.410  21.986  0.00  0.00    +0.000 NA
ATOM     22  H   UNL     1       1.555  15.061  22.732  0.00  0.00    +0.000 HD
ATOM     23  H   UNL     1       2.690  14.710  21.616  0.00  0.00    +0.000 HD
ENDBRANCH  20  21
ENDBRANCH  19  20
ENDBRANCH  16  19
ENDBRANCH  10  13
BRANCH   1  25
ATOM     24  C   UNL     1       5.131   6.115  16.115  0.00  0.00    +0.000 C 
ATOM     25  C   UNL     1       4.295   6.908  17.114  0.00  0.00    +0.000 C 
ENDBRANCH   1  25
BRANCH   3  26
ATOM     26  C   UNL     1       4.075   2.437  19.135  0.00  0.00    +0.000 C 
ATOM     27  O   UNL     1       3.625   1.519  18.465  0.00  0.00    +0.000 OA
BRANCH  26  28
ATOM     28  O   UNL     1       5.132   2.272  19.960  0.00  0.00    +0.000 OA
ATOM     29  H   UNL     1       5.184   1.375  20.376  0.00  0.00    +0.000 HD
ENDBRANCH  26  28
ENDBRANCH   3  26
TORSDOF 7
ENDMDL
