MODEL 1
REMARK VINA RESULT:      -8.1      0.000      0.000
REMARK  Name = 
REMARK  3 active torsions:
REMARK  status: ('A' for Active; 'I' for Inactive)
REMARK    1  A    between atoms: C_2  and  C_3
REMARK    2  A    between atoms: C_14  and  C_16
REMARK    3  A    between atoms: C_23  and  C_24
REMARK                            x       y       z     vdW  Elec       q    Type
REMARK                         _______ _______ _______ _____ _____    ______ ____
ROOT
ATOM      1  O   UNL     1       1.231   5.026  20.924  0.00  0.00    +0.000 OA
ATOM      2  C   UNL     1       1.914   5.519  20.023  0.00  0.00    +0.000 C 
ATOM      3  N   UNL     1       2.102   6.894  19.905  0.00  0.00    +0.000 N 
ATOM      4  C   UNL     1       2.912   7.622  18.912  0.00  0.00    +0.000 C 
ATOM      5  C   UNL     1       2.034   8.638  18.153  0.00  0.00    +0.000 C 
ATOM      6  N   UNL     1       1.360   9.529  19.107  0.00  0.00    +0.000 N 
ATOM      7  C   UNL     1       1.431  10.910  18.926  0.00  0.00    +0.000 C 
ATOM      8  O   UNL     1       1.909  11.400  17.903  0.00  0.00    +0.000 OA
ATOM      9  C   UNL     1       0.565   8.817  20.125  0.00  0.00    +0.000 C 
ATOM     10  C   UNL     1       1.425   7.782  20.865  0.00  0.00    +0.000 C 
ENDROOT
BRANCH   7  11
ATOM     11  C   UNL     1       0.917  11.782  19.980  0.00  0.00    +0.000 A 
ATOM     12  N   UNL     1       1.705  12.506  20.851  0.00  0.00    +0.000 NA
ATOM     13  N   UNL     1       0.920  13.167  21.689  0.00  0.00    +0.000 NA
ATOM     14  N   UNL     1      -0.340  12.904  21.323  0.00  0.00    +0.000 N 
ATOM     15  C   UNL     1      -0.407  12.076  20.248  0.00  0.00    +0.000 A 
ATOM     16  C   UNL     1      -1.700  11.649  19.678  0.00  0.00    +0.000 C 
ATOM     17  O   UNL     1      -2.753  12.471  20.214  0.00  0.00    +0.000 OA
ATOM     18  C   UNL     1      -2.699  12.590  21.649  0.00  0.00    +0.000 C 
ATOM     19  C   UNL     1      -1.482  13.434  22.032  0.00  0.00    +0.000 C 
BRANCH  18  20
ATOM     20  C   UNL     1      -3.979  13.220  22.169  0.00  0.00    +0.000 A 
ATOM     21  C   UNL     1      -3.932  14.113  23.254  0.00  0.00    +0.000 A 
ATOM     22  C   UNL     1      -5.100  14.707  23.737  0.00  0.00    +0.000 A 
ATOM     23  C   UNL     1      -6.324  14.420  23.138  0.00  0.00    +0.000 A 
ATOM     24 CL   UNL     1      -7.764  15.146  23.739  0.00  0.00    +0.000 Cl
ATOM     25  C   UNL     1      -6.388  13.548  22.055  0.00  0.00    +0.000 A 
ATOM     26  C   UNL     1      -5.221  12.953  21.570  0.00  0.00    +0.000 A 
ENDBRANCH  18  20
ENDBRANCH   7  11
BRANCH   2  27
ATOM     27  C   UNL     1       2.579   4.562  19.112  0.00  0.00    +0.000 A 
ATOM     28  C   UNL     1       3.700   3.870  19.598  0.00  0.00    +0.000 A 
ATOM     29  C   UNL     1       4.381   2.963  18.781  0.00  0.00    +0.000 A 
ATOM     30  C   UNL     1       3.953   2.749  17.471  0.00  0.00    +0.000 A 
ATOM     31  C   UNL     1       2.811   3.396  17.000  0.00  0.00    +0.000 A 
ATOM     32  C   UNL     1       2.109   4.266  17.835  0.00  0.00    +0.000 A 
ATOM     33  F   UNL     1       0.970   4.802  17.372  0.00  0.00    +0.000 F 
ENDBRANCH   2  27
TORSDOF 3
ENDMDL
MODEL 2
REMARK VINA RESULT:      -7.9      0.964      1.436
REMARK  Name = 
REMARK  3 active torsions:
REMARK  status: ('A' for Active; 'I' for Inactive)
REMARK    1  A    between atoms: C_2  and  C_3
REMARK    2  A    between atoms: C_14  and  C_16
REMARK    3  A    between atoms: C_23  and  C_24
REMARK                            x       y       z     vdW  Elec       q    Type
REMARK                         _______ _______ _______ _____ _____    ______ ____
ROOT
ATOM      1  O   UNL     1       1.450   5.266  20.848  0.00  0.00    +0.000 OA
ATOM      2  C   UNL     1       2.071   5.801  19.927  0.00  0.00    +0.000 C 
ATOM      3  N   UNL     1       2.189   7.185  19.822  0.00  0.00    +0.000 N 
ATOM      4  C   UNL     1       2.923   7.963  18.807  0.00  0.00    +0.000 C 
ATOM      5  C   UNL     1       1.968   8.945  18.098  0.00  0.00    +0.000 C 
ATOM      6  N   UNL     1       1.292   9.791  19.091  0.00  0.00    +0.000 N 
ATOM      7  C   UNL     1       1.291  11.176  18.927  0.00  0.00    +0.000 C 
ATOM      8  O   UNL     1       1.703  11.701  17.893  0.00  0.00    +0.000 OA
ATOM      9  C   UNL     1       0.574   9.030  20.130  0.00  0.00    +0.000 C 
ATOM     10  C   UNL     1       1.511   8.028  20.820  0.00  0.00    +0.000 C 
ENDROOT
BRANCH   7  11
ATOM     11  C   UNL     1       0.779  12.009  20.012  0.00  0.00    +0.000 A 
ATOM     12  N   UNL     1       1.567  12.634  20.959  0.00  0.00    +0.000 NA
ATOM     13  N   UNL     1       0.783  13.286  21.805  0.00  0.00    +0.000 NA
ATOM     14  N   UNL     1      -0.472  13.116  21.374  0.00  0.00    +0.000 N 
ATOM     15  C   UNL     1      -0.537  12.360  20.247  0.00  0.00    +0.000 A 
ATOM     16  C   UNL     1      -1.826  12.042  19.600  0.00  0.00    +0.000 C 
ATOM     17  O   UNL     1      -2.855  12.888  20.145  0.00  0.00    +0.000 OA
ATOM     18  C   UNL     1      -2.857  12.916  21.586  0.00  0.00    +0.000 C 
ATOM     19  C   UNL     1      -1.614  13.666  22.069  0.00  0.00    +0.000 C 
BRANCH  18  20
ATOM     20  C   UNL     1      -4.122  13.583  22.093  0.00  0.00    +0.000 A 
ATOM     21  C   UNL     1      -5.313  12.844  22.198  0.00  0.00    +0.000 A 
ATOM     22  C   UNL     1      -6.483  13.444  22.672  0.00  0.00    +0.000 A 
ATOM     23  C   UNL     1      -6.472  14.783  23.051  0.00  0.00    +0.000 A 
ATOM     24 CL   UNL     1      -7.914  15.523  23.627  0.00  0.00    +0.000 Cl
ATOM     25  C   UNL     1      -5.299  15.528  22.967  0.00  0.00    +0.000 A 
ATOM     26  C   UNL     1      -4.128  14.931  22.493  0.00  0.00    +0.000 A 
ENDBRANCH  18  20
ENDBRANCH   7  11
BRANCH   2  27
ATOM     27  C   UNL     1       2.743   4.889  18.977  0.00  0.00    +0.000 A 
ATOM     28  C   UNL     1       1.947   4.235  18.024  0.00  0.00    +0.000 A 
ATOM     29  C   UNL     1       2.521   3.348  17.109  0.00  0.00    +0.000 A 
ATOM     30  C   UNL     1       3.894   3.104  17.145  0.00  0.00    +0.000 A 
ATOM     31  C   UNL     1       4.697   3.788  18.056  0.00  0.00    +0.000 A 
ATOM     32  C   UNL     1       4.124   4.706  18.938  0.00  0.00    +0.000 A 
ATOM     33  F   UNL     1       4.941   5.403  19.740  0.00  0.00    +0.000 F 
ENDBRANCH   2  27
TORSDOF 3
ENDMDL
MODEL 3
REMARK VINA RESULT:      -7.7      6.746     10.376
REMARK  Name = 
REMARK  3 active torsions:
REMARK  status: ('A' for Active; 'I' for Inactive)
REMARK    1  A    between atoms: C_2  and  C_3
REMARK    2  A    between atoms: C_14  and  C_16
REMARK    3  A    between atoms: C_23  and  C_24
REMARK                            x       y       z     vdW  Elec       q    Type
REMARK                         _______ _______ _______ _____ _____    ______ ____
ROOT
ATOM      1  O   UNL     1      -0.191  11.217  20.572  0.00  0.00    +0.000 OA
ATOM      2  C   UNL     1      -0.625  11.950  19.681  0.00  0.00    +0.000 C 
ATOM      3  N   UNL     1       0.123  13.002  19.157  0.00  0.00    +0.000 N 
ATOM      4  C   UNL     1      -0.245  13.933  18.075  0.00  0.00    +0.000 C 
ATOM      5  C   UNL     1      -0.173  15.388  18.579  0.00  0.00    +0.000 C 
ATOM      6  N   UNL     1       1.157  15.659  19.141  0.00  0.00    +0.000 N 
ATOM      7  C   UNL     1       1.864  16.785  18.721  0.00  0.00    +0.000 C 
ATOM      8  O   UNL     1       1.342  17.644  18.010  0.00  0.00    +0.000 OA
ATOM      9  C   UNL     1       1.553  14.722  20.209  0.00  0.00    +0.000 C 
ATOM     10  C   UNL     1       1.456  13.268  19.723  0.00  0.00    +0.000 C 
ENDROOT
BRANCH   7  11
ATOM     11  C   UNL     1       3.253  16.939  19.147  0.00  0.00    +0.000 A 
ATOM     12  N   UNL     1       3.695  17.882  20.053  0.00  0.00    +0.000 NA
ATOM     13  N   UNL     1       5.007  17.760  20.192  0.00  0.00    +0.000 NA
ATOM     14  N   UNL     1       5.380  16.728  19.426  0.00  0.00    +0.000 N 
ATOM     15  C   UNL     1       4.332  16.157  18.778  0.00  0.00    +0.000 A 
ATOM     16  C   UNL     1       4.516  15.004  17.874  0.00  0.00    +0.000 C 
ATOM     17  O   UNL     1       5.830  14.450  18.066  0.00  0.00    +0.000 OA
ATOM     18  C   UNL     1       6.870  15.448  18.043  0.00  0.00    +0.000 C 
ATOM     19  C   UNL     1       6.758  16.310  19.302  0.00  0.00    +0.000 C 
BRANCH  18  20
ATOM     20  C   UNL     1       8.231  14.781  17.965  0.00  0.00    +0.000 A 
ATOM     21  C   UNL     1       9.399  15.552  18.102  0.00  0.00    +0.000 A 
ATOM     22  C   UNL     1      10.659  14.950  18.041  0.00  0.00    +0.000 A 
ATOM     23  C   UNL     1      10.763  13.576  17.848  0.00  0.00    +0.000 A 
ATOM     24 CL   UNL     1      12.315  12.836  17.764  0.00  0.00    +0.000 Cl
ATOM     25  C   UNL     1       9.617  12.795  17.723  0.00  0.00    +0.000 A 
ATOM     26  C   UNL     1       8.357  13.394  17.784  0.00  0.00    +0.000 A 
ENDBRANCH  18  20
ENDBRANCH   7  11
BRANCH   2  27
ATOM     27  C   UNL     1      -1.961  11.605  19.148  0.00  0.00    +0.000 A 
ATOM     28  C   UNL     1      -2.048  10.534  18.244  0.00  0.00    +0.000 A 
ATOM     29  C   UNL     1      -3.280  10.170  17.694  0.00  0.00    +0.000 A 
ATOM     30  C   UNL     1      -4.432  10.878  18.037  0.00  0.00    +0.000 A 
ATOM     31  C   UNL     1      -4.359  11.909  18.972  0.00  0.00    +0.000 A 
ATOM     32  C   UNL     1      -3.134  12.239  19.552  0.00  0.00    +0.000 A 
ATOM     33  F   UNL     1      -3.122  13.180  20.508  0.00  0.00    +0.000 F 
ENDBRANCH   2  27
TORSDOF 3
ENDMDL
MODEL 4
REMARK VINA RESULT:      -7.7      6.525     10.114
REMARK  Name = 
REMARK  3 active torsions:
REMARK  status: ('A' for Active; 'I' for Inactive)
REMARK    1  A    between atoms: C_2  and  C_3
REMARK    2  A    between atoms: C_14  and  C_16
REMARK    3  A    between atoms: C_23  and  C_24
REMARK                            x       y       z     vdW  Elec       q    Type
REMARK                         _______ _______ _______ _____ _____    ______ ____
ROOT
ATOM      1  O   UNL     1       0.125  10.416  19.731  0.00  0.00    +0.000 OA
ATOM      2  C   UNL     1      -0.391  11.347  19.108  0.00  0.00    +0.000 C 
ATOM      3  N   UNL     1       0.283  12.543  18.873  0.00  0.00    +0.000 N 
ATOM      4  C   UNL     1      -0.186  13.721  18.121  0.00  0.00    +0.000 C 
ATOM      5  C   UNL     1      -0.140  14.975  19.017  0.00  0.00    +0.000 C 
ATOM      6  N   UNL     1       1.210  15.148  19.568  0.00  0.00    +0.000 N 
ATOM      7  C   UNL     1       1.847  16.383  19.454  0.00  0.00    +0.000 C 
ATOM      8  O   UNL     1       1.250  17.379  19.046  0.00  0.00    +0.000 OA
ATOM      9  C   UNL     1       1.707  13.969  20.302  0.00  0.00    +0.000 C 
ATOM     10  C   UNL     1       1.636  12.709  19.426  0.00  0.00    +0.000 C 
ENDROOT
BRANCH   7  11
ATOM     11  C   UNL     1       3.253  16.485  19.839  0.00  0.00    +0.000 A 
ATOM     12  N   UNL     1       3.718  17.201  20.924  0.00  0.00    +0.000 NA
ATOM     13  N   UNL     1       5.039  17.100  20.968  0.00  0.00    +0.000 NA
ATOM     14  N   UNL     1       5.396  16.297  19.960  0.00  0.00    +0.000 N 
ATOM     15  C   UNL     1       4.330  15.857  19.242  0.00  0.00    +0.000 A 
ATOM     16  C   UNL     1       4.495  14.961  18.080  0.00  0.00    +0.000 C 
ATOM     17  O   UNL     1       5.832  14.430  18.072  0.00  0.00    +0.000 OA
ATOM     18  C   UNL     1       6.842  15.444  18.240  0.00  0.00    +0.000 C 
ATOM     19  C   UNL     1       6.776  15.975  19.674  0.00  0.00    +0.000 C 
BRANCH  18  20
ATOM     20  C   UNL     1       8.214  14.870  17.940  0.00  0.00    +0.000 A 
ATOM     21  C   UNL     1       9.335  15.716  17.893  0.00  0.00    +0.000 A 
ATOM     22  C   UNL     1      10.606  15.200  17.626  0.00  0.00    +0.000 A 
ATOM     23  C   UNL     1      10.769  13.835  17.410  0.00  0.00    +0.000 A 
ATOM     24 CL   UNL     1      12.333  13.200  17.074  0.00  0.00    +0.000 Cl
ATOM     25  C   UNL     1       9.673  12.979  17.466  0.00  0.00    +0.000 A 
ATOM     26  C   UNL     1       8.401  13.492  17.733  0.00  0.00    +0.000 A 
ENDBRANCH  18  20
ENDBRANCH   7  11
BRANCH   2  27
ATOM     27  C   UNL     1      -1.743  11.095  18.564  0.00  0.00    +0.000 A 
ATOM     28  C   UNL     1      -2.794  11.904  19.025  0.00  0.00    +0.000 A 
ATOM     29  C   UNL     1      -4.097  11.706  18.560  0.00  0.00    +0.000 A 
ATOM     30  C   UNL     1      -4.360  10.694  17.637  0.00  0.00    +0.000 A 
ATOM     31  C   UNL     1      -3.313   9.922  17.138  0.00  0.00    +0.000 A 
ATOM     32  C   UNL     1      -2.007  10.154  17.572  0.00  0.00    +0.000 A 
ATOM     33  F   UNL     1      -1.020   9.445  17.005  0.00  0.00    +0.000 F 
ENDBRANCH   2  27
TORSDOF 3
ENDMDL
MODEL 5
REMARK VINA RESULT:      -7.6      4.594     11.055
REMARK  Name = 
REMARK  3 active torsions:
REMARK  status: ('A' for Active; 'I' for Inactive)
REMARK    1  A    between atoms: C_2  and  C_3
REMARK    2  A    between atoms: C_14  and  C_16
REMARK    3  A    between atoms: C_23  and  C_24
REMARK                            x       y       z     vdW  Elec       q    Type
REMARK                         _______ _______ _______ _____ _____    ______ ____
ROOT
ATOM      1  O   UNL     1      -3.813  13.493  25.237  0.00  0.00    +0.000 OA
ATOM      2  C   UNL     1      -4.125  13.693  24.061  0.00  0.00    +0.000 C 
ATOM      3  N   UNL     1      -3.609  12.926  23.018  0.00  0.00    +0.000 N 
ATOM      4  C   UNL     1      -3.913  13.022  21.579  0.00  0.00    +0.000 C 
ATOM      5  C   UNL     1      -2.618  13.261  20.777  0.00  0.00    +0.000 C 
ATOM      6  N   UNL     1      -1.637  12.213  21.087  0.00  0.00    +0.000 N 
ATOM      7  C   UNL     1      -1.014  11.526  20.046  0.00  0.00    +0.000 C 
ATOM      8  O   UNL     1      -1.144  11.878  18.874  0.00  0.00    +0.000 OA
ATOM      9  C   UNL     1      -1.338  12.085  22.526  0.00  0.00    +0.000 C 
ATOM     10  C   UNL     1      -2.627  11.877  23.335  0.00  0.00    +0.000 C 
ENDROOT
BRANCH   7  11
ATOM     11  C   UNL     1      -0.184  10.367  20.370  0.00  0.00    +0.000 A 
ATOM     12  N   UNL     1      -0.051   9.827  21.633  0.00  0.00    +0.000 NA
ATOM     13  N   UNL     1       0.790   8.804  21.575  0.00  0.00    +0.000 NA
ATOM     14  N   UNL     1       1.144   8.671  20.292  0.00  0.00    +0.000 N 
ATOM     15  C   UNL     1       0.547   9.591  19.490  0.00  0.00    +0.000 A 
ATOM     16  C   UNL     1       0.799   9.631  18.035  0.00  0.00    +0.000 C 
ATOM     17  O   UNL     1       1.459   8.418  17.631  0.00  0.00    +0.000 OA
ATOM     18  C   UNL     1       2.589   8.088  18.463  0.00  0.00    +0.000 C 
ATOM     19  C   UNL     1       2.082   7.667  19.844  0.00  0.00    +0.000 C 
BRANCH  18  20
ATOM     20  C   UNL     1       3.400   6.976  17.824  0.00  0.00    +0.000 A 
ATOM     21  C   UNL     1       3.035   5.634  18.027  0.00  0.00    +0.000 A 
ATOM     22  C   UNL     1       3.767   4.599  17.437  0.00  0.00    +0.000 A 
ATOM     23  C   UNL     1       4.867   4.897  16.637  0.00  0.00    +0.000 A 
ATOM     24 CL   UNL     1       5.774   3.624  15.919  0.00  0.00    +0.000 Cl
ATOM     25  C   UNL     1       5.237   6.221  16.415  0.00  0.00    +0.000 A 
ATOM     26  C   UNL     1       4.506   7.256  17.003  0.00  0.00    +0.000 A 
ENDBRANCH  18  20
ENDBRANCH   7  11
BRANCH   2  27
ATOM     27  C   UNL     1      -5.134  14.748  23.825  0.00  0.00    +0.000 A 
ATOM     28  C   UNL     1      -4.671  16.050  23.576  0.00  0.00    +0.000 A 
ATOM     29  C   UNL     1      -5.576  17.094  23.361  0.00  0.00    +0.000 A 
ATOM     30  C   UNL     1      -6.947  16.845  23.400  0.00  0.00    +0.000 A 
ATOM     31  C   UNL     1      -7.411  15.545  23.596  0.00  0.00    +0.000 A 
ATOM     32  C   UNL     1      -6.503  14.500  23.766  0.00  0.00    +0.000 A 
ATOM     33  F   UNL     1      -6.989  13.254  23.868  0.00  0.00    +0.000 F 
ENDBRANCH   2  27
TORSDOF 3
ENDMDL
MODEL 6
REMARK VINA RESULT:      -7.5      4.660     11.089
REMARK  Name = 
REMARK  3 active torsions:
REMARK  status: ('A' for Active; 'I' for Inactive)
REMARK    1  A    between atoms: C_2  and  C_3
REMARK    2  A    between atoms: C_14  and  C_16
REMARK    3  A    between atoms: C_23  and  C_24
REMARK                            x       y       z     vdW  Elec       q    Type
REMARK                         _______ _______ _______ _____ _____    ______ ____
ROOT
ATOM      1  O   UNL     1      -3.520  13.501  25.145  0.00  0.00    +0.000 OA
ATOM      2  C   UNL     1      -3.775  13.768  23.968  0.00  0.00    +0.000 C 
ATOM      3  N   UNL     1      -3.278  13.007  22.912  0.00  0.00    +0.000 N 
ATOM      4  C   UNL     1      -3.523  13.181  21.469  0.00  0.00    +0.000 C 
ATOM      5  C   UNL     1      -2.187  13.357  20.721  0.00  0.00    +0.000 C 
ATOM      6  N   UNL     1      -1.293  12.230  21.019  0.00  0.00    +0.000 N 
ATOM      7  C   UNL     1      -0.683  11.540  19.972  0.00  0.00    +0.000 C 
ATOM      8  O   UNL     1      -0.746  11.947  18.812  0.00  0.00    +0.000 OA
ATOM      9  C   UNL     1      -1.056  12.025  22.460  0.00  0.00    +0.000 C 
ATOM     10  C   UNL     1      -2.384  11.878  23.217  0.00  0.00    +0.000 C 
ENDROOT
BRANCH   7  11
ATOM     11  C   UNL     1       0.050  10.313  20.274  0.00  0.00    +0.000 A 
ATOM     12  N   UNL     1       0.076   9.700  21.511  0.00  0.00    +0.000 NA
ATOM     13  N   UNL     1       0.852   8.628  21.441  0.00  0.00    +0.000 NA
ATOM     14  N   UNL     1       1.268   8.539  20.173  0.00  0.00    +0.000 N 
ATOM     15  C   UNL     1       0.779   9.537  19.393  0.00  0.00    +0.000 A 
ATOM     16  C   UNL     1       1.115   9.635  17.958  0.00  0.00    +0.000 C 
ATOM     17  O   UNL     1       1.717   8.402  17.523  0.00  0.00    +0.000 OA
ATOM     18  C   UNL     1       2.774   7.955  18.394  0.00  0.00    +0.000 C 
ATOM     19  C   UNL     1       2.164   7.498  19.721  0.00  0.00    +0.000 C 
BRANCH  18  20
ATOM     20  C   UNL     1       3.548   6.825  17.739  0.00  0.00    +0.000 A 
ATOM     21  C   UNL     1       3.159   5.491  17.952  0.00  0.00    +0.000 A 
ATOM     22  C   UNL     1       3.856   4.441  17.348  0.00  0.00    +0.000 A 
ATOM     23  C   UNL     1       4.942   4.715  16.522  0.00  0.00    +0.000 A 
ATOM     24 CL   UNL     1       5.806   3.422  15.785  0.00  0.00    +0.000 Cl
ATOM     25  C   UNL     1       5.334   6.030  16.288  0.00  0.00    +0.000 A 
ATOM     26  C   UNL     1       4.639   7.081  16.891  0.00  0.00    +0.000 A 
ENDBRANCH  18  20
ENDBRANCH   7  11
BRANCH   2  27
ATOM     27  C   UNL     1      -4.698  14.901  23.743  0.00  0.00    +0.000 A 
ATOM     28  C   UNL     1      -6.077  14.642  23.794  0.00  0.00    +0.000 A 
ATOM     29  C   UNL     1      -6.999  15.669  23.575  0.00  0.00    +0.000 A 
ATOM     30  C   UNL     1      -6.551  16.959  23.296  0.00  0.00    +0.000 A 
ATOM     31  C   UNL     1      -5.184  17.233  23.294  0.00  0.00    +0.000 A 
ATOM     32  C   UNL     1      -4.269  16.214  23.558  0.00  0.00    +0.000 A 
ATOM     33  F   UNL     1      -2.969  16.537  23.630  0.00  0.00    +0.000 F 
ENDBRANCH   2  27
TORSDOF 3
ENDMDL
MODEL 7
REMARK VINA RESULT:      -7.4      4.224     10.643
REMARK  Name = 
REMARK  3 active torsions:
REMARK  status: ('A' for Active; 'I' for Inactive)
REMARK    1  A    between atoms: C_2  and  C_3
REMARK    2  A    between atoms: C_14  and  C_16
REMARK    3  A    between atoms: C_23  and  C_24
REMARK                            x       y       z     vdW  Elec       q    Type
REMARK                         _______ _______ _______ _____ _____    ______ ____
ROOT
ATOM      1  O   UNL     1      -5.397  12.300  19.034  0.00  0.00    +0.000 OA
ATOM      2  C   UNL     1      -4.660  12.955  19.773  0.00  0.00    +0.000 C 
ATOM      3  N   UNL     1      -3.276  12.798  19.767  0.00  0.00    +0.000 N 
ATOM      4  C   UNL     1      -2.271  13.528  20.560  0.00  0.00    +0.000 C 
ATOM      5  C   UNL     1      -1.426  12.539  21.387  0.00  0.00    +0.000 C 
ATOM      6  N   UNL     1      -0.832  11.527  20.504  0.00  0.00    +0.000 N 
ATOM      7  C   UNL     1       0.535  11.265  20.579  0.00  0.00    +0.000 C 
ATOM      8  O   UNL     1       1.233  11.744  21.473  0.00  0.00    +0.000 OA
ATOM      9  C   UNL     1      -1.821  10.802  19.683  0.00  0.00    +0.000 C 
ATOM     10  C   UNL     1      -2.686  11.782  18.879  0.00  0.00    +0.000 C 
ENDROOT
BRANCH   7  11
ATOM     11  C   UNL     1       1.138  10.395  19.573  0.00  0.00    +0.000 A 
ATOM     12  N   UNL     1       1.524  10.805  18.312  0.00  0.00    +0.000 NA
ATOM     13  N   UNL     1       2.009   9.763  17.653  0.00  0.00    +0.000 NA
ATOM     14  N   UNL     1       1.975   8.726  18.496  0.00  0.00    +0.000 N 
ATOM     15  C   UNL     1       1.476   9.062  19.714  0.00  0.00    +0.000 A 
ATOM     16  C   UNL     1       1.343   8.068  20.799  0.00  0.00    +0.000 C 
ATOM     17  O   UNL     1       2.090   6.886  20.457  0.00  0.00    +0.000 OA
ATOM     18  C   UNL     1       1.814   6.412  19.124  0.00  0.00    +0.000 C 
ATOM     19  C   UNL     1       2.404   7.399  18.115  0.00  0.00    +0.000 C 
BRANCH  18  20
ATOM     20  C   UNL     1       2.402   5.026  18.931  0.00  0.00    +0.000 A 
ATOM     21  C   UNL     1       2.555   4.168  20.034  0.00  0.00    +0.000 A 
ATOM     22  C   UNL     1       3.086   2.886  19.870  0.00  0.00    +0.000 A 
ATOM     23  C   UNL     1       3.464   2.449  18.603  0.00  0.00    +0.000 A 
ATOM     24 CL   UNL     1       4.126   0.873  18.402  0.00  0.00    +0.000 Cl
ATOM     25  C   UNL     1       3.308   3.280  17.497  0.00  0.00    +0.000 A 
ATOM     26  C   UNL     1       2.777   4.562  17.659  0.00  0.00    +0.000 A 
ENDBRANCH  18  20
ENDBRANCH   7  11
BRANCH   2  27
ATOM     27  C   UNL     1      -5.323  13.971  20.619  0.00  0.00    +0.000 A 
ATOM     28  C   UNL     1      -5.840  15.113  19.986  0.00  0.00    +0.000 A 
ATOM     29  C   UNL     1      -6.464  16.115  20.734  0.00  0.00    +0.000 A 
ATOM     30  C   UNL     1      -6.570  15.987  22.119  0.00  0.00    +0.000 A 
ATOM     31  C   UNL     1      -6.103  14.833  22.746  0.00  0.00    +0.000 A 
ATOM     32  C   UNL     1      -5.521  13.816  21.989  0.00  0.00    +0.000 A 
ATOM     33  F   UNL     1      -5.162  12.688  22.621  0.00  0.00    +0.000 F 
ENDBRANCH   2  27
TORSDOF 3
ENDMDL
MODEL 8
REMARK VINA RESULT:      -7.4      6.524      9.996
REMARK  Name = 
REMARK  3 active torsions:
REMARK  status: ('A' for Active; 'I' for Inactive)
REMARK    1  A    between atoms: C_2  and  C_3
REMARK    2  A    between atoms: C_14  and  C_16
REMARK    3  A    between atoms: C_23  and  C_24
REMARK                            x       y       z     vdW  Elec       q    Type
REMARK                         _______ _______ _______ _____ _____    ______ ____
ROOT
ATOM      1  O   UNL     1      -0.210   9.793  18.459  0.00  0.00    +0.000 OA
ATOM      2  C   UNL     1      -0.678  10.930  18.361  0.00  0.00    +0.000 C 
ATOM      3  N   UNL     1       0.048  12.062  18.723  0.00  0.00    +0.000 N 
ATOM      4  C   UNL     1      -0.361  13.476  18.629  0.00  0.00    +0.000 C 
ATOM      5  C   UNL     1      -0.278  14.145  20.015  0.00  0.00    +0.000 C 
ATOM      6  N   UNL     1       1.070  13.975  20.574  0.00  0.00    +0.000 N 
ATOM      7  C   UNL     1       1.758  15.085  21.062  0.00  0.00    +0.000 C 
ATOM      8  O   UNL     1       1.208  16.180  21.183  0.00  0.00    +0.000 OA
ATOM      9  C   UNL     1       1.506  12.568  20.652  0.00  0.00    +0.000 C 
ATOM     10  C   UNL     1       1.398  11.885  19.281  0.00  0.00    +0.000 C 
ENDROOT
BRANCH   7  11
ATOM     11  C   UNL     1       3.160  14.929  21.441  0.00  0.00    +0.000 A 
ATOM     12  N   UNL     1       3.601  14.657  22.720  0.00  0.00    +0.000 NA
ATOM     13  N   UNL     1       4.925  14.605  22.715  0.00  0.00    +0.000 NA
ATOM     14  N   UNL     1       5.311  14.793  21.448  0.00  0.00    +0.000 N 
ATOM     15  C   UNL     1       4.261  14.968  20.605  0.00  0.00    +0.000 A 
ATOM     16  C   UNL     1       4.457  15.197  19.159  0.00  0.00    +0.000 C 
ATOM     17  O   UNL     1       5.817  14.886  18.807  0.00  0.00    +0.000 OA
ATOM     18  C   UNL     1       6.781  15.501  19.684  0.00  0.00    +0.000 C 
ATOM     19  C   UNL     1       6.702  14.829  21.056  0.00  0.00    +0.000 C 
BRANCH  18  20
ATOM     20  C   UNL     1       8.176  15.373  19.100  0.00  0.00    +0.000 A 
ATOM     21  C   UNL     1       8.521  16.093  17.943  0.00  0.00    +0.000 A 
ATOM     22  C   UNL     1       9.805  15.992  17.398  0.00  0.00    +0.000 A 
ATOM     23  C   UNL     1      10.754  15.177  18.008  0.00  0.00    +0.000 A 
ATOM     24 CL   UNL     1      12.331  15.045  17.333  0.00  0.00    +0.000 Cl
ATOM     25  C   UNL     1      10.434  14.466  19.162  0.00  0.00    +0.000 A 
ATOM     26  C   UNL     1       9.152  14.566  19.707  0.00  0.00    +0.000 A 
ENDBRANCH  18  20
ENDBRANCH   7  11
BRANCH   2  27
ATOM     27  C   UNL     1      -2.030  11.028  17.771  0.00  0.00    +0.000 A 
ATOM     28  C   UNL     1      -2.211  10.542  16.466  0.00  0.00    +0.000 A 
ATOM     29  C   UNL     1      -3.462  10.621  15.848  0.00  0.00    +0.000 A 
ATOM     30  C   UNL     1      -4.538  11.192  16.526  0.00  0.00    +0.000 A 
ATOM     31  C   UNL     1      -4.377  11.630  17.839  0.00  0.00    +0.000 A 
ATOM     32  C   UNL     1      -3.137  11.508  18.467  0.00  0.00    +0.000 A 
ATOM     33  F   UNL     1      -3.047  11.864  19.757  0.00  0.00    +0.000 F 
ENDBRANCH   2  27
TORSDOF 3
ENDMDL
MODEL 9
REMARK VINA RESULT:      -7.4      4.419     10.418
REMARK  Name = 
REMARK  3 active torsions:
REMARK  status: ('A' for Active; 'I' for Inactive)
REMARK    1  A    between atoms: C_2  and  C_3
REMARK    2  A    between atoms: C_14  and  C_16
REMARK    3  A    between atoms: C_23  and  C_24
REMARK                            x       y       z     vdW  Elec       q    Type
REMARK                         _______ _______ _______ _____ _____    ______ ____
ROOT
ATOM      1  O   UNL     1      -5.651  10.343  17.964  0.00  0.00    +0.000 OA
ATOM      2  C   UNL     1      -5.101  11.332  18.453  0.00  0.00    +0.000 C 
ATOM      3  N   UNL     1      -3.715  11.472  18.474  0.00  0.00    +0.000 N 
ATOM      4  C   UNL     1      -2.921  12.604  18.987  0.00  0.00    +0.000 C 
ATOM      5  C   UNL     1      -1.935  12.114  20.067  0.00  0.00    +0.000 C 
ATOM      6  N   UNL     1      -1.105  11.027  19.532  0.00  0.00    +0.000 N 
ATOM      7  C   UNL     1       0.282  11.092  19.663  0.00  0.00    +0.000 C 
ATOM      8  O   UNL     1       0.822  11.956  20.354  0.00  0.00    +0.000 OA
ATOM      9  C   UNL     1      -1.883   9.896  18.991  0.00  0.00    +0.000 C 
ATOM     10  C   UNL     1      -2.888  10.380  17.935  0.00  0.00    +0.000 C 
ENDROOT
BRANCH   7  11
ATOM     11  C   UNL     1       1.099  10.101  18.966  0.00  0.00    +0.000 A 
ATOM     12  N   UNL     1       1.622  10.269  17.699  0.00  0.00    +0.000 NA
ATOM     13  N   UNL     1       2.289   9.174  17.364  0.00  0.00    +0.000 NA
ATOM     14  N   UNL     1       2.228   8.350  18.416  0.00  0.00    +0.000 N 
ATOM     15  C   UNL     1       1.532   8.883  19.454  0.00  0.00    +0.000 A 
ATOM     16  C   UNL     1       1.336   8.143  20.717  0.00  0.00    +0.000 C 
ATOM     17  O   UNL     1       2.227   7.013  20.752  0.00  0.00    +0.000 OA
ATOM     18  C   UNL     1       2.189   6.229  19.544  0.00  0.00    +0.000 C 
ATOM     19  C   UNL     1       2.825   7.034  18.409  0.00  0.00    +0.000 C 
BRANCH  18  20
ATOM     20  C   UNL     1       2.921   4.915  19.750  0.00  0.00    +0.000 A 
ATOM     21  C   UNL     1       2.391   3.945  20.618  0.00  0.00    +0.000 A 
ATOM     22  C   UNL     1       3.049   2.727  20.812  0.00  0.00    +0.000 A 
ATOM     23  C   UNL     1       4.238   2.467  20.136  0.00  0.00    +0.000 A 
ATOM     24 CL   UNL     1       5.054   0.972  20.381  0.00  0.00    +0.000 Cl
ATOM     25  C   UNL     1       4.772   3.411  19.263  0.00  0.00    +0.000 A 
ATOM     26  C   UNL     1       4.115   4.628  19.068  0.00  0.00    +0.000 A 
ENDBRANCH  18  20
ENDBRANCH   7  11
BRANCH   2  27
ATOM     27  C   UNL     1      -5.998  12.396  18.953  0.00  0.00    +0.000 A 
ATOM     28  C   UNL     1      -6.854  13.017  18.029  0.00  0.00    +0.000 A 
ATOM     29  C   UNL     1      -7.715  14.039  18.437  0.00  0.00    +0.000 A 
ATOM     30  C   UNL     1      -7.720  14.454  19.769  0.00  0.00    +0.000 A 
ATOM     31  C   UNL     1      -6.909  13.807  20.700  0.00  0.00    +0.000 A 
ATOM     32  C   UNL     1      -6.084  12.757  20.295  0.00  0.00    +0.000 A 
ATOM     33  F   UNL     1      -5.383  12.108  21.237  0.00  0.00    +0.000 F 
ENDBRANCH   2  27
TORSDOF 3
ENDMDL
