MODEL 1
REMARK VINA RESULT:      -8.2      0.000      0.000
REMARK  Name = 
REMARK  12 active torsions:
REMARK  status: ('A' for Active; 'I' for Inactive)
REMARK    1  A    between atoms: C_1  and  O_2
REMARK    2  A    between atoms: O_2  and  C_3
REMARK    3  A    between atoms: C_3  and  C_4
REMARK    4  A    between atoms: C_7  and  C_8
REMARK    5  A    between atoms: C_14  and  C_15
REMARK    6  A    between atoms: C_16  and  C_17
REMARK    7  A    between atoms: C_22  and  C_23
REMARK    8  A    between atoms: C_25  and  O_26
REMARK    9  A    between atoms: O_26  and  C_27
REMARK   10  A    between atoms: C_29  and  O_30
REMARK   11  A    between atoms: O_30  and  C_31
REMARK   12  A    between atoms: N_33  and  C_34
REMARK                            x       y       z     vdW  Elec       q    Type
REMARK                         _______ _______ _______ _____ _____    ______ ____
ROOT
ATOM      1  C   UNL     1       2.414   7.540  18.701  0.00  0.00    +0.000 A 
ATOM      2  C   UNL     1       1.911   7.179  19.969  0.00  0.00    +0.000 A 
ATOM      3  C   UNL     1       1.155   8.068  20.745  0.00  0.00    +0.000 A 
ATOM      4  C   UNL     1       0.910   9.285  20.123  0.00  0.00    +0.000 A 
ATOM      5  C   UNL     1       0.787   9.399  18.744  0.00  0.00    +0.000 A 
ATOM      6  C   UNL     1       1.796   8.654  18.061  0.00  0.00    +0.000 A 
ATOM      7  C   UNL     1       0.118  10.673  18.619  0.00  0.00    +0.000 A 
ATOM      8  C   UNL     1       1.064  11.409  19.352  0.00  0.00    +0.000 A 
ATOM      9  N   UNL     1       1.006  10.619  20.529  0.00  0.00    +0.000 N 
ATOM     10  C   UNL     1       0.738  11.046  21.872  0.00  0.00    +0.000 C 
ENDROOT
BRANCH   1  14
ATOM     11  C   UNL     1       5.862   5.498  16.975  0.00  0.00    +0.000 A 
ATOM     12  C   UNL     1       5.179   4.959  18.073  0.00  0.00    +0.000 A 
ATOM     13  C   UNL     1       4.094   5.636  18.650  0.00  0.00    +0.000 A 
ATOM     14  C   UNL     1       3.637   6.868  18.156  0.00  0.00    +0.000 A 
ATOM     15  C   UNL     1       4.350   7.389  17.056  0.00  0.00    +0.000 A 
ATOM     16  C   UNL     1       5.449   6.727  16.473  0.00  0.00    +0.000 A 
BRANCH  11  17
ATOM     17  C   UNL     1       7.011   4.727  16.356  0.00  0.00    +0.000 C 
BRANCH  17  19
ATOM     18  C   UNL     1       7.031   4.705  13.995  0.00  0.00    +0.000 C 
ATOM     19  O   UNL     1       7.421   5.403  15.168  0.00  0.00    +0.000 OA
ENDBRANCH  17  19
ENDBRANCH  11  17
ENDBRANCH   1  14
BRANCH   8  20
ATOM     20  C   UNL     1       1.527  12.769  19.033  0.00  0.00    +0.000 A 
ATOM     21  C   UNL     1       2.729  13.096  18.412  0.00  0.00    +0.000 A 
ATOM     22  C   UNL     1       3.043  14.439  18.126  0.00  0.00    +0.000 A 
ATOM     23  C   UNL     1       2.134  15.457  18.429  0.00  0.00    +0.000 A 
ATOM     24  C   UNL     1       0.921  15.155  19.030  0.00  0.00    +0.000 A 
ATOM     25  C   UNL     1       0.639  13.829  19.352  0.00  0.00    +0.000 A 
BRANCH  22  26
ATOM     26  O   UNL     1       4.269  14.644  17.543  0.00  0.00    +0.000 OA
ATOM     27  C   UNL     1       5.330  15.004  18.426  0.00  0.00    +0.000 C 
ENDBRANCH  22  26
BRANCH  24  28
ATOM     28  O   UNL     1       0.109  16.228  19.283  0.00  0.00    +0.000 OA
ATOM     29  C   UNL     1      -0.236  17.018  18.149  0.00  0.00    +0.000 C 
ENDBRANCH  24  28
ENDBRANCH   8  20
BRANCH   7  30
ATOM     30  C   UNL     1      -1.241  11.104  19.041  0.00  0.00    +0.000 C 
ATOM     31  C   UNL     1      -2.410  11.416  18.913  0.00  0.00    +0.000 C 
BRANCH  31  32
ATOM     32  C   UNL     1      -3.755  11.715  18.462  0.00  0.00    +0.000 A 
ATOM     33  C   UNL     1      -4.229  11.590  17.119  0.00  0.00    +0.000 A 
ATOM     34  C   UNL     1      -5.544  11.983  16.965  0.00  0.00    +0.000 A 
ATOM     35  S   UNL     1      -6.220  12.549  18.424  0.00  0.00    +0.000 S 
ATOM     36  C   UNL     1      -4.760  12.229  19.263  0.00  0.00    +0.000 A 
ENDBRANCH  31  32
ENDBRANCH   7  30
TORSDOF 8
ENDMDL
MODEL 2
REMARK VINA RESULT:      -8.2      0.421      1.889
REMARK  Name = 
REMARK  12 active torsions:
REMARK  status: ('A' for Active; 'I' for Inactive)
REMARK    1  A    between atoms: C_1  and  O_2
REMARK    2  A    between atoms: O_2  and  C_3
REMARK    3  A    between atoms: C_3  and  C_4
REMARK    4  A    between atoms: C_7  and  C_8
REMARK    5  A    between atoms: C_14  and  C_15
REMARK    6  A    between atoms: C_16  and  C_17
REMARK    7  A    between atoms: C_22  and  C_23
REMARK    8  A    between atoms: C_25  and  O_26
REMARK    9  A    between atoms: O_26  and  C_27
REMARK   10  A    between atoms: C_29  and  O_30
REMARK   11  A    between atoms: O_30  and  C_31
REMARK   12  A    between atoms: N_33  and  C_34
REMARK                            x       y       z     vdW  Elec       q    Type
REMARK                         _______ _______ _______ _____ _____    ______ ____
ROOT
ATOM      1  C   UNL     1       2.530   7.402  18.615  0.00  0.00    +0.000 A 
ATOM      2  C   UNL     1       2.057   7.020  19.887  0.00  0.00    +0.000 A 
ATOM      3  C   UNL     1       1.272   7.876  20.672  0.00  0.00    +0.000 A 
ATOM      4  C   UNL     1       0.967   9.080  20.052  0.00  0.00    +0.000 A 
ATOM      5  C   UNL     1       0.824   9.188  18.674  0.00  0.00    +0.000 A 
ATOM      6  C   UNL     1       1.858   8.487  17.981  0.00  0.00    +0.000 A 
ATOM      7  C   UNL     1       0.099  10.432  18.556  0.00  0.00    +0.000 A 
ATOM      8  C   UNL     1       1.020  11.208  19.278  0.00  0.00    +0.000 A 
ATOM      9  N   UNL     1       1.009  10.418  20.457  0.00  0.00    +0.000 N 
ATOM     10  C   UNL     1       0.736  10.834  21.803  0.00  0.00    +0.000 C 
ENDROOT
BRANCH   1  14
ATOM     11  C   UNL     1       6.044   5.489  16.872  0.00  0.00    +0.000 A 
ATOM     12  C   UNL     1       5.496   5.031  18.078  0.00  0.00    +0.000 A 
ATOM     13  C   UNL     1       4.389   5.671  18.655  0.00  0.00    +0.000 A 
ATOM     14  C   UNL     1       3.777   6.783  18.057  0.00  0.00    +0.000 A 
ATOM     15  C   UNL     1       4.356   7.226  16.850  0.00  0.00    +0.000 A 
ATOM     16  C   UNL     1       5.475   6.601  16.263  0.00  0.00    +0.000 A 
BRANCH  11  17
ATOM     17  C   UNL     1       7.221   4.757  16.259  0.00  0.00    +0.000 C 
BRANCH  17  19
ATOM     18  C   UNL     1       6.799   4.437  13.958  0.00  0.00    +0.000 C 
ATOM     19  O   UNL     1       7.423   5.254  14.936  0.00  0.00    +0.000 OA
ENDBRANCH  17  19
ENDBRANCH  11  17
ENDBRANCH   1  14
BRANCH   8  20
ATOM     20  C   UNL     1       1.420  12.588  18.955  0.00  0.00    +0.000 A 
ATOM     21  C   UNL     1       0.607  13.714  19.048  0.00  0.00    +0.000 A 
ATOM     22  C   UNL     1       1.119  14.991  18.745  0.00  0.00    +0.000 A 
ATOM     23  C   UNL     1       2.461  15.146  18.384  0.00  0.00    +0.000 A 
ATOM     24  C   UNL     1       3.296  14.042  18.303  0.00  0.00    +0.000 A 
ATOM     25  C   UNL     1       2.770  12.777  18.559  0.00  0.00    +0.000 A 
BRANCH  22  26
ATOM     26  O   UNL     1       0.218  16.022  18.839  0.00  0.00    +0.000 OA
ATOM     27  C   UNL     1       0.621  17.137  19.631  0.00  0.00    +0.000 C 
ENDBRANCH  22  26
BRANCH  24  28
ATOM     28  O   UNL     1       4.588  14.309  17.940  0.00  0.00    +0.000 OA
ATOM     29  C   UNL     1       5.042  15.632  18.210  0.00  0.00    +0.000 C 
ENDBRANCH  24  28
ENDBRANCH   8  20
BRANCH   7  30
ATOM     30  C   UNL     1      -1.273  10.803  18.992  0.00  0.00    +0.000 C 
ATOM     31  C   UNL     1      -2.424  11.179  18.877  0.00  0.00    +0.000 C 
BRANCH  31  32
ATOM     32  C   UNL     1      -3.732  11.623  18.436  0.00  0.00    +0.000 A 
ATOM     33  C   UNL     1      -4.229  11.542  17.098  0.00  0.00    +0.000 A 
ATOM     34  C   UNL     1      -5.494  12.079  16.953  0.00  0.00    +0.000 A 
ATOM     35  S   UNL     1      -6.088  12.729  18.413  0.00  0.00    +0.000 S 
ATOM     36  C   UNL     1      -4.664  12.253  19.242  0.00  0.00    +0.000 A 
ENDBRANCH  31  32
ENDBRANCH   7  30
TORSDOF 8
ENDMDL
MODEL 3
REMARK VINA RESULT:      -8.0      1.274      2.510
REMARK  Name = 
REMARK  12 active torsions:
REMARK  status: ('A' for Active; 'I' for Inactive)
REMARK    1  A    between atoms: C_1  and  O_2
REMARK    2  A    between atoms: O_2  and  C_3
REMARK    3  A    between atoms: C_3  and  C_4
REMARK    4  A    between atoms: C_7  and  C_8
REMARK    5  A    between atoms: C_14  and  C_15
REMARK    6  A    between atoms: C_16  and  C_17
REMARK    7  A    between atoms: C_22  and  C_23
REMARK    8  A    between atoms: C_25  and  O_26
REMARK    9  A    between atoms: O_26  and  C_27
REMARK   10  A    between atoms: C_29  and  O_30
REMARK   11  A    between atoms: O_30  and  C_31
REMARK   12  A    between atoms: N_33  and  C_34
REMARK                            x       y       z     vdW  Elec       q    Type
REMARK                         _______ _______ _______ _____ _____    ______ ____
ROOT
ATOM      1  C   UNL     1       1.479   8.210  19.256  0.00  0.00    +0.000 A 
ATOM      2  C   UNL     1       0.837   8.028  20.498  0.00  0.00    +0.000 A 
ATOM      3  C   UNL     1       0.109   9.055  21.112  0.00  0.00    +0.000 A 
ATOM      4  C   UNL     1       0.037  10.218  20.358  0.00  0.00    +0.000 A 
ATOM      5  C   UNL     1       0.044  10.201  18.968  0.00  0.00    +0.000 A 
ATOM      6  C   UNL     1       1.030   9.302  18.458  0.00  0.00    +0.000 A 
ATOM      7  C   UNL     1      -0.484  11.509  18.661  0.00  0.00    +0.000 A 
ATOM      8  C   UNL     1       0.463  12.229  19.407  0.00  0.00    +0.000 A 
ATOM      9  N   UNL     1       0.228  11.574  20.643  0.00  0.00    +0.000 N 
ATOM     10  C   UNL     1      -0.111  12.159  21.908  0.00  0.00    +0.000 C 
ENDROOT
BRANCH   1  14
ATOM     11  C   UNL     1       4.839   5.686  18.082  0.00  0.00    +0.000 A 
ATOM     12  C   UNL     1       4.109   5.419  19.248  0.00  0.00    +0.000 A 
ATOM     13  C   UNL     1       3.052   6.254  19.643  0.00  0.00    +0.000 A 
ATOM     14  C   UNL     1       2.673   7.379  18.895  0.00  0.00    +0.000 A 
ATOM     15  C   UNL     1       3.433   7.626  17.732  0.00  0.00    +0.000 A 
ATOM     16  C   UNL     1       4.504   6.803  17.328  0.00  0.00    +0.000 A 
BRANCH  11  17
ATOM     17  C   UNL     1       5.955   4.747  17.668  0.00  0.00    +0.000 C 
BRANCH  17  19
ATOM     18  C   UNL     1       7.766   5.722  18.826  0.00  0.00    +0.000 C 
ATOM     19  O   UNL     1       6.870   4.624  18.756  0.00  0.00    +0.000 OA
ENDBRANCH  17  19
ENDBRANCH  11  17
ENDBRANCH   1  14
BRANCH   8  20
ATOM     20  C   UNL     1       1.082  13.503  19.006  0.00  0.00    +0.000 A 
ATOM     21  C   UNL     1       0.494  14.761  19.106  0.00  0.00    +0.000 A 
ATOM     22  C   UNL     1       1.206  15.915  18.724  0.00  0.00    +0.000 A 
ATOM     23  C   UNL     1       2.526  15.813  18.273  0.00  0.00    +0.000 A 
ATOM     24  C   UNL     1       3.140  14.573  18.183  0.00  0.00    +0.000 A 
ATOM     25  C   UNL     1       2.413  13.433  18.520  0.00  0.00    +0.000 A 
BRANCH  22  26
ATOM     26  O   UNL     1       0.515  17.095  18.834  0.00  0.00    +0.000 OA
ATOM     27  C   UNL     1      -0.655  17.214  18.026  0.00  0.00    +0.000 C 
ENDBRANCH  22  26
BRANCH  24  28
ATOM     28  O   UNL     1       4.432  14.590  17.730  0.00  0.00    +0.000 OA
ATOM     29  C   UNL     1       5.363  15.288  18.552  0.00  0.00    +0.000 C 
ENDBRANCH  24  28
ENDBRANCH   8  20
BRANCH   7  30
ATOM     30  C   UNL     1      -1.826  12.099  18.909  0.00  0.00    +0.000 C 
ATOM     31  C   UNL     1      -3.040  12.142  18.971  0.00  0.00    +0.000 C 
BRANCH  31  32
ATOM     32  C   UNL     1      -4.469  11.891  18.967  0.00  0.00    +0.000 A 
ATOM     33  C   UNL     1      -5.177  11.137  17.981  0.00  0.00    +0.000 A 
ATOM     34  C   UNL     1      -6.540  11.093  18.203  0.00  0.00    +0.000 A 
ATOM     35  S   UNL     1      -6.997  11.994  19.577  0.00  0.00    +0.000 S 
ATOM     36  C   UNL     1      -5.362  12.407  19.890  0.00  0.00    +0.000 A 
ENDBRANCH  31  32
ENDBRANCH   7  30
TORSDOF 8
ENDMDL
MODEL 4
REMARK VINA RESULT:      -8.0      1.141      2.405
REMARK  Name = 
REMARK  12 active torsions:
REMARK  status: ('A' for Active; 'I' for Inactive)
REMARK    1  A    between atoms: C_1  and  O_2
REMARK    2  A    between atoms: O_2  and  C_3
REMARK    3  A    between atoms: C_3  and  C_4
REMARK    4  A    between atoms: C_7  and  C_8
REMARK    5  A    between atoms: C_14  and  C_15
REMARK    6  A    between atoms: C_16  and  C_17
REMARK    7  A    between atoms: C_22  and  C_23
REMARK    8  A    between atoms: C_25  and  O_26
REMARK    9  A    between atoms: O_26  and  C_27
REMARK   10  A    between atoms: C_29  and  O_30
REMARK   11  A    between atoms: O_30  and  C_31
REMARK   12  A    between atoms: N_33  and  C_34
REMARK                            x       y       z     vdW  Elec       q    Type
REMARK                         _______ _______ _______ _____ _____    ______ ____
ROOT
ATOM      1  C   UNL     1       2.394   7.608  18.661  0.00  0.00    +0.000 A 
ATOM      2  C   UNL     1       1.872   7.270  19.927  0.00  0.00    +0.000 A 
ATOM      3  C   UNL     1       1.103   8.170  20.675  0.00  0.00    +0.000 A 
ATOM      4  C   UNL     1       0.864   9.375  20.027  0.00  0.00    +0.000 A 
ATOM      5  C   UNL     1       0.762   9.463  18.644  0.00  0.00    +0.000 A 
ATOM      6  C   UNL     1       1.783   8.708  17.991  0.00  0.00    +0.000 A 
ATOM      7  C   UNL     1       0.092  10.733  18.486  0.00  0.00    +0.000 A 
ATOM      8  C   UNL     1       1.025  11.485  19.219  0.00  0.00    +0.000 A 
ATOM      9  N   UNL     1       0.951  10.717  20.410  0.00  0.00    +0.000 N 
ATOM     10  C   UNL     1       0.661  11.168  21.740  0.00  0.00    +0.000 C 
ENDROOT
BRANCH   1  14
ATOM     11  C   UNL     1       5.869   5.524  17.042  0.00  0.00    +0.000 A 
ATOM     12  C   UNL     1       5.262   5.099  18.232  0.00  0.00    +0.000 A 
ATOM     13  C   UNL     1       4.167   5.793  18.770  0.00  0.00    +0.000 A 
ATOM     14  C   UNL     1       3.627   6.929  18.147  0.00  0.00    +0.000 A 
ATOM     15  C   UNL     1       4.265   7.337  16.957  0.00  0.00    +0.000 A 
ATOM     16  C   UNL     1       5.372   6.658  16.410  0.00  0.00    +0.000 A 
BRANCH  11  17
ATOM     17  C   UNL     1       7.030   4.735  16.472  0.00  0.00    +0.000 C 
BRANCH  17  19
ATOM     18  C   UNL     1       6.985   4.647  14.113  0.00  0.00    +0.000 C 
ATOM     19  O   UNL     1       7.443   5.355  15.254  0.00  0.00    +0.000 OA
ENDBRANCH  17  19
ENDBRANCH  11  17
ENDBRANCH   1  14
BRANCH   8  20
ATOM     20  C   UNL     1       1.489  12.840  18.882  0.00  0.00    +0.000 A 
ATOM     21  C   UNL     1       0.736  14.006  18.980  0.00  0.00    +0.000 A 
ATOM     22  C   UNL     1       1.307  15.254  18.664  0.00  0.00    +0.000 A 
ATOM     23  C   UNL     1       2.650  15.340  18.283  0.00  0.00    +0.000 A 
ATOM     24  C   UNL     1       3.427  14.194  18.197  0.00  0.00    +0.000 A 
ATOM     25  C   UNL     1       2.841  12.960  18.467  0.00  0.00    +0.000 A 
BRANCH  22  26
ATOM     26  O   UNL     1       0.462  16.330  18.765  0.00  0.00    +0.000 OA
ATOM     27  C   UNL     1       1.057  17.615  18.590  0.00  0.00    +0.000 C 
ENDBRANCH  22  26
BRANCH  24  28
ATOM     28  O   UNL     1       4.726  14.394  17.814  0.00  0.00    +0.000 OA
ATOM     29  C   UNL     1       5.428  15.409  18.526  0.00  0.00    +0.000 C 
ENDBRANCH  24  28
ENDBRANCH   8  20
BRANCH   7  30
ATOM     30  C   UNL     1      -1.275  11.167  18.878  0.00  0.00    +0.000 C 
ATOM     31  C   UNL     1      -2.123  11.827  19.449  0.00  0.00    +0.000 C 
BRANCH  31  32
ATOM     32  C   UNL     1      -2.889  12.778  20.230  0.00  0.00    +0.000 A 
ATOM     33  C   UNL     1      -2.346  13.719  21.160  0.00  0.00    +0.000 A 
ATOM     34  C   UNL     1      -3.311  14.475  21.797  0.00  0.00    +0.000 A 
ATOM     35  S   UNL     1      -4.889  14.039  21.320  0.00  0.00    +0.000 S 
ATOM     36  C   UNL     1      -4.270  12.865  20.234  0.00  0.00    +0.000 A 
ENDBRANCH  31  32
ENDBRANCH   7  30
TORSDOF 8
ENDMDL
MODEL 5
REMARK VINA RESULT:      -7.8      1.102      1.494
REMARK  Name = 
REMARK  12 active torsions:
REMARK  status: ('A' for Active; 'I' for Inactive)
REMARK    1  A    between atoms: C_1  and  O_2
REMARK    2  A    between atoms: O_2  and  C_3
REMARK    3  A    between atoms: C_3  and  C_4
REMARK    4  A    between atoms: C_7  and  C_8
REMARK    5  A    between atoms: C_14  and  C_15
REMARK    6  A    between atoms: C_16  and  C_17
REMARK    7  A    between atoms: C_22  and  C_23
REMARK    8  A    between atoms: C_25  and  O_26
REMARK    9  A    between atoms: O_26  and  C_27
REMARK   10  A    between atoms: C_29  and  O_30
REMARK   11  A    between atoms: O_30  and  C_31
REMARK   12  A    between atoms: N_33  and  C_34
REMARK                            x       y       z     vdW  Elec       q    Type
REMARK                         _______ _______ _______ _____ _____    ______ ____
ROOT
ATOM      1  C   UNL     1       2.496   7.507  18.686  0.00  0.00    +0.000 A 
ATOM      2  C   UNL     1       1.926   7.103  19.911  0.00  0.00    +0.000 A 
ATOM      3  C   UNL     1       1.126   7.964  20.674  0.00  0.00    +0.000 A 
ATOM      4  C   UNL     1       0.910   9.200  20.079  0.00  0.00    +0.000 A 
ATOM      5  C   UNL     1       0.861   9.360  18.700  0.00  0.00    +0.000 A 
ATOM      6  C   UNL     1       1.910   8.640  18.050  0.00  0.00    +0.000 A 
ATOM      7  C   UNL     1       0.195  10.635  18.581  0.00  0.00    +0.000 A 
ATOM      8  C   UNL     1       1.097  11.349  19.388  0.00  0.00    +0.000 A 
ATOM      9  N   UNL     1       0.978  10.521  20.534  0.00  0.00    +0.000 N 
ATOM     10  C   UNL     1       0.634  10.903  21.873  0.00  0.00    +0.000 C 
ENDROOT
BRANCH   1  14
ATOM     11  C   UNL     1       6.039   5.515  17.098  0.00  0.00    +0.000 A 
ATOM     12  C   UNL     1       5.371   5.011  18.222  0.00  0.00    +0.000 A 
ATOM     13  C   UNL     1       4.254   5.674  18.753  0.00  0.00    +0.000 A 
ATOM     14  C   UNL     1       3.751   6.856  18.187  0.00  0.00    +0.000 A 
ATOM     15  C   UNL     1       4.450   7.342  17.062  0.00  0.00    +0.000 A 
ATOM     16  C   UNL     1       5.580   6.694  16.524  0.00  0.00    +0.000 A 
BRANCH  11  17
ATOM     17  C   UNL     1       7.224   4.758  16.531  0.00  0.00    +0.000 C 
BRANCH  17  19
ATOM     18  C   UNL     1       6.729   4.420  14.247  0.00  0.00    +0.000 C 
ATOM     19  O   UNL     1       7.444   5.201  15.192  0.00  0.00    +0.000 OA
ENDBRANCH  17  19
ENDBRANCH  11  17
ENDBRANCH   1  14
BRANCH   8  20
ATOM     20  C   UNL     1       1.571  12.720  19.140  0.00  0.00    +0.000 A 
ATOM     21  C   UNL     1       2.663  13.075  18.354  0.00  0.00    +0.000 A 
ATOM     22  C   UNL     1       2.995  14.430  18.162  0.00  0.00    +0.000 A 
ATOM     23  C   UNL     1       2.208  15.437  18.729  0.00  0.00    +0.000 A 
ATOM     24  C   UNL     1       1.103  15.110  19.501  0.00  0.00    +0.000 A 
ATOM     25  C   UNL     1       0.809  13.766  19.723  0.00  0.00    +0.000 A 
BRANCH  22  26
ATOM     26  O   UNL     1       4.111  14.659  17.396  0.00  0.00    +0.000 OA
ATOM     27  C   UNL     1       5.308  14.967  18.109  0.00  0.00    +0.000 C 
ENDBRANCH  22  26
BRANCH  24  28
ATOM     28  O   UNL     1       0.406  16.173  20.007  0.00  0.00    +0.000 OA
ATOM     29  C   UNL     1       0.659  17.428  19.382  0.00  0.00    +0.000 C 
ENDBRANCH  24  28
ENDBRANCH   8  20
BRANCH   7  30
ATOM     30  C   UNL     1      -1.187  11.048  18.941  0.00  0.00    +0.000 C 
ATOM     31  C   UNL     1      -2.058  11.704  19.479  0.00  0.00    +0.000 C 
BRANCH  31  32
ATOM     32  C   UNL     1      -2.859  12.658  20.222  0.00  0.00    +0.000 A 
ATOM     33  C   UNL     1      -2.381  13.506  21.270  0.00  0.00    +0.000 A 
ATOM     34  C   UNL     1      -3.371  14.288  21.833  0.00  0.00    +0.000 A 
ATOM     35  S   UNL     1      -4.900  13.985  21.142  0.00  0.00    +0.000 S 
ATOM     36  C   UNL     1      -4.222  12.836  20.065  0.00  0.00    +0.000 A 
ENDBRANCH  31  32
ENDBRANCH   7  30
TORSDOF 8
ENDMDL
MODEL 6
REMARK VINA RESULT:      -7.8      1.552      2.776
REMARK  Name = 
REMARK  12 active torsions:
REMARK  status: ('A' for Active; 'I' for Inactive)
REMARK    1  A    between atoms: C_1  and  O_2
REMARK    2  A    between atoms: O_2  and  C_3
REMARK    3  A    between atoms: C_3  and  C_4
REMARK    4  A    between atoms: C_7  and  C_8
REMARK    5  A    between atoms: C_14  and  C_15
REMARK    6  A    between atoms: C_16  and  C_17
REMARK    7  A    between atoms: C_22  and  C_23
REMARK    8  A    between atoms: C_25  and  O_26
REMARK    9  A    between atoms: O_26  and  C_27
REMARK   10  A    between atoms: C_29  and  O_30
REMARK   11  A    between atoms: O_30  and  C_31
REMARK   12  A    between atoms: N_33  and  C_34
REMARK                            x       y       z     vdW  Elec       q    Type
REMARK                         _______ _______ _______ _____ _____    ______ ____
ROOT
ATOM      1  C   UNL     1       1.583   8.286  19.173  0.00  0.00    +0.000 A 
ATOM      2  C   UNL     1       0.941   8.148  20.421  0.00  0.00    +0.000 A 
ATOM      3  C   UNL     1       0.271   9.217  21.031  0.00  0.00    +0.000 A 
ATOM      4  C   UNL     1       0.257  10.376  20.267  0.00  0.00    +0.000 A 
ATOM      5  C   UNL     1       0.253  10.348  18.878  0.00  0.00    +0.000 A 
ATOM      6  C   UNL     1       1.187   9.394  18.369  0.00  0.00    +0.000 A 
ATOM      7  C   UNL     1      -0.207  11.680  18.563  0.00  0.00    +0.000 A 
ATOM      8  C   UNL     1       0.782  12.355  19.297  0.00  0.00    +0.000 A 
ATOM      9  N   UNL     1       0.521  11.722  20.540  0.00  0.00    +0.000 N 
ATOM     10  C   UNL     1       0.221  12.335  21.803  0.00  0.00    +0.000 C 
ENDROOT
BRANCH   1  14
ATOM     11  C   UNL     1       4.798   5.579  18.000  0.00  0.00    +0.000 A 
ATOM     12  C   UNL     1       4.063   5.361  19.173  0.00  0.00    +0.000 A 
ATOM     13  C   UNL     1       3.054   6.253  19.567  0.00  0.00    +0.000 A 
ATOM     14  C   UNL     1       2.730   7.391  18.812  0.00  0.00    +0.000 A 
ATOM     15  C   UNL     1       3.493   7.588  17.642  0.00  0.00    +0.000 A 
ATOM     16  C   UNL     1       4.517   6.707  17.239  0.00  0.00    +0.000 A 
BRANCH  11  17
ATOM     17  C   UNL     1       5.860   4.580  17.587  0.00  0.00    +0.000 C 
BRANCH  17  19
ATOM     18  C   UNL     1       7.709   5.544  18.694  0.00  0.00    +0.000 C 
ATOM     19  O   UNL     1       6.801   4.453  18.652  0.00  0.00    +0.000 OA
ENDBRANCH  17  19
ENDBRANCH  11  17
ENDBRANCH   1  14
BRANCH   8  20
ATOM     20  C   UNL     1       1.465  13.591  18.883  0.00  0.00    +0.000 A 
ATOM     21  C   UNL     1       0.916  14.870  18.903  0.00  0.00    +0.000 A 
ATOM     22  C   UNL     1       1.686  15.984  18.516  0.00  0.00    +0.000 A 
ATOM     23  C   UNL     1       3.024  15.822  18.142  0.00  0.00    +0.000 A 
ATOM     24  C   UNL     1       3.599  14.560  18.133  0.00  0.00    +0.000 A 
ATOM     25  C   UNL     1       2.817  13.459  18.473  0.00  0.00    +0.000 A 
BRANCH  22  26
ATOM     26  O   UNL     1       1.031  17.190  18.543  0.00  0.00    +0.000 OA
ATOM     27  C   UNL     1       0.548  17.612  19.817  0.00  0.00    +0.000 C 
ENDBRANCH  22  26
BRANCH  24  28
ATOM     28  O   UNL     1       4.913  14.518  17.750  0.00  0.00    +0.000 OA
ATOM     29  C   UNL     1       5.788  15.395  18.453  0.00  0.00    +0.000 C 
ENDBRANCH  24  28
ENDBRANCH   8  20
BRANCH   7  30
ATOM     30  C   UNL     1      -1.514  12.342  18.815  0.00  0.00    +0.000 C 
ATOM     31  C   UNL     1      -2.562  12.577  19.385  0.00  0.00    +0.000 C 
BRANCH  31  32
ATOM     32  C   UNL     1      -3.706  12.652  20.274  0.00  0.00    +0.000 A 
ATOM     33  C   UNL     1      -3.647  12.868  21.686  0.00  0.00    +0.000 A 
ATOM     34  C   UNL     1      -4.888  12.852  22.292  0.00  0.00    +0.000 A 
ATOM     35  S   UNL     1      -6.143  12.536  21.181  0.00  0.00    +0.000 S 
ATOM     36  C   UNL     1      -5.020  12.460  19.887  0.00  0.00    +0.000 A 
ENDBRANCH  31  32
ENDBRANCH   7  30
TORSDOF 8
ENDMDL
MODEL 7
REMARK VINA RESULT:      -7.8      1.357      2.659
REMARK  Name = 
REMARK  12 active torsions:
REMARK  status: ('A' for Active; 'I' for Inactive)
REMARK    1  A    between atoms: C_1  and  O_2
REMARK    2  A    between atoms: O_2  and  C_3
REMARK    3  A    between atoms: C_3  and  C_4
REMARK    4  A    between atoms: C_7  and  C_8
REMARK    5  A    between atoms: C_14  and  C_15
REMARK    6  A    between atoms: C_16  and  C_17
REMARK    7  A    between atoms: C_22  and  C_23
REMARK    8  A    between atoms: C_25  and  O_26
REMARK    9  A    between atoms: O_26  and  C_27
REMARK   10  A    between atoms: C_29  and  O_30
REMARK   11  A    between atoms: O_30  and  C_31
REMARK   12  A    between atoms: N_33  and  C_34
REMARK                            x       y       z     vdW  Elec       q    Type
REMARK                         _______ _______ _______ _____ _____    ______ ____
ROOT
ATOM      1  C   UNL     1       2.130   7.788  18.912  0.00  0.00    +0.000 A 
ATOM      2  C   UNL     1       1.526   7.497  20.152  0.00  0.00    +0.000 A 
ATOM      3  C   UNL     1       0.758   8.445  20.842  0.00  0.00    +0.000 A 
ATOM      4  C   UNL     1       0.609   9.646  20.161  0.00  0.00    +0.000 A 
ATOM      5  C   UNL     1       0.586   9.712  18.773  0.00  0.00    +0.000 A 
ATOM      6  C   UNL     1       1.607   8.901  18.191  0.00  0.00    +0.000 A 
ATOM      7  C   UNL     1      -0.017  11.006  18.557  0.00  0.00    +0.000 A 
ATOM      8  C   UNL     1       0.908  11.731  19.327  0.00  0.00    +0.000 A 
ATOM      9  N   UNL     1       0.735  10.990  20.525  0.00  0.00    +0.000 N 
ATOM     10  C   UNL     1       0.393  11.479  21.830  0.00  0.00    +0.000 C 
ENDROOT
BRANCH   1  14
ATOM     11  C   UNL     1       5.813   5.740  17.778  0.00  0.00    +0.000 A 
ATOM     12  C   UNL     1       5.319   6.809  17.019  0.00  0.00    +0.000 A 
ATOM     13  C   UNL     1       4.115   7.442  17.364  0.00  0.00    +0.000 A 
ATOM     14  C   UNL     1       3.359   7.046  18.479  0.00  0.00    +0.000 A 
ATOM     15  C   UNL     1       3.878   5.963  19.217  0.00  0.00    +0.000 A 
ATOM     16  C   UNL     1       5.080   5.309  18.877  0.00  0.00    +0.000 A 
BRANCH  11  17
ATOM     17  C   UNL     1       7.132   5.098  17.396  0.00  0.00    +0.000 C 
BRANCH  17  19
ATOM     18  C   UNL     1       6.923   4.400  15.151  0.00  0.00    +0.000 C 
ATOM     19  O   UNL     1       7.404   5.405  16.029  0.00  0.00    +0.000 OA
ENDBRANCH  17  19
ENDBRANCH  11  17
ENDBRANCH   1  14
BRANCH   8  20
ATOM     20  C   UNL     1       1.450  13.058  18.994  0.00  0.00    +0.000 A 
ATOM     21  C   UNL     1       0.802  14.274  19.190  0.00  0.00    +0.000 A 
ATOM     22  C   UNL     1       1.443  15.485  18.865  0.00  0.00    +0.000 A 
ATOM     23  C   UNL     1       2.753  15.481  18.375  0.00  0.00    +0.000 A 
ATOM     24  C   UNL     1       3.427  14.283  18.190  0.00  0.00    +0.000 A 
ATOM     25  C   UNL     1       2.768  13.088  18.471  0.00  0.00    +0.000 A 
BRANCH  22  26
ATOM     26  O   UNL     1       0.697  16.619  19.068  0.00  0.00    +0.000 OA
ATOM     27  C   UNL     1      -0.462  16.762  18.248  0.00  0.00    +0.000 C 
ENDBRANCH  22  26
BRANCH  24  28
ATOM     28  O   UNL     1       4.702  14.397  17.706  0.00  0.00    +0.000 OA
ATOM     29  C   UNL     1       5.596  15.171  18.501  0.00  0.00    +0.000 C 
ENDBRANCH  24  28
ENDBRANCH   8  20
BRANCH   7  30
ATOM     30  C   UNL     1      -1.382  11.508  18.866  0.00  0.00    +0.000 C 
ATOM     31  C   UNL     1      -2.244  12.119  19.467  0.00  0.00    +0.000 C 
BRANCH  31  32
ATOM     32  C   UNL     1      -3.032  12.953  20.355  0.00  0.00    +0.000 A 
ATOM     33  C   UNL     1      -4.421  12.776  20.645  0.00  0.00    +0.000 A 
ATOM     34  C   UNL     1      -4.928  13.742  21.493  0.00  0.00    +0.000 A 
ATOM     35  S   UNL     1      -3.754  14.902  21.921  0.00  0.00    +0.000 S 
ATOM     36  C   UNL     1      -2.562  14.084  20.999  0.00  0.00    +0.000 A 
ENDBRANCH  31  32
ENDBRANCH   7  30
TORSDOF 8
ENDMDL
MODEL 8
REMARK VINA RESULT:      -7.7      1.273      1.511
REMARK  Name = 
REMARK  12 active torsions:
REMARK  status: ('A' for Active; 'I' for Inactive)
REMARK    1  A    between atoms: C_1  and  O_2
REMARK    2  A    between atoms: O_2  and  C_3
REMARK    3  A    between atoms: C_3  and  C_4
REMARK    4  A    between atoms: C_7  and  C_8
REMARK    5  A    between atoms: C_14  and  C_15
REMARK    6  A    between atoms: C_16  and  C_17
REMARK    7  A    between atoms: C_22  and  C_23
REMARK    8  A    between atoms: C_25  and  O_26
REMARK    9  A    between atoms: O_26  and  C_27
REMARK   10  A    between atoms: C_29  and  O_30
REMARK   11  A    between atoms: O_30  and  C_31
REMARK   12  A    between atoms: N_33  and  C_34
REMARK                            x       y       z     vdW  Elec       q    Type
REMARK                         _______ _______ _______ _____ _____    ______ ____
ROOT
ATOM      1  C   UNL     1       1.596   8.177  19.192  0.00  0.00    +0.000 A 
ATOM      2  C   UNL     1       0.948   7.984  20.430  0.00  0.00    +0.000 A 
ATOM      3  C   UNL     1       0.224   9.008  21.053  0.00  0.00    +0.000 A 
ATOM      4  C   UNL     1       0.163  10.181  20.312  0.00  0.00    +0.000 A 
ATOM      5  C   UNL     1       0.175  10.180  18.923  0.00  0.00    +0.000 A 
ATOM      6  C   UNL     1       1.158   9.281  18.406  0.00  0.00    +0.000 A 
ATOM      7  C   UNL     1      -0.344  11.495  18.629  0.00  0.00    +0.000 A 
ATOM      8  C   UNL     1       0.605  12.201  19.387  0.00  0.00    +0.000 A 
ATOM      9  N   UNL     1       0.361  11.532  20.614  0.00  0.00    +0.000 N 
ATOM     10  C   UNL     1       0.021  12.104  21.885  0.00  0.00    +0.000 C 
ENDROOT
BRANCH   1  14
ATOM     11  C   UNL     1       4.946   5.646  18.002  0.00  0.00    +0.000 A 
ATOM     12  C   UNL     1       4.205   5.366  19.158  0.00  0.00    +0.000 A 
ATOM     13  C   UNL     1       3.152   6.203  19.559  0.00  0.00    +0.000 A 
ATOM     14  C   UNL     1       2.787   7.343  18.827  0.00  0.00    +0.000 A 
ATOM     15  C   UNL     1       3.556   7.602  17.673  0.00  0.00    +0.000 A 
ATOM     16  C   UNL     1       4.624   6.778  17.263  0.00  0.00    +0.000 A 
BRANCH  11  17
ATOM     17  C   UNL     1       6.057   4.706  17.580  0.00  0.00    +0.000 C 
BRANCH  17  19
ATOM     18  C   UNL     1       7.775   5.646  18.898  0.00  0.00    +0.000 C 
ATOM     19  O   UNL     1       6.937   4.520  18.688  0.00  0.00    +0.000 OA
ENDBRANCH  17  19
ENDBRANCH  11  17
ENDBRANCH   1  14
BRANCH   8  20
ATOM     20  C   UNL     1       1.234  13.475  19.004  0.00  0.00    +0.000 A 
ATOM     21  C   UNL     1       2.493  13.622  18.431  0.00  0.00    +0.000 A 
ATOM     22  C   UNL     1       2.971  14.898  18.072  0.00  0.00    +0.000 A 
ATOM     23  C   UNL     1       2.169  16.029  18.255  0.00  0.00    +0.000 A 
ATOM     24  C   UNL     1       0.902  15.906  18.807  0.00  0.00    +0.000 A 
ATOM     25  C   UNL     1       0.457  14.646  19.200  0.00  0.00    +0.000 A 
BRANCH  22  26
ATOM     26  O   UNL     1       4.238  14.925  17.547  0.00  0.00    +0.000 OA
ATOM     27  C   UNL     1       5.285  15.273  18.451  0.00  0.00    +0.000 C 
ENDBRANCH  22  26
BRANCH  24  28
ATOM     28  O   UNL     1       0.206  17.077  18.940  0.00  0.00    +0.000 OA
ATOM     29  C   UNL     1       0.986  18.223  19.266  0.00  0.00    +0.000 C 
ENDBRANCH  24  28
ENDBRANCH   8  20
BRANCH   7  30
ATOM     30  C   UNL     1      -1.683  12.091  18.879  0.00  0.00    +0.000 C 
ATOM     31  C   UNL     1      -2.897  12.141  18.934  0.00  0.00    +0.000 C 
BRANCH  31  32
ATOM     32  C   UNL     1      -4.327  11.901  18.918  0.00  0.00    +0.000 A 
ATOM     33  C   UNL     1      -4.999  10.944  18.096  0.00  0.00    +0.000 A 
ATOM     34  C   UNL     1      -6.371  10.956  18.255  0.00  0.00    +0.000 A 
ATOM     35  S   UNL     1      -6.879  12.148  19.365  0.00  0.00    +0.000 S 
ATOM     36  C   UNL     1      -5.255  12.616  19.654  0.00  0.00    +0.000 A 
ENDBRANCH  31  32
ENDBRANCH   7  30
TORSDOF 8
ENDMDL
MODEL 9
REMARK VINA RESULT:      -7.7      1.242      1.776
REMARK  Name = 
REMARK  12 active torsions:
REMARK  status: ('A' for Active; 'I' for Inactive)
REMARK    1  A    between atoms: C_1  and  O_2
REMARK    2  A    between atoms: O_2  and  C_3
REMARK    3  A    between atoms: C_3  and  C_4
REMARK    4  A    between atoms: C_7  and  C_8
REMARK    5  A    between atoms: C_14  and  C_15
REMARK    6  A    between atoms: C_16  and  C_17
REMARK    7  A    between atoms: C_22  and  C_23
REMARK    8  A    between atoms: C_25  and  O_26
REMARK    9  A    between atoms: O_26  and  C_27
REMARK   10  A    between atoms: C_29  and  O_30
REMARK   11  A    between atoms: O_30  and  C_31
REMARK   12  A    between atoms: N_33  and  C_34
REMARK                            x       y       z     vdW  Elec       q    Type
REMARK                         _______ _______ _______ _____ _____    ______ ____
ROOT
ATOM      1  C   UNL     1       1.770   8.055  18.986  0.00  0.00    +0.000 A 
ATOM      2  C   UNL     1       1.138   7.844  20.229  0.00  0.00    +0.000 A 
ATOM      3  C   UNL     1       0.444   8.866  20.889  0.00  0.00    +0.000 A 
ATOM      4  C   UNL     1       0.394  10.058  20.177  0.00  0.00    +0.000 A 
ATOM      5  C   UNL     1       0.383  10.090  18.788  0.00  0.00    +0.000 A 
ATOM      6  C   UNL     1       1.340   9.186  18.233  0.00  0.00    +0.000 A 
ATOM      7  C   UNL     1      -0.114  11.422  18.535  0.00  0.00    +0.000 A 
ATOM      8  C   UNL     1       0.860  12.091  19.294  0.00  0.00    +0.000 A 
ATOM      9  N   UNL     1       0.623  11.397  20.509  0.00  0.00    +0.000 N 
ATOM     10  C   UNL     1       0.314  11.944  21.799  0.00  0.00    +0.000 C 
ENDROOT
BRANCH   1  14
ATOM     11  C   UNL     1       5.285   5.694  17.931  0.00  0.00    +0.000 A 
ATOM     12  C   UNL     1       4.886   6.784  17.146  0.00  0.00    +0.000 A 
ATOM     13  C   UNL     1       3.734   7.519  17.467  0.00  0.00    +0.000 A 
ATOM     14  C   UNL     1       2.938   7.208  18.580  0.00  0.00    +0.000 A 
ATOM     15  C   UNL     1       3.361   6.101  19.345  0.00  0.00    +0.000 A 
ATOM     16  C   UNL     1       4.509   5.346  19.030  0.00  0.00    +0.000 A 
BRANCH  11  17
ATOM     17  C   UNL     1       6.551   4.940  17.576  0.00  0.00    +0.000 C 
BRANCH  17  19
ATOM     18  C   UNL     1       7.992   5.770  19.252  0.00  0.00    +0.000 C 
ATOM     19  O   UNL     1       7.258   4.650  18.781  0.00  0.00    +0.000 OA
ENDBRANCH  17  19
ENDBRANCH  11  17
ENDBRANCH   1  14
BRANCH   8  20
ATOM     20  C   UNL     1       1.507  13.362  18.932  0.00  0.00    +0.000 A 
ATOM     21  C   UNL     1       2.778  13.501  18.383  0.00  0.00    +0.000 A 
ATOM     22  C   UNL     1       3.273  14.775  18.042  0.00  0.00    +0.000 A 
ATOM     23  C   UNL     1       2.478  15.912  18.218  0.00  0.00    +0.000 A 
ATOM     24  C   UNL     1       1.201  15.797  18.746  0.00  0.00    +0.000 A 
ATOM     25  C   UNL     1       0.737  14.539  19.122  0.00  0.00    +0.000 A 
BRANCH  22  26
ATOM     26  O   UNL     1       4.550  14.794  17.540  0.00  0.00    +0.000 OA
ATOM     27  C   UNL     1       5.573  15.209  18.443  0.00  0.00    +0.000 C 
ENDBRANCH  22  26
BRANCH  24  28
ATOM     28  O   UNL     1       0.512  16.973  18.875  0.00  0.00    +0.000 OA
ATOM     29  C   UNL     1       1.277  18.159  18.678  0.00  0.00    +0.000 C 
ENDBRANCH  24  28
ENDBRANCH   8  20
BRANCH   7  30
ATOM     30  C   UNL     1      -1.438  12.037  18.822  0.00  0.00    +0.000 C 
ATOM     31  C   UNL     1      -2.648  12.102  18.917  0.00  0.00    +0.000 C 
BRANCH  31  32
ATOM     32  C   UNL     1      -4.081  11.878  18.953  0.00  0.00    +0.000 A 
ATOM     33  C   UNL     1      -4.981  12.414  19.926  0.00  0.00    +0.000 A 
ATOM     34  C   UNL     1      -6.288  12.004  19.745  0.00  0.00    +0.000 A 
ATOM     35  S   UNL     1      -6.448  10.934  18.427  0.00  0.00    +0.000 S 
ATOM     36  C   UNL     1      -4.773  11.055  18.083  0.00  0.00    +0.000 A 
ENDBRANCH  31  32
ENDBRANCH   7  30
TORSDOF 8
ENDMDL
