MODEL 1
REMARK VINA RESULT:      -7.9      0.000      0.000
REMARK  Name = 
REMARK  6 active torsions:
REMARK  status: ('A' for Active; 'I' for Inactive)
REMARK    1  A    between atoms: C_1  and  O_2
REMARK    2  A    between atoms: O_2  and  C_3
REMARK    3  A    between atoms: C_3  and  C_5
REMARK    4  A    between atoms: C_7  and  O_8
REMARK    5  A    between atoms: O_8  and  S_9
REMARK    6  A    between atoms: S_9  and  C_12
REMARK                            x       y       z     vdW  Elec       q    Type
REMARK                         _______ _______ _______ _____ _____    ______ ____
ROOT
ATOM      1  C   UNL     1       3.041   6.368  19.068  0.00  0.00    +0.000 A 
ATOM      2  C   UNL     1       4.256   6.455  18.279  0.00  0.00    +0.000 A 
ATOM      3  C   UNL     1       5.116   5.432  18.156  0.00  0.00    +0.000 A 
ATOM      4  C   UNL     1       4.824   4.169  18.910  0.00  0.00    +0.000 A 
ATOM      5  O   UNL     1       5.603   3.221  18.814  0.00  0.00    +0.000 OA
ATOM      6  N   UNL     1       3.653   4.146  19.685  0.00  0.00    +0.000 N 
ATOM      7  C   UNL     1       2.749   5.222  19.727  0.00  0.00    +0.000 A 
ATOM      8  C   UNL     1       1.464   5.065  20.525  0.00  0.00    +0.000 C 
ATOM      9  C   UNL     1       1.088   3.633  20.874  0.00  0.00    +0.000 C 
ATOM     10  C   UNL     1       2.304   2.938  21.443  0.00  0.00    +0.000 C 
ATOM     11  C   UNL     1       3.386   2.883  20.377  0.00  0.00    +0.000 C 
ENDROOT
BRANCH   1  12
ATOM     12  C   UNL     1       2.151   7.572  19.187  0.00  0.00    +0.000 C 
ATOM     13  O   UNL     1       1.769   8.057  20.240  0.00  0.00    +0.000 OA
BRANCH  12  15
ATOM     14  C   UNL     1       1.632   9.464  17.923  0.00  0.00    +0.000 C 
ATOM     15  O   UNL     1       1.837   8.050  17.952  0.00  0.00    +0.000 OA
ENDBRANCH  12  15
ENDBRANCH   1  12
BRANCH   3  16
ATOM     16  O   UNL     1       6.288   5.457  17.412  0.00  0.00    +0.000 OA
BRANCH  16  17
ATOM     17  S   UNL     1       6.300   5.691  15.794  0.00  0.00    +0.000 S 
ATOM     18  O   UNL     1       5.470   6.852  15.512  0.00  0.00    +0.000 OA
ATOM     19  O   UNL     1       7.688   5.679  15.357  0.00  0.00    +0.000 OA
BRANCH  17  20
ATOM     20  C   UNL     1       5.459   4.138  15.268  0.00  0.00    +0.000 C 
ATOM     21  F   UNL     1       6.098   3.012  15.692  0.00  0.00    +0.000 F 
ATOM     22  F   UNL     1       4.178   4.056  15.732  0.00  0.00    +0.000 F 
ATOM     23  F   UNL     1       5.374   4.038  13.907  0.00  0.00    +0.000 F 
ENDBRANCH  17  20
ENDBRANCH  16  17
ENDBRANCH   3  16
TORSDOF 5
ENDMDL
MODEL 2
REMARK VINA RESULT:      -7.8      2.171      2.445
REMARK  Name = 
REMARK  6 active torsions:
REMARK  status: ('A' for Active; 'I' for Inactive)
REMARK    1  A    between atoms: C_1  and  O_2
REMARK    2  A    between atoms: O_2  and  C_3
REMARK    3  A    between atoms: C_3  and  C_5
REMARK    4  A    between atoms: C_7  and  O_8
REMARK    5  A    between atoms: O_8  and  S_9
REMARK    6  A    between atoms: S_9  and  C_12
REMARK                            x       y       z     vdW  Elec       q    Type
REMARK                         _______ _______ _______ _____ _____    ______ ____
ROOT
ATOM      1  C   UNL     1       3.031   5.977  19.520  0.00  0.00    +0.000 A 
ATOM      2  C   UNL     1       4.433   5.972  19.143  0.00  0.00    +0.000 A 
ATOM      3  C   UNL     1       5.198   4.872  19.206  0.00  0.00    +0.000 A 
ATOM      4  C   UNL     1       4.581   3.612  19.737  0.00  0.00    +0.000 A 
ATOM      5  O   UNL     1       5.267   2.592  19.808  0.00  0.00    +0.000 OA
ATOM      6  N   UNL     1       3.231   3.676  20.120  0.00  0.00    +0.000 N 
ATOM      7  C   UNL     1       2.454   4.838  19.970  0.00  0.00    +0.000 A 
ATOM      8  C   UNL     1       0.977   4.780  20.330  0.00  0.00    +0.000 C 
ATOM      9  C   UNL     1       0.390   3.381  20.438  0.00  0.00    +0.000 C 
ATOM     10  C   UNL     1       1.308   2.536  21.291  0.00  0.00    +0.000 C 
ATOM     11  C   UNL     1       2.656   2.417  20.599  0.00  0.00    +0.000 C 
ENDROOT
BRANCH   1  12
ATOM     12  C   UNL     1       2.255   7.261  19.459  0.00  0.00    +0.000 C 
ATOM     13  O   UNL     1       1.929   7.927  20.427  0.00  0.00    +0.000 OA
BRANCH  12  15
ATOM     14  C   UNL     1       2.206   8.953  17.852  0.00  0.00    +0.000 C 
ATOM     15  O   UNL     1       1.972   7.579  18.165  0.00  0.00    +0.000 OA
ENDBRANCH  12  15
ENDBRANCH   1  12
BRANCH   3  16
ATOM     16  O   UNL     1       6.539   4.807  18.853  0.00  0.00    +0.000 OA
BRANCH  16  17
ATOM     17  S   UNL     1       7.060   5.042  17.321  0.00  0.00    +0.000 S 
ATOM     18  O   UNL     1       8.259   4.240  17.137  0.00  0.00    +0.000 OA
ATOM     19  O   UNL     1       5.923   4.845  16.435  0.00  0.00    +0.000 OA
BRANCH  17  20
ATOM     20  C   UNL     1       7.476   6.834  17.426  0.00  0.00    +0.000 C 
ATOM     21  F   UNL     1       8.237   7.145  18.514  0.00  0.00    +0.000 F 
ATOM     22  F   UNL     1       8.164   7.274  16.333  0.00  0.00    +0.000 F 
ATOM     23  F   UNL     1       6.357   7.615  17.508  0.00  0.00    +0.000 F 
ENDBRANCH  17  20
ENDBRANCH  16  17
ENDBRANCH   3  16
TORSDOF 5
ENDMDL
MODEL 3
REMARK VINA RESULT:      -7.6      3.591      5.705
REMARK  Name = 
REMARK  6 active torsions:
REMARK  status: ('A' for Active; 'I' for Inactive)
REMARK    1  A    between atoms: C_1  and  O_2
REMARK    2  A    between atoms: O_2  and  C_3
REMARK    3  A    between atoms: C_3  and  C_5
REMARK    4  A    between atoms: C_7  and  O_8
REMARK    5  A    between atoms: O_8  and  S_9
REMARK    6  A    between atoms: S_9  and  C_12
REMARK                            x       y       z     vdW  Elec       q    Type
REMARK                         _______ _______ _______ _____ _____    ______ ____
ROOT
ATOM      1  C   UNL     1       5.171   5.183  16.482  0.00  0.00    +0.000 A 
ATOM      2  C   UNL     1       4.113   4.246  16.812  0.00  0.00    +0.000 A 
ATOM      3  C   UNL     1       3.994   3.681  18.023  0.00  0.00    +0.000 A 
ATOM      4  C   UNL     1       5.033   4.001  19.057  0.00  0.00    +0.000 A 
ATOM      5  O   UNL     1       4.945   3.490  20.173  0.00  0.00    +0.000 OA
ATOM      6  N   UNL     1       6.056   4.886  18.678  0.00  0.00    +0.000 N 
ATOM      7  C   UNL     1       6.097   5.504  17.416  0.00  0.00    +0.000 A 
ATOM      8  C   UNL     1       7.196   6.518  17.135  0.00  0.00    +0.000 C 
ATOM      9  C   UNL     1       7.905   7.064  18.365  0.00  0.00    +0.000 C 
ATOM     10  C   UNL     1       8.292   5.906  19.255  0.00  0.00    +0.000 C 
ATOM     11  C   UNL     1       7.030   5.201  19.726  0.00  0.00    +0.000 C 
ENDROOT
BRANCH   1  12
ATOM     12  C   UNL     1       5.258   5.739  15.090  0.00  0.00    +0.000 C 
ATOM     13  O   UNL     1       5.190   6.923  14.805  0.00  0.00    +0.000 OA
BRANCH  12  15
ATOM     14  C   UNL     1       6.768   4.233  14.143  0.00  0.00    +0.000 C 
ATOM     15  O   UNL     1       5.430   4.731  14.190  0.00  0.00    +0.000 OA
ENDBRANCH  12  15
ENDBRANCH   1  12
BRANCH   3  16
ATOM     16  O   UNL     1       3.001   2.786  18.395  0.00  0.00    +0.000 OA
BRANCH  16  17
ATOM     17  S   UNL     1       1.424   3.208  18.490  0.00  0.00    +0.000 S 
ATOM     18  O   UNL     1       1.141   4.102  17.378  0.00  0.00    +0.000 OA
ATOM     19  O   UNL     1       0.649   1.985  18.640  0.00  0.00    +0.000 OA
BRANCH  17  20
ATOM     20  C   UNL     1       1.463   4.131  20.083  0.00  0.00    +0.000 C 
ATOM     21  F   UNL     1       2.145   5.309  20.004  0.00  0.00    +0.000 F 
ATOM     22  F   UNL     1       0.214   4.435  20.541  0.00  0.00    +0.000 F 
ATOM     23  F   UNL     1       2.063   3.410  21.078  0.00  0.00    +0.000 F 
ENDBRANCH  17  20
ENDBRANCH  16  17
ENDBRANCH   3  16
TORSDOF 5
ENDMDL
MODEL 4
REMARK VINA RESULT:      -7.6      1.113      1.197
REMARK  Name = 
REMARK  6 active torsions:
REMARK  status: ('A' for Active; 'I' for Inactive)
REMARK    1  A    between atoms: C_1  and  O_2
REMARK    2  A    between atoms: O_2  and  C_3
REMARK    3  A    between atoms: C_3  and  C_5
REMARK    4  A    between atoms: C_7  and  O_8
REMARK    5  A    between atoms: O_8  and  S_9
REMARK    6  A    between atoms: S_9  and  C_12
REMARK                            x       y       z     vdW  Elec       q    Type
REMARK                         _______ _______ _______ _____ _____    ______ ____
ROOT
ATOM      1  C   UNL     1       3.164   5.833  19.373  0.00  0.00    +0.000 A 
ATOM      2  C   UNL     1       4.543   5.722  18.933  0.00  0.00    +0.000 A 
ATOM      3  C   UNL     1       5.247   4.584  19.030  0.00  0.00    +0.000 A 
ATOM      4  C   UNL     1       4.587   3.397  19.667  0.00  0.00    +0.000 A 
ATOM      5  O   UNL     1       5.217   2.344  19.769  0.00  0.00    +0.000 OA
ATOM      6  N   UNL     1       3.263   3.564  20.106  0.00  0.00    +0.000 N 
ATOM      7  C   UNL     1       2.546   4.759  19.920  0.00  0.00    +0.000 A 
ATOM      8  C   UNL     1       1.088   4.810  20.351  0.00  0.00    +0.000 C 
ATOM      9  C   UNL     1       0.430   3.457  20.573  0.00  0.00    +0.000 C 
ATOM     10  C   UNL     1       1.339   2.611  21.434  0.00  0.00    +0.000 C 
ATOM     11  C   UNL     1       2.643   2.372  20.689  0.00  0.00    +0.000 C 
ENDROOT
BRANCH   1  12
ATOM     12  C   UNL     1       2.459   7.154  19.268  0.00  0.00    +0.000 C 
ATOM     13  O   UNL     1       2.023   7.791  20.213  0.00  0.00    +0.000 OA
BRANCH  12  15
ATOM     14  C   UNL     1       2.059   8.926  17.803  0.00  0.00    +0.000 C 
ATOM     15  O   UNL     1       2.382   7.544  17.966  0.00  0.00    +0.000 OA
ENDBRANCH  12  15
ENDBRANCH   1  12
BRANCH   3  16
ATOM     16  O   UNL     1       6.563   4.420  18.620  0.00  0.00    +0.000 OA
BRANCH  16  17
ATOM     17  S   UNL     1       7.088   4.871  17.140  0.00  0.00    +0.000 S 
ATOM     18  O   UNL     1       7.068   6.325  17.091  0.00  0.00    +0.000 OA
ATOM     19  O   UNL     1       8.332   4.163  16.879  0.00  0.00    +0.000 OA
BRANCH  17  20
ATOM     20  C   UNL     1       5.730   4.160  16.118  0.00  0.00    +0.000 C 
ATOM     21  F   UNL     1       5.145   3.069  16.688  0.00  0.00    +0.000 F 
ATOM     22  F   UNL     1       4.730   5.058  15.882  0.00  0.00    +0.000 F 
ATOM     23  F   UNL     1       6.172   3.757  14.889  0.00  0.00    +0.000 F 
ENDBRANCH  17  20
ENDBRANCH  16  17
ENDBRANCH   3  16
TORSDOF 5
ENDMDL
MODEL 5
REMARK VINA RESULT:      -7.6      0.490      1.182
REMARK  Name = 
REMARK  6 active torsions:
REMARK  status: ('A' for Active; 'I' for Inactive)
REMARK    1  A    between atoms: C_1  and  O_2
REMARK    2  A    between atoms: O_2  and  C_3
REMARK    3  A    between atoms: C_3  and  C_5
REMARK    4  A    between atoms: C_7  and  O_8
REMARK    5  A    between atoms: O_8  and  S_9
REMARK    6  A    between atoms: S_9  and  C_12
REMARK                            x       y       z     vdW  Elec       q    Type
REMARK                         _______ _______ _______ _____ _____    ______ ____
ROOT
ATOM      1  C   UNL     1       3.025   6.390  19.007  0.00  0.00    +0.000 A 
ATOM      2  C   UNL     1       4.244   6.466  18.223  0.00  0.00    +0.000 A 
ATOM      3  C   UNL     1       5.106   5.443  18.120  0.00  0.00    +0.000 A 
ATOM      4  C   UNL     1       4.813   4.191  18.893  0.00  0.00    +0.000 A 
ATOM      5  O   UNL     1       5.593   3.243  18.816  0.00  0.00    +0.000 OA
ATOM      6  N   UNL     1       3.638   4.179  19.663  0.00  0.00    +0.000 N 
ATOM      7  C   UNL     1       2.732   5.254  19.683  0.00  0.00    +0.000 A 
ATOM      8  C   UNL     1       1.443   5.108  20.478  0.00  0.00    +0.000 C 
ATOM      9  C   UNL     1       1.068   3.681  20.848  0.00  0.00    +0.000 C 
ATOM     10  C   UNL     1       2.282   2.997  21.434  0.00  0.00    +0.000 C 
ATOM     11  C   UNL     1       3.369   2.927  20.374  0.00  0.00    +0.000 C 
ENDROOT
BRANCH   1  12
ATOM     12  C   UNL     1       2.133   7.594  19.103  0.00  0.00    +0.000 C 
ATOM     13  O   UNL     1       1.654   8.187  18.150  0.00  0.00    +0.000 OA
BRANCH  12  15
ATOM     14  C   UNL     1       1.010   9.006  20.584  0.00  0.00    +0.000 C 
ATOM     15  O   UNL     1       1.928   7.926  20.408  0.00  0.00    +0.000 OA
ENDBRANCH  12  15
ENDBRANCH   1  12
BRANCH   3  16
ATOM     16  O   UNL     1       6.281   5.457  17.382  0.00  0.00    +0.000 OA
BRANCH  16  17
ATOM     17  S   UNL     1       6.303   5.701  15.765  0.00  0.00    +0.000 S 
ATOM     18  O   UNL     1       5.459   6.852  15.483  0.00  0.00    +0.000 OA
ATOM     19  O   UNL     1       7.695   5.713  15.340  0.00  0.00    +0.000 OA
BRANCH  17  20
ATOM     20  C   UNL     1       5.490   4.139  15.223  0.00  0.00    +0.000 C 
ATOM     21  F   UNL     1       5.451   3.997  13.868  0.00  0.00    +0.000 F 
ATOM     22  F   UNL     1       6.115   3.029  15.712  0.00  0.00    +0.000 F 
ATOM     23  F   UNL     1       4.194   4.062  15.652  0.00  0.00    +0.000 F 
ENDBRANCH  17  20
ENDBRANCH  16  17
ENDBRANCH   3  16
TORSDOF 5
ENDMDL
MODEL 6
REMARK VINA RESULT:      -7.5      3.645      5.924
REMARK  Name = 
REMARK  6 active torsions:
REMARK  status: ('A' for Active; 'I' for Inactive)
REMARK    1  A    between atoms: C_1  and  O_2
REMARK    2  A    between atoms: O_2  and  C_3
REMARK    3  A    between atoms: C_3  and  C_5
REMARK    4  A    between atoms: C_7  and  O_8
REMARK    5  A    between atoms: O_8  and  S_9
REMARK    6  A    between atoms: S_9  and  C_12
REMARK                            x       y       z     vdW  Elec       q    Type
REMARK                         _______ _______ _______ _____ _____    ______ ____
ROOT
ATOM      1  C   UNL     1       5.369   4.598  16.277  0.00  0.00    +0.000 A 
ATOM      2  C   UNL     1       4.268   3.743  16.682  0.00  0.00    +0.000 A 
ATOM      3  C   UNL     1       3.984   3.485  17.968  0.00  0.00    +0.000 A 
ATOM      4  C   UNL     1       4.877   4.071  19.021  0.00  0.00    +0.000 A 
ATOM      5  O   UNL     1       4.636   3.843  20.206  0.00  0.00    +0.000 OA
ATOM      6  N   UNL     1       5.948   4.865  18.577  0.00  0.00    +0.000 N 
ATOM      7  C   UNL     1       6.164   5.160  17.220  0.00  0.00    +0.000 A 
ATOM      8  C   UNL     1       7.298   6.103  16.848  0.00  0.00    +0.000 C 
ATOM      9  C   UNL     1       7.839   6.948  17.991  0.00  0.00    +0.000 C 
ATOM     10  C   UNL     1       8.095   6.049  19.179  0.00  0.00    +0.000 C 
ATOM     11  C   UNL     1       6.775   5.447  19.636  0.00  0.00    +0.000 C 
ENDROOT
BRANCH   1  12
ATOM     12  C   UNL     1       5.646   4.804  14.816  0.00  0.00    +0.000 C 
ATOM     13  O   UNL     1       5.458   5.845  14.209  0.00  0.00    +0.000 OA
BRANCH  12  15
ATOM     14  C   UNL     1       6.117   3.658  12.838  0.00  0.00    +0.000 C 
ATOM     15  O   UNL     1       6.144   3.662  14.266  0.00  0.00    +0.000 OA
ENDBRANCH  12  15
ENDBRANCH   1  12
BRANCH   3  16
ATOM     16  O   UNL     1       2.943   2.682  18.412  0.00  0.00    +0.000 OA
BRANCH  16  17
ATOM     17  S   UNL     1       1.384   3.177  18.410  0.00  0.00    +0.000 S 
ATOM     18  O   UNL     1       1.234   4.149  17.339  0.00  0.00    +0.000 OA
ATOM     19  O   UNL     1       0.545   1.989  18.422  0.00  0.00    +0.000 OA
BRANCH  17  20
ATOM     20  C   UNL     1       1.338   4.000  20.057  0.00  0.00    +0.000 C 
ATOM     21  F   UNL     1       1.890   3.247  21.050  0.00  0.00    +0.000 F 
ATOM     22  F   UNL     1       1.999   5.194  20.063  0.00  0.00    +0.000 F 
ATOM     23  F   UNL     1       0.059   4.276  20.455  0.00  0.00    +0.000 F 
ENDBRANCH  17  20
ENDBRANCH  16  17
ENDBRANCH   3  16
TORSDOF 5
ENDMDL
MODEL 7
REMARK VINA RESULT:      -7.5      1.785      2.178
REMARK  Name = 
REMARK  6 active torsions:
REMARK  status: ('A' for Active; 'I' for Inactive)
REMARK    1  A    between atoms: C_1  and  O_2
REMARK    2  A    between atoms: O_2  and  C_3
REMARK    3  A    between atoms: C_3  and  C_5
REMARK    4  A    between atoms: C_7  and  O_8
REMARK    5  A    between atoms: O_8  and  S_9
REMARK    6  A    between atoms: S_9  and  C_12
REMARK                            x       y       z     vdW  Elec       q    Type
REMARK                         _______ _______ _______ _____ _____    ______ ____
ROOT
ATOM      1  C   UNL     1       2.778   6.094  18.597  0.00  0.00    +0.000 A 
ATOM      2  C   UNL     1       3.840   6.064  17.607  0.00  0.00    +0.000 A 
ATOM      3  C   UNL     1       4.432   4.926  17.212  0.00  0.00    +0.000 A 
ATOM      4  C   UNL     1       4.005   3.644  17.863  0.00  0.00    +0.000 A 
ATOM      5  O   UNL     1       4.539   2.590  17.518  0.00  0.00    +0.000 OA
ATOM      6  N   UNL     1       2.998   3.730  18.838  0.00  0.00    +0.000 N 
ATOM      7  C   UNL     1       2.361   4.939  19.169  0.00  0.00    +0.000 A 
ATOM      8  C   UNL     1       1.219   4.912  20.173  0.00  0.00    +0.000 C 
ATOM      9  C   UNL     1       0.610   3.542  20.426  0.00  0.00    +0.000 C 
ATOM     10  C   UNL     1       1.727   2.554  20.675  0.00  0.00    +0.000 C 
ATOM     11  C   UNL     1       2.585   2.452  19.424  0.00  0.00    +0.000 C 
ENDROOT
BRANCH   1  12
ATOM     12  C   UNL     1       2.195   7.413  19.014  0.00  0.00    +0.000 C 
ATOM     13  O   UNL     1       2.101   7.802  20.167  0.00  0.00    +0.000 OA
BRANCH  12  15
ATOM     14  C   UNL     1       1.802   9.532  18.120  0.00  0.00    +0.000 C 
ATOM     15  O   UNL     1       1.793   8.117  17.921  0.00  0.00    +0.000 OA
ENDBRANCH  12  15
ENDBRANCH   1  12
BRANCH   3  16
ATOM     16  O   UNL     1       5.446   4.838  16.268  0.00  0.00    +0.000 OA
BRANCH  16  17
ATOM     17  S   UNL     1       6.784   5.775  16.321  0.00  0.00    +0.000 S 
ATOM     18  O   UNL     1       7.626   5.404  15.194  0.00  0.00    +0.000 OA
ATOM     19  O   UNL     1       6.348   7.156  16.465  0.00  0.00    +0.000 OA
BRANCH  17  20
ATOM     20  C   UNL     1       7.502   5.171  17.906  0.00  0.00    +0.000 C 
ATOM     21  F   UNL     1       6.558   4.772  18.805  0.00  0.00    +0.000 F 
ATOM     22  F   UNL     1       8.340   4.110  17.727  0.00  0.00    +0.000 F 
ATOM     23  F   UNL     1       8.242   6.135  18.532  0.00  0.00    +0.000 F 
ENDBRANCH  17  20
ENDBRANCH  16  17
ENDBRANCH   3  16
TORSDOF 5
ENDMDL
MODEL 8
REMARK VINA RESULT:      -7.4      3.834      6.044
REMARK  Name = 
REMARK  6 active torsions:
REMARK  status: ('A' for Active; 'I' for Inactive)
REMARK    1  A    between atoms: C_1  and  O_2
REMARK    2  A    between atoms: O_2  and  C_3
REMARK    3  A    between atoms: C_3  and  C_5
REMARK    4  A    between atoms: C_7  and  O_8
REMARK    5  A    between atoms: O_8  and  S_9
REMARK    6  A    between atoms: S_9  and  C_12
REMARK                            x       y       z     vdW  Elec       q    Type
REMARK                         _______ _______ _______ _____ _____    ______ ____
ROOT
ATOM      1  C   UNL     1       5.400   4.592  16.383  0.00  0.00    +0.000 A 
ATOM      2  C   UNL     1       4.386   3.679  16.876  0.00  0.00    +0.000 A 
ATOM      3  C   UNL     1       4.196   3.441  18.183  0.00  0.00    +0.000 A 
ATOM      4  C   UNL     1       5.110   4.115  19.163  0.00  0.00    +0.000 A 
ATOM      5  O   UNL     1       4.956   3.907  20.367  0.00  0.00    +0.000 OA
ATOM      6  N   UNL     1       6.097   4.964  18.635  0.00  0.00    +0.000 N 
ATOM      7  C   UNL     1       6.210   5.232  17.260  0.00  0.00    +0.000 A 
ATOM      8  C   UNL     1       7.255   6.236  16.795  0.00  0.00    +0.000 C 
ATOM      9  C   UNL     1       7.805   7.148  17.881  0.00  0.00    +0.000 C 
ATOM     10  C   UNL     1       8.191   6.303  19.073  0.00  0.00    +0.000 C 
ATOM     11  C   UNL     1       6.945   5.630  19.626  0.00  0.00    +0.000 C 
ENDROOT
BRANCH   1  12
ATOM     12  C   UNL     1       5.575   4.772  14.902  0.00  0.00    +0.000 C 
ATOM     13  O   UNL     1       5.284   5.781  14.281  0.00  0.00    +0.000 OA
BRANCH  12  15
ATOM     14  C   UNL     1       6.045   3.625  12.925  0.00  0.00    +0.000 C 
ATOM     15  O   UNL     1       6.112   3.648  14.352  0.00  0.00    +0.000 OA
ENDBRANCH  12  15
ENDBRANCH   1  12
BRANCH   3  16
ATOM     16  O   UNL     1       3.240   2.585  18.710  0.00  0.00    +0.000 OA
BRANCH  16  17
ATOM     17  S   UNL     1       1.725   3.076  19.080  0.00  0.00    +0.000 S 
ATOM     18  O   UNL     1       1.569   4.433  18.580  0.00  0.00    +0.000 OA
ATOM     19  O   UNL     1       0.805   2.039  18.636  0.00  0.00    +0.000 OA
BRANCH  17  20
ATOM     20  C   UNL     1       1.853   3.062  20.918  0.00  0.00    +0.000 C 
ATOM     21  F   UNL     1       0.720   2.618  21.532  0.00  0.00    +0.000 F 
ATOM     22  F   UNL     1       2.872   2.271  21.363  0.00  0.00    +0.000 F 
ATOM     23  F   UNL     1       2.097   4.309  21.422  0.00  0.00    +0.000 F 
ENDBRANCH  17  20
ENDBRANCH  16  17
ENDBRANCH   3  16
TORSDOF 5
ENDMDL
MODEL 9
REMARK VINA RESULT:      -7.4      1.093      1.134
REMARK  Name = 
REMARK  6 active torsions:
REMARK  status: ('A' for Active; 'I' for Inactive)
REMARK    1  A    between atoms: C_1  and  O_2
REMARK    2  A    between atoms: O_2  and  C_3
REMARK    3  A    between atoms: C_3  and  C_5
REMARK    4  A    between atoms: C_7  and  O_8
REMARK    5  A    between atoms: O_8  and  S_9
REMARK    6  A    between atoms: S_9  and  C_12
REMARK                            x       y       z     vdW  Elec       q    Type
REMARK                         _______ _______ _______ _____ _____    ______ ____
ROOT
ATOM      1  C   UNL     1       2.898   6.413  19.610  0.00  0.00    +0.000 A 
ATOM      2  C   UNL     1       4.200   6.688  19.031  0.00  0.00    +0.000 A 
ATOM      3  C   UNL     1       5.114   5.730  18.811  0.00  0.00    +0.000 A 
ATOM      4  C   UNL     1       4.783   4.328  19.229  0.00  0.00    +0.000 A 
ATOM      5  O   UNL     1       5.609   3.436  19.040  0.00  0.00    +0.000 OA
ATOM      6  N   UNL     1       3.523   4.119  19.814  0.00  0.00    +0.000 N 
ATOM      7  C   UNL     1       2.575   5.145  19.962  0.00  0.00    +0.000 A 
ATOM      8  C   UNL     1       1.205   4.798  20.525  0.00  0.00    +0.000 C 
ATOM      9  C   UNL     1       0.851   3.319  20.504  0.00  0.00    +0.000 C 
ATOM     10  C   UNL     1       2.012   2.535  21.071  0.00  0.00    +0.000 C 
ATOM     11  C   UNL     1       3.225   2.731  20.176  0.00  0.00    +0.000 C 
ENDROOT
BRANCH   1  12
ATOM     12  C   UNL     1       1.947   7.547  19.862  0.00  0.00    +0.000 C 
ATOM     13  O   UNL     1       1.354   7.742  20.910  0.00  0.00    +0.000 OA
BRANCH  12  15
ATOM     14  C   UNL     1       1.077   9.518  18.964  0.00  0.00    +0.000 C 
ATOM     15  O   UNL     1       1.848   8.333  18.755  0.00  0.00    +0.000 OA
ENDBRANCH  12  15
ENDBRANCH   1  12
BRANCH   3  16
ATOM     16  O   UNL     1       6.370   5.935  18.256  0.00  0.00    +0.000 OA
BRANCH  16  17
ATOM     17  S   UNL     1       6.586   6.326  16.684  0.00  0.00    +0.000 S 
ATOM     18  O   UNL     1       5.312   6.806  16.171  0.00  0.00    +0.000 OA
ATOM     19  O   UNL     1       7.760   7.182  16.600  0.00  0.00    +0.000 OA
BRANCH  17  20
ATOM     20  C   UNL     1       6.976   4.654  16.017  0.00  0.00    +0.000 C 
ATOM     21  F   UNL     1       7.889   3.976  16.768  0.00  0.00    +0.000 F 
ATOM     22  F   UNL     1       5.872   3.855  15.934  0.00  0.00    +0.000 F 
ATOM     23  F   UNL     1       7.492   4.715  14.753  0.00  0.00    +0.000 F 
ENDBRANCH  17  20
ENDBRANCH  16  17
ENDBRANCH   3  16
TORSDOF 5
ENDMDL
