MODEL 1
REMARK VINA RESULT:      -6.9      0.000      0.000
REMARK  Name = 
REMARK  4 active torsions:
REMARK  status: ('A' for Active; 'I' for Inactive)
REMARK    1  A    between atoms: C_13  and  C_14
REMARK    2  A    between atoms: C_17  and  C_18
REMARK    3  A    between atoms: C_18  and  N_19
REMARK    4  A    between atoms: C_25  and  C_26
REMARK                            x       y       z     vdW  Elec       q    Type
REMARK                         _______ _______ _______ _____ _____    ______ ____
ROOT
ATOM      1  O   UNL     1      -7.166  13.379  21.953  0.00  0.00    +0.000 OA
ATOM      2  C   UNL     1      -6.064  13.273  21.419  0.00  0.00    +0.000 A 
ATOM      3  N   UNL     1      -5.863  13.538  20.089  0.00  0.00    +0.000 N 
ATOM      4  N   UNL     1      -4.698  13.352  19.407  0.00  0.00    +0.000 NA
ATOM      5  C   UNL     1      -3.653  12.940  20.069  0.00  0.00    +0.000 A 
ATOM      6  C   UNL     1      -3.668  12.744  21.517  0.00  0.00    +0.000 A 
ATOM      7  C   UNL     1      -2.492  12.446  22.192  0.00  0.00    +0.000 A 
ATOM      8  C   UNL     1      -2.568  12.273  23.590  0.00  0.00    +0.000 A 
ATOM      9  C   UNL     1      -3.795  12.358  24.263  0.00  0.00    +0.000 A 
ATOM     10  C   UNL     1      -4.949  12.669  23.561  0.00  0.00    +0.000 A 
ATOM     11  C   UNL     1      -4.879  12.875  22.189  0.00  0.00    +0.000 A 
ATOM     12  N   UNL     1      -1.251  12.494  21.583  0.00  0.00    +0.000 N 
ATOM     13  C   UNL     1      -1.132  12.278  20.130  0.00  0.00    +0.000 C 
ATOM     14  C   UNL     1      -2.391  12.578  19.278  0.00  0.00    +0.000 C 
ATOM     15  H   UNL     1      -6.675  13.784  19.531  0.00  0.00    +0.000 HD
ATOM     16  H   UNL     1      -0.520  12.011  22.103  0.00  0.00    +0.000 HD
ENDROOT
BRANCH  13  17
ATOM     17  C   UNL     1      -0.401  10.951  19.939  0.00  0.00    +0.000 A 
ATOM     18  C   UNL     1      -0.344   9.973  20.944  0.00  0.00    +0.000 A 
ATOM     19  C   UNL     1       0.455   8.830  20.804  0.00  0.00    +0.000 A 
ATOM     20  C   UNL     1       1.263   8.661  19.675  0.00  0.00    +0.000 A 
ATOM     21  C   UNL     1       1.221   9.657  18.681  0.00  0.00    +0.000 A 
ATOM     22  C   UNL     1       0.364  10.758  18.786  0.00  0.00    +0.000 A 
BRANCH  20  23
ATOM     23  C   UNL     1       2.269   7.530  19.538  0.00  0.00    +0.000 C 
BRANCH  23  24
ATOM     24  N   UNL     1       2.422   6.899  18.211  0.00  0.00    +0.000 NA
ATOM     25  C   UNL     1       3.820   6.851  17.748  0.00  0.00    +0.000 C 
ATOM     26  C   UNL     1       3.733   5.323  17.634  0.00  0.00    +0.000 C 
ATOM     27  C   UNL     1       2.400   5.428  18.376  0.00  0.00    +0.000 C 
ENDBRANCH  23  24
ENDBRANCH  20  23
ENDBRANCH  13  17
BRANCH  14  28
ATOM     28  C   UNL     1      -2.739  11.546  18.202  0.00  0.00    +0.000 A 
ATOM     29  C   UNL     1      -2.343  11.747  16.869  0.00  0.00    +0.000 A 
ATOM     30  C   UNL     1      -2.477  10.737  15.920  0.00  0.00    +0.000 A 
ATOM     31  C   UNL     1      -3.016   9.512  16.290  0.00  0.00    +0.000 A 
ATOM     32  C   UNL     1      -3.482   9.319  17.590  0.00  0.00    +0.000 A 
ATOM     33  C   UNL     1      -3.362  10.336  18.541  0.00  0.00    +0.000 A 
ENDBRANCH  14  28
TORSDOF 4
ENDMDL
MODEL 2
REMARK VINA RESULT:      -6.9      3.911      7.635
REMARK  Name = 
REMARK  4 active torsions:
REMARK  status: ('A' for Active; 'I' for Inactive)
REMARK    1  A    between atoms: C_13  and  C_14
REMARK    2  A    between atoms: C_17  and  C_18
REMARK    3  A    between atoms: C_18  and  N_19
REMARK    4  A    between atoms: C_25  and  C_26
REMARK                            x       y       z     vdW  Elec       q    Type
REMARK                         _______ _______ _______ _____ _____    ______ ____
ROOT
ATOM      1  O   UNL     1       3.821  15.842  16.975  0.00  0.00    +0.000 OA
ATOM      2  C   UNL     1       3.252  15.144  17.811  0.00  0.00    +0.000 A 
ATOM      3  N   UNL     1       3.228  13.775  17.734  0.00  0.00    +0.000 N 
ATOM      4  N   UNL     1       2.540  12.942  18.565  0.00  0.00    +0.000 NA
ATOM      5  C   UNL     1       1.886  13.467  19.563  0.00  0.00    +0.000 A 
ATOM      6  C   UNL     1       1.925  14.897  19.863  0.00  0.00    +0.000 A 
ATOM      7  C   UNL     1       1.331  15.382  21.020  0.00  0.00    +0.000 A 
ATOM      8  C   UNL     1       1.406  16.772  21.258  0.00  0.00    +0.000 A 
ATOM      9  C   UNL     1       2.022  17.630  20.336  0.00  0.00    +0.000 A 
ATOM     10  C   UNL     1       2.615  17.111  19.196  0.00  0.00    +0.000 A 
ATOM     11  C   UNL     1       2.577  15.741  18.970  0.00  0.00    +0.000 A 
ATOM     12  N   UNL     1       0.843  14.552  22.012  0.00  0.00    +0.000 N 
ATOM     13  C   UNL     1       0.387  13.191  21.678  0.00  0.00    +0.000 C 
ATOM     14  C   UNL     1       0.986  12.551  20.400  0.00  0.00    +0.000 C 
ATOM     15  H   UNL     1       3.662  13.343  16.923  0.00  0.00    +0.000 HD
ATOM     16  H   UNL     1       0.215  15.017  22.665  0.00  0.00    +0.000 HD
ENDROOT
BRANCH  13  17
ATOM     17  C   UNL     1      -1.126  13.170  21.883  0.00  0.00    +0.000 A 
ATOM     18  C   UNL     1      -1.963  14.195  21.415  0.00  0.00    +0.000 A 
ATOM     19  C   UNL     1      -3.325  14.232  21.744  0.00  0.00    +0.000 A 
ATOM     20  C   UNL     1      -3.877  13.271  22.596  0.00  0.00    +0.000 A 
ATOM     21  C   UNL     1      -3.029  12.259  23.083  0.00  0.00    +0.000 A 
ATOM     22  C   UNL     1      -1.687  12.178  22.692  0.00  0.00    +0.000 A 
BRANCH  20  23
ATOM     23  C   UNL     1      -5.302  13.347  23.117  0.00  0.00    +0.000 C 
BRANCH  23  24
ATOM     24  N   UNL     1      -6.250  12.297  22.693  0.00  0.00    +0.000 NA
ATOM     25  C   UNL     1      -7.653  12.745  22.694  0.00  0.00    +0.000 C 
ATOM     26  C   UNL     1      -7.769  12.401  21.203  0.00  0.00    +0.000 C 
ATOM     27  C   UNL     1      -6.250  12.221  21.214  0.00  0.00    +0.000 C 
ENDBRANCH  23  24
ENDBRANCH  20  23
ENDBRANCH  13  17
BRANCH  14  28
ATOM     28  C   UNL     1      -0.002  11.826  19.482  0.00  0.00    +0.000 A 
ATOM     29  C   UNL     1      -0.268  10.458  19.663  0.00  0.00    +0.000 A 
ATOM     30  C   UNL     1      -1.301   9.830  18.971  0.00  0.00    +0.000 A 
ATOM     31  C   UNL     1      -2.078  10.561  18.082  0.00  0.00    +0.000 A 
ATOM     32  C   UNL     1      -1.781  11.902  17.834  0.00  0.00    +0.000 A 
ATOM     33  C   UNL     1      -0.737  12.531  18.517  0.00  0.00    +0.000 A 
ENDBRANCH  14  28
TORSDOF 4
ENDMDL
MODEL 3
REMARK VINA RESULT:      -6.8      3.817      7.574
REMARK  Name = 
REMARK  4 active torsions:
REMARK  status: ('A' for Active; 'I' for Inactive)
REMARK    1  A    between atoms: C_13  and  C_14
REMARK    2  A    between atoms: C_17  and  C_18
REMARK    3  A    between atoms: C_18  and  N_19
REMARK    4  A    between atoms: C_25  and  C_26
REMARK                            x       y       z     vdW  Elec       q    Type
REMARK                         _______ _______ _______ _____ _____    ______ ____
ROOT
ATOM      1  O   UNL     1       3.633  15.716  17.003  0.00  0.00    +0.000 OA
ATOM      2  C   UNL     1       3.053  15.042  17.851  0.00  0.00    +0.000 A 
ATOM      3  N   UNL     1       2.989  13.674  17.787  0.00  0.00    +0.000 N 
ATOM      4  N   UNL     1       2.286  12.869  18.633  0.00  0.00    +0.000 NA
ATOM      5  C   UNL     1       1.658  13.421  19.632  0.00  0.00    +0.000 A 
ATOM      6  C   UNL     1       1.741  14.852  19.919  0.00  0.00    +0.000 A 
ATOM      7  C   UNL     1       1.174  15.365  21.077  0.00  0.00    +0.000 A 
ATOM      8  C   UNL     1       1.291  16.754  21.301  0.00  0.00    +0.000 A 
ATOM      9  C   UNL     1       1.922  17.586  20.365  0.00  0.00    +0.000 A 
ATOM     10  C   UNL     1       2.488  17.040  19.224  0.00  0.00    +0.000 A 
ATOM     11  C   UNL     1       2.407  15.669  19.011  0.00  0.00    +0.000 A 
ATOM     12  N   UNL     1       0.673  14.558  22.082  0.00  0.00    +0.000 N 
ATOM     13  C   UNL     1       0.174  13.208  21.766  0.00  0.00    +0.000 C 
ATOM     14  C   UNL     1       0.740  12.540  20.487  0.00  0.00    +0.000 C 
ATOM     15  H   UNL     1       3.401  13.222  16.976  0.00  0.00    +0.000 HD
ATOM     16  H   UNL     1       0.065  15.048  22.737  0.00  0.00    +0.000 HD
ENDROOT
BRANCH  13  17
ATOM     17  C   UNL     1      -1.337  13.232  21.987  0.00  0.00    +0.000 A 
ATOM     18  C   UNL     1      -2.140  14.306  21.571  0.00  0.00    +0.000 A 
ATOM     19  C   UNL     1      -3.496  14.377  21.916  0.00  0.00    +0.000 A 
ATOM     20  C   UNL     1      -4.075  13.402  22.734  0.00  0.00    +0.000 A 
ATOM     21  C   UNL     1      -3.260  12.341  23.169  0.00  0.00    +0.000 A 
ATOM     22  C   UNL     1      -1.926  12.229  22.760  0.00  0.00    +0.000 A 
BRANCH  20  23
ATOM     23  C   UNL     1      -5.491  13.507  23.274  0.00  0.00    +0.000 C 
BRANCH  23  24
ATOM     24  N   UNL     1      -6.607  13.402  22.312  0.00  0.00    +0.000 NA
ATOM     25  C   UNL     1      -6.377  12.396  21.262  0.00  0.00    +0.000 C 
ATOM     26  C   UNL     1      -7.657  11.660  21.680  0.00  0.00    +0.000 C 
ATOM     27  C   UNL     1      -7.677  12.570  22.909  0.00  0.00    +0.000 C 
ENDBRANCH  23  24
ENDBRANCH  20  23
ENDBRANCH  13  17
BRANCH  14  28
ATOM     28  C   UNL     1      -0.278  11.836  19.587  0.00  0.00    +0.000 A 
ATOM     29  C   UNL     1      -0.978  12.558  18.605  0.00  0.00    +0.000 A 
ATOM     30  C   UNL     1      -1.757  11.905  17.653  0.00  0.00    +0.000 A 
ATOM     31  C   UNL     1      -1.853  10.520  17.674  0.00  0.00    +0.000 A 
ATOM     32  C   UNL     1      -1.225   9.792  18.685  0.00  0.00    +0.000 A 
ATOM     33  C   UNL     1      -0.453  10.446  19.650  0.00  0.00    +0.000 A 
ENDBRANCH  14  28
TORSDOF 4
ENDMDL
MODEL 4
REMARK VINA RESULT:      -6.7      0.356      1.272
REMARK  Name = 
REMARK  4 active torsions:
REMARK  status: ('A' for Active; 'I' for Inactive)
REMARK    1  A    between atoms: C_13  and  C_14
REMARK    2  A    between atoms: C_17  and  C_18
REMARK    3  A    between atoms: C_18  and  N_19
REMARK    4  A    between atoms: C_25  and  C_26
REMARK                            x       y       z     vdW  Elec       q    Type
REMARK                         _______ _______ _______ _____ _____    ______ ____
ROOT
ATOM      1  O   UNL     1      -6.972  12.950  21.912  0.00  0.00    +0.000 OA
ATOM      2  C   UNL     1      -5.868  12.964  21.372  0.00  0.00    +0.000 A 
ATOM      3  N   UNL     1      -5.709  13.178  20.027  0.00  0.00    +0.000 N 
ATOM      4  N   UNL     1      -4.532  13.112  19.344  0.00  0.00    +0.000 NA
ATOM      5  C   UNL     1      -3.439  12.884  20.016  0.00  0.00    +0.000 A 
ATOM      6  C   UNL     1      -3.422  12.771  21.473  0.00  0.00    +0.000 A 
ATOM      7  C   UNL     1      -2.214  12.674  22.151  0.00  0.00    +0.000 A 
ATOM      8  C   UNL     1      -2.262  12.572  23.558  0.00  0.00    +0.000 A 
ATOM      9  C   UNL     1      -3.487  12.529  24.238  0.00  0.00    +0.000 A 
ATOM     10  C   UNL     1      -4.675  12.640  23.532  0.00  0.00    +0.000 A 
ATOM     11  C   UNL     1      -4.638  12.775  22.150  0.00  0.00    +0.000 A 
ATOM     12  N   UNL     1      -0.994  12.854  21.527  0.00  0.00    +0.000 N 
ATOM     13  C   UNL     1      -0.851  12.575  20.087  0.00  0.00    +0.000 C 
ATOM     14  C   UNL     1      -2.142  12.652  19.233  0.00  0.00    +0.000 C 
ATOM     15  H   UNL     1      -6.549  13.279  19.465  0.00  0.00    +0.000 HD
ATOM     16  H   UNL     1      -0.202  12.506  22.065  0.00  0.00    +0.000 HD
ENDROOT
BRANCH  13  17
ATOM     17  C   UNL     1       0.052  11.350  19.962  0.00  0.00    +0.000 A 
ATOM     18  C   UNL     1       0.784  11.071  18.797  0.00  0.00    +0.000 A 
ATOM     19  C   UNL     1       1.486   9.867  18.648  0.00  0.00    +0.000 A 
ATOM     20  C   UNL     1       1.432   8.884  19.641  0.00  0.00    +0.000 A 
ATOM     21  C   UNL     1       0.678   9.158  20.797  0.00  0.00    +0.000 A 
ATOM     22  C   UNL     1       0.040  10.391  20.979  0.00  0.00    +0.000 A 
BRANCH  20  23
ATOM     23  C   UNL     1       2.036   7.500  19.470  0.00  0.00    +0.000 C 
BRANCH  23  24
ATOM     24  N   UNL     1       2.346   7.046  18.099  0.00  0.00    +0.000 NA
ATOM     25  C   UNL     1       3.783   7.093  17.782  0.00  0.00    +0.000 C 
ATOM     26  C   UNL     1       3.768   5.590  17.472  0.00  0.00    +0.000 C 
ATOM     27  C   UNL     1       2.365   5.565  18.079  0.00  0.00    +0.000 C 
ENDBRANCH  23  24
ENDBRANCH  20  23
ENDBRANCH  13  17
BRANCH  14  28
ATOM     28  C   UNL     1      -2.350  11.522  18.221  0.00  0.00    +0.000 A 
ATOM     29  C   UNL     1      -2.918  10.302  18.625  0.00  0.00    +0.000 A 
ATOM     30  C   UNL     1      -3.293   9.340  17.690  0.00  0.00    +0.000 A 
ATOM     31  C   UNL     1      -3.098   9.584  16.336  0.00  0.00    +0.000 A 
ATOM     32  C   UNL     1      -2.468  10.757  15.921  0.00  0.00    +0.000 A 
ATOM     33  C   UNL     1      -2.078  11.718  16.859  0.00  0.00    +0.000 A 
ENDBRANCH  14  28
TORSDOF 4
ENDMDL
MODEL 5
REMARK VINA RESULT:      -6.7      0.927      1.401
REMARK  Name = 
REMARK  4 active torsions:
REMARK  status: ('A' for Active; 'I' for Inactive)
REMARK    1  A    between atoms: C_13  and  C_14
REMARK    2  A    between atoms: C_17  and  C_18
REMARK    3  A    between atoms: C_18  and  N_19
REMARK    4  A    between atoms: C_25  and  C_26
REMARK                            x       y       z     vdW  Elec       q    Type
REMARK                         _______ _______ _______ _____ _____    ______ ____
ROOT
ATOM      1  O   UNL     1      -6.296  13.187  21.901  0.00  0.00    +0.000 OA
ATOM      2  C   UNL     1      -5.239  13.070  21.284  0.00  0.00    +0.000 A 
ATOM      3  N   UNL     1      -5.134  13.348  19.945  0.00  0.00    +0.000 N 
ATOM      4  N   UNL     1      -4.028  13.151  19.175  0.00  0.00    +0.000 NA
ATOM      5  C   UNL     1      -2.944  12.713  19.751  0.00  0.00    +0.000 A 
ATOM      6  C   UNL     1      -2.852  12.499  21.194  0.00  0.00    +0.000 A 
ATOM      7  C   UNL     1      -1.634  12.173  21.774  0.00  0.00    +0.000 A 
ATOM      8  C   UNL     1      -1.608  11.984  23.173  0.00  0.00    +0.000 A 
ATOM      9  C   UNL     1      -2.779  12.082  23.937  0.00  0.00    +0.000 A 
ATOM     10  C   UNL     1      -3.977  12.420  23.328  0.00  0.00    +0.000 A 
ATOM     11  C   UNL     1      -4.007  12.642  21.957  0.00  0.00    +0.000 A 
ATOM     12  N   UNL     1      -0.443  12.208  21.074  0.00  0.00    +0.000 N 
ATOM     13  C   UNL     1      -0.437  12.009  19.614  0.00  0.00    +0.000 C 
ATOM     14  C   UNL     1      -1.752  12.340  18.863  0.00  0.00    +0.000 C 
ATOM     15  H   UNL     1      -5.983  13.614  19.453  0.00  0.00    +0.000 HD
ATOM     16  H   UNL     1       0.317  11.707  21.532  0.00  0.00    +0.000 HD
ENDROOT
BRANCH  13  17
ATOM     17  C   UNL     1       0.253  10.672  19.353  0.00  0.00    +0.000 A 
ATOM     18  C   UNL     1       0.341   9.668  20.330  0.00  0.00    +0.000 A 
ATOM     19  C   UNL     1       1.107   8.513  20.121  0.00  0.00    +0.000 A 
ATOM     20  C   UNL     1       1.851   8.356  18.948  0.00  0.00    +0.000 A 
ATOM     21  C   UNL     1       1.780   9.376  17.981  0.00  0.00    +0.000 A 
ATOM     22  C   UNL     1       0.954  10.493  18.157  0.00  0.00    +0.000 A 
BRANCH  20  23
ATOM     23  C   UNL     1       2.824   7.208  18.731  0.00  0.00    +0.000 C 
BRANCH  23  24
ATOM     24  N   UNL     1       2.563   5.938  19.439  0.00  0.00    +0.000 NA
ATOM     25  C   UNL     1       2.002   4.891  18.567  0.00  0.00    +0.000 C 
ATOM     26  C   UNL     1       3.180   3.970  18.908  0.00  0.00    +0.000 C 
ATOM     27  C   UNL     1       3.834   5.188  19.562  0.00  0.00    +0.000 C 
ENDBRANCH  23  24
ENDBRANCH  20  23
ENDBRANCH  13  17
BRANCH  14  28
ATOM     28  C   UNL     1      -2.198  11.327  17.805  0.00  0.00    +0.000 A 
ATOM     29  C   UNL     1      -2.762  10.099  18.190  0.00  0.00    +0.000 A 
ATOM     30  C   UNL     1      -3.350   9.254  17.253  0.00  0.00    +0.000 A 
ATOM     31  C   UNL     1      -3.374   9.622  15.914  0.00  0.00    +0.000 A 
ATOM     32  C   UNL     1      -2.754  10.802  15.503  0.00  0.00    +0.000 A 
ATOM     33  C   UNL     1      -2.151  11.645  16.440  0.00  0.00    +0.000 A 
ENDBRANCH  14  28
TORSDOF 4
ENDMDL
MODEL 6
REMARK VINA RESULT:      -6.7      4.128      6.058
REMARK  Name = 
REMARK  4 active torsions:
REMARK  status: ('A' for Active; 'I' for Inactive)
REMARK    1  A    between atoms: C_13  and  C_14
REMARK    2  A    between atoms: C_17  and  C_18
REMARK    3  A    between atoms: C_18  and  N_19
REMARK    4  A    between atoms: C_25  and  C_26
REMARK                            x       y       z     vdW  Elec       q    Type
REMARK                         _______ _______ _______ _____ _____    ______ ____
ROOT
ATOM      1  O   UNL     1      -5.729  12.063  17.764  0.00  0.00    +0.000 OA
ATOM      2  C   UNL     1      -4.708  12.143  18.443  0.00  0.00    +0.000 A 
ATOM      3  N   UNL     1      -4.648  12.878  19.599  0.00  0.00    +0.000 N 
ATOM      4  N   UNL     1      -3.532  13.093  20.350  0.00  0.00    +0.000 NA
ATOM      5  C   UNL     1      -2.423  12.511  19.988  0.00  0.00    +0.000 A 
ATOM      6  C   UNL     1      -2.352  11.586  18.859  0.00  0.00    +0.000 A 
ATOM      7  C   UNL     1      -1.183  10.882  18.607  0.00  0.00    +0.000 A 
ATOM      8  C   UNL     1      -1.177  10.000  17.505  0.00  0.00    +0.000 A 
ATOM      9  C   UNL     1      -2.300   9.873  16.675  0.00  0.00    +0.000 A 
ATOM     10  C   UNL     1      -3.456  10.582  16.962  0.00  0.00    +0.000 A 
ATOM     11  C   UNL     1      -3.483  11.428  18.064  0.00  0.00    +0.000 A 
ATOM     12  N   UNL     1      -0.113  10.877  19.482  0.00  0.00    +0.000 N 
ATOM     13  C   UNL     1       0.106  12.018  20.388  0.00  0.00    +0.000 C 
ATOM     14  C   UNL     1      -1.136  12.877  20.736  0.00  0.00    +0.000 C 
ATOM     15  H   UNL     1      -5.475  13.407  19.862  0.00  0.00    +0.000 HD
ATOM     16  H   UNL     1       0.756  10.545  19.066  0.00  0.00    +0.000 HD
ENDROOT
BRANCH  13  17
ATOM     17  C   UNL     1       1.386  12.711  19.925  0.00  0.00    +0.000 A 
ATOM     18  C   UNL     1       2.239  13.386  20.812  0.00  0.00    +0.000 A 
ATOM     19  C   UNL     1       3.324  14.140  20.347  0.00  0.00    +0.000 A 
ATOM     20  C   UNL     1       3.554  14.286  18.976  0.00  0.00    +0.000 A 
ATOM     21  C   UNL     1       2.682  13.629  18.090  0.00  0.00    +0.000 A 
ATOM     22  C   UNL     1       1.645  12.812  18.555  0.00  0.00    +0.000 A 
BRANCH  20  23
ATOM     23  C   UNL     1       4.612  15.218  18.408  0.00  0.00    +0.000 C 
BRANCH  23  24
ATOM     24  N   UNL     1       6.011  15.020  18.838  0.00  0.00    +0.000 NA
ATOM     25  C   UNL     1       6.844  14.356  17.821  0.00  0.00    +0.000 C 
ATOM     26  C   UNL     1       7.803  15.554  17.819  0.00  0.00    +0.000 C 
ATOM     27  C   UNL     1       6.753  16.288  18.654  0.00  0.00    +0.000 C 
ENDBRANCH  23  24
ENDBRANCH  20  23
ENDBRANCH  13  17
BRANCH  14  28
ATOM     28  C   UNL     1      -0.937  14.395  20.701  0.00  0.00    +0.000 A 
ATOM     29  C   UNL     1      -0.928  15.083  19.475  0.00  0.00    +0.000 A 
ATOM     30  C   UNL     1      -0.945  16.474  19.432  0.00  0.00    +0.000 A 
ATOM     31  C   UNL     1      -0.964  17.199  20.617  0.00  0.00    +0.000 A 
ATOM     32  C   UNL     1      -0.899  16.535  21.842  0.00  0.00    +0.000 A 
ATOM     33  C   UNL     1      -0.868  15.139  21.887  0.00  0.00    +0.000 A 
ENDBRANCH  14  28
TORSDOF 4
ENDMDL
MODEL 7
REMARK VINA RESULT:      -6.7      0.760      1.268
REMARK  Name = 
REMARK  4 active torsions:
REMARK  status: ('A' for Active; 'I' for Inactive)
REMARK    1  A    between atoms: C_13  and  C_14
REMARK    2  A    between atoms: C_17  and  C_18
REMARK    3  A    between atoms: C_18  and  N_19
REMARK    4  A    between atoms: C_25  and  C_26
REMARK                            x       y       z     vdW  Elec       q    Type
REMARK                         _______ _______ _______ _____ _____    ______ ____
ROOT
ATOM      1  O   UNL     1      -7.202  13.416  21.674  0.00  0.00    +0.000 OA
ATOM      2  C   UNL     1      -6.058  13.280  21.246  0.00  0.00    +0.000 A 
ATOM      3  N   UNL     1      -5.727  13.527  19.939  0.00  0.00    +0.000 N 
ATOM      4  N   UNL     1      -4.509  13.307  19.370  0.00  0.00    +0.000 NA
ATOM      5  C   UNL     1      -3.541  12.876  20.129  0.00  0.00    +0.000 A 
ATOM      6  C   UNL     1      -3.695  12.695  21.571  0.00  0.00    +0.000 A 
ATOM      7  C   UNL     1      -2.595  12.375  22.355  0.00  0.00    +0.000 A 
ATOM      8  C   UNL     1      -2.806  12.217  23.742  0.00  0.00    +0.000 A 
ATOM      9  C   UNL     1      -4.088  12.338  24.296  0.00  0.00    +0.000 A 
ATOM     10  C   UNL     1      -5.163  12.670  23.487  0.00  0.00    +0.000 A 
ATOM     11  C   UNL     1      -4.960  12.861  22.126  0.00  0.00    +0.000 A 
ATOM     12  N   UNL     1      -1.302  12.388  21.865  0.00  0.00    +0.000 N 
ATOM     13  C   UNL     1      -1.053  12.156  20.431  0.00  0.00    +0.000 C 
ATOM     14  C   UNL     1      -2.220  12.477  19.463  0.00  0.00    +0.000 C 
ATOM     15  H   UNL     1      -6.478  13.787  19.305  0.00  0.00    +0.000 HD
ATOM     16  H   UNL     1      -0.635  11.893  22.455  0.00  0.00    +0.000 HD
ENDROOT
BRANCH  13  17
ATOM     17  C   UNL     1      -0.341  10.810  20.318  0.00  0.00    +0.000 A 
ATOM     18  C   UNL     1      -0.378   9.851  21.344  0.00  0.00    +0.000 A 
ATOM     19  C   UNL     1       0.404   8.690  21.284  0.00  0.00    +0.000 A 
ATOM     20  C   UNL     1       1.286   8.480  20.220  0.00  0.00    +0.000 A 
ATOM     21  C   UNL     1       1.338   9.456  19.207  0.00  0.00    +0.000 A 
ATOM     22  C   UNL     1       0.501  10.577  19.228  0.00  0.00    +0.000 A 
BRANCH  20  23
ATOM     23  C   UNL     1       2.274   7.326  20.177  0.00  0.00    +0.000 C 
BRANCH  23  24
ATOM     24  N   UNL     1       1.808   6.038  19.624  0.00  0.00    +0.000 NA
ATOM     25  C   UNL     1       2.897   5.217  19.067  0.00  0.00    +0.000 C 
ATOM     26  C   UNL     1       2.534   4.078  20.029  0.00  0.00    +0.000 C 
ATOM     27  C   UNL     1       1.620   5.079  20.736  0.00  0.00    +0.000 C 
ENDBRANCH  23  24
ENDBRANCH  20  23
ENDBRANCH  13  17
BRANCH  14  28
ATOM     28  C   UNL     1      -2.491  11.443  18.367  0.00  0.00    +0.000 A 
ATOM     29  C   UNL     1      -3.203  10.268  18.659  0.00  0.00    +0.000 A 
ATOM     30  C   UNL     1      -3.627   9.414  17.644  0.00  0.00    +0.000 A 
ATOM     31  C   UNL     1      -3.337   9.721  16.321  0.00  0.00    +0.000 A 
ATOM     32  C   UNL     1      -2.568  10.844  16.017  0.00  0.00    +0.000 A 
ATOM     33  C   UNL     1      -2.130  11.695  17.036  0.00  0.00    +0.000 A 
ENDBRANCH  14  28
TORSDOF 4
ENDMDL
MODEL 8
REMARK VINA RESULT:      -6.6      4.011      7.766
REMARK  Name = 
REMARK  4 active torsions:
REMARK  status: ('A' for Active; 'I' for Inactive)
REMARK    1  A    between atoms: C_13  and  C_14
REMARK    2  A    between atoms: C_17  and  C_18
REMARK    3  A    between atoms: C_18  and  N_19
REMARK    4  A    between atoms: C_25  and  C_26
REMARK                            x       y       z     vdW  Elec       q    Type
REMARK                         _______ _______ _______ _____ _____    ______ ____
ROOT
ATOM      1  O   UNL     1       3.542  16.133  16.682  0.00  0.00    +0.000 OA
ATOM      2  C   UNL     1       3.057  15.458  17.587  0.00  0.00    +0.000 A 
ATOM      3  N   UNL     1       3.189  14.094  17.641  0.00  0.00    +0.000 N 
ATOM      4  N   UNL     1       2.602  13.272  18.554  0.00  0.00    +0.000 NA
ATOM      5  C   UNL     1       1.893  13.811  19.505  0.00  0.00    +0.000 A 
ATOM      6  C   UNL     1       1.768  15.258  19.668  0.00  0.00    +0.000 A 
ATOM      7  C   UNL     1       1.123  15.782  20.781  0.00  0.00    +0.000 A 
ATOM      8  C   UNL     1       1.039  17.187  20.885  0.00  0.00    +0.000 A 
ATOM      9  C   UNL     1       1.552  18.018  19.880  0.00  0.00    +0.000 A 
ATOM     10  C   UNL     1       2.200  17.463  18.787  0.00  0.00    +0.000 A 
ATOM     11  C   UNL     1       2.318  16.082  18.692  0.00  0.00    +0.000 A 
ATOM     12  N   UNL     1       0.734  14.999  21.852  0.00  0.00    +0.000 N 
ATOM     13  C   UNL     1       0.436  13.570  21.655  0.00  0.00    +0.000 C 
ATOM     14  C   UNL     1       1.103  12.884  20.436  0.00  0.00    +0.000 C 
ATOM     15  H   UNL     1       3.669  13.639  16.869  0.00  0.00    +0.000 HD
ATOM     16  H   UNL     1       0.057  15.451  22.466  0.00  0.00    +0.000 HD
ENDROOT
BRANCH  13  17
ATOM     17  C   UNL     1      -1.064  13.396  21.878  0.00  0.00    +0.000 A 
ATOM     18  C   UNL     1      -1.594  12.341  22.638  0.00  0.00    +0.000 A 
ATOM     19  C   UNL     1      -2.975  12.113  22.706  0.00  0.00    +0.000 A 
ATOM     20  C   UNL     1      -3.863  12.904  21.971  0.00  0.00    +0.000 A 
ATOM     21  C   UNL     1      -3.326  13.945  21.191  0.00  0.00    +0.000 A 
ATOM     22  C   UNL     1      -1.954  14.221  21.185  0.00  0.00    +0.000 A 
BRANCH  20  23
ATOM     23  C   UNL     1      -5.351  12.608  21.874  0.00  0.00    +0.000 C 
BRANCH  23  24
ATOM     24  N   UNL     1      -6.130  12.569  23.129  0.00  0.00    +0.000 NA
ATOM     25  C   UNL     1      -6.255  13.884  23.778  0.00  0.00    +0.000 C 
ATOM     26  C   UNL     1      -7.784  13.780  23.705  0.00  0.00    +0.000 C 
ATOM     27  C   UNL     1      -7.573  12.568  22.796  0.00  0.00    +0.000 C 
ENDBRANCH  23  24
ENDBRANCH  20  23
ENDBRANCH  13  17
BRANCH  14  28
ATOM     28  C   UNL     1       0.204  11.967  19.602  0.00  0.00    +0.000 A 
ATOM     29  C   UNL     1       0.171  10.584  19.853  0.00  0.00    +0.000 A 
ATOM     30  C   UNL     1      -0.777   9.767  19.243  0.00  0.00    +0.000 A 
ATOM     31  C   UNL     1      -1.702  10.321  18.367  0.00  0.00    +0.000 A 
ATOM     32  C   UNL     1      -1.638  11.677  18.050  0.00  0.00    +0.000 A 
ATOM     33  C   UNL     1      -0.678  12.497  18.650  0.00  0.00    +0.000 A 
ENDBRANCH  14  28
TORSDOF 4
ENDMDL
MODEL 9
REMARK VINA RESULT:      -6.5      4.971      6.649
REMARK  Name = 
REMARK  4 active torsions:
REMARK  status: ('A' for Active; 'I' for Inactive)
REMARK    1  A    between atoms: C_13  and  C_14
REMARK    2  A    between atoms: C_17  and  C_18
REMARK    3  A    between atoms: C_18  and  N_19
REMARK    4  A    between atoms: C_25  and  C_26
REMARK                            x       y       z     vdW  Elec       q    Type
REMARK                         _______ _______ _______ _____ _____    ______ ____
ROOT
ATOM      1  O   UNL     1      -4.340  11.670  18.461  0.00  0.00    +0.000 OA
ATOM      2  C   UNL     1      -3.326  12.087  19.016  0.00  0.00    +0.000 A 
ATOM      3  N   UNL     1      -3.347  13.136  19.898  0.00  0.00    +0.000 N 
ATOM      4  N   UNL     1      -2.257  13.715  20.475  0.00  0.00    +0.000 NA
ATOM      5  C   UNL     1      -1.083  13.206  20.226  0.00  0.00    +0.000 A 
ATOM      6  C   UNL     1      -0.904  12.002  19.416  0.00  0.00    +0.000 A 
ATOM      7  C   UNL     1       0.351  11.419  19.303  0.00  0.00    +0.000 A 
ATOM      8  C   UNL     1       0.460  10.256  18.511  0.00  0.00    +0.000 A 
ATOM      9  C   UNL     1      -0.652   9.736  17.833  0.00  0.00    +0.000 A 
ATOM     10  C   UNL     1      -1.893  10.337  17.977  0.00  0.00    +0.000 A 
ATOM     11  C   UNL     1      -2.018  11.462  18.781  0.00  0.00    +0.000 A 
ATOM     12  N   UNL     1       1.430  11.821  20.066  0.00  0.00    +0.000 N 
ATOM     13  C   UNL     1       1.500  13.200  20.580  0.00  0.00    +0.000 C 
ATOM     14  C   UNL     1       0.153  13.949  20.744  0.00  0.00    +0.000 C 
ATOM     15  H   UNL     1      -4.237  13.604  20.050  0.00  0.00    +0.000 HD
ATOM     16  H   UNL     1       2.329  11.500  19.708  0.00  0.00    +0.000 HD
ENDROOT
BRANCH  13  17
ATOM     17  C   UNL     1       2.650  13.888  19.848  0.00  0.00    +0.000 A 
ATOM     18  C   UNL     1       2.821  13.791  18.458  0.00  0.00    +0.000 A 
ATOM     19  C   UNL     1       3.963  14.302  17.827  0.00  0.00    +0.000 A 
ATOM     20  C   UNL     1       4.994  14.876  18.576  0.00  0.00    +0.000 A 
ATOM     21  C   UNL     1       4.829  14.949  19.972  0.00  0.00    +0.000 A 
ATOM     22  C   UNL     1       3.655  14.509  20.594  0.00  0.00    +0.000 A 
BRANCH  20  23
ATOM     23  C   UNL     1       6.322  15.300  17.972  0.00  0.00    +0.000 C 
BRANCH  23  24
ATOM     24  N   UNL     1       7.554  14.993  18.726  0.00  0.00    +0.000 NA
ATOM     25  C   UNL     1       8.212  13.751  18.285  0.00  0.00    +0.000 C 
ATOM     26  C   UNL     1       9.493  14.536  17.974  0.00  0.00    +0.000 C 
ATOM     27  C   UNL     1       8.665  15.805  18.179  0.00  0.00    +0.000 C 
ENDBRANCH  23  24
ENDBRANCH  20  23
ENDBRANCH  13  17
BRANCH  14  28
ATOM     28  C   UNL     1       0.123  15.399  20.251  0.00  0.00    +0.000 A 
ATOM     29  C   UNL     1       0.486  16.449  21.111  0.00  0.00    +0.000 A 
ATOM     30  C   UNL     1       0.652  17.745  20.630  0.00  0.00    +0.000 A 
ATOM     31  C   UNL     1       0.451  18.010  19.281  0.00  0.00    +0.000 A 
ATOM     32  C   UNL     1       0.019  16.995  18.428  0.00  0.00    +0.000 A 
ATOM     33  C   UNL     1      -0.162  15.696  18.911  0.00  0.00    +0.000 A 
ENDBRANCH  14  28
TORSDOF 4
ENDMDL
