MODEL 1
REMARK VINA RESULT:      -8.5      0.000      0.000
REMARK  Name = 
REMARK  3 active torsions:
REMARK  status: ('A' for Active; 'I' for Inactive)
REMARK    1  A    between atoms: C_2  and  C_12
REMARK    2  A    between atoms: N_3  and  C_4
REMARK    3  A    between atoms: C_4  and  C_5
REMARK                            x       y       z     vdW  Elec       q    Type
REMARK                         _______ _______ _______ _____ _____    ______ ____
ROOT
ATOM      1  C   UNL     1       2.502   8.126  18.302  0.00  0.00    +0.000 A 
ATOM      2  C   UNL     1       3.471   7.515  17.524  0.00  0.00    +0.000 A 
ATOM      3  C   UNL     1       3.708   6.210  18.028  0.00  0.00    +0.000 A 
ATOM      4  C   UNL     1       4.532   5.152  17.611  0.00  0.00    +0.000 A 
ATOM      5  C   UNL     1       4.519   3.948  18.320  0.00  0.00    +0.000 A 
ATOM      6  C   UNL     1       3.705   3.794  19.447  0.00  0.00    +0.000 A 
ATOM      7  C   UNL     1       3.653   2.601  20.176  0.00  0.00    +0.000 A 
ATOM      8  C   UNL     1       2.819   2.513  21.289  0.00  0.00    +0.000 A 
ATOM      9  C   UNL     1       2.063   3.625  21.641  0.00  0.00    +0.000 A 
ATOM     10  N   UNL     1       2.071   4.802  20.970  0.00  0.00    +0.000 NA
ATOM     11  C   UNL     1       2.888   4.855  19.892  0.00  0.00    +0.000 A 
ATOM     12  C   UNL     1       2.905   6.051  19.156  0.00  0.00    +0.000 A 
ATOM     13  N   UNL     1       2.213   7.234  19.323  0.00  0.00    +0.000 N 
ATOM     14  H   UNL     1       1.553   7.404  20.071  0.00  0.00    +0.000 HD
ENDROOT
BRANCH   1  16
ATOM     15  O   UNL     1       2.348  10.335  17.516  0.00  0.00    +0.000 OA
ATOM     16  C   UNL     1       1.860   9.419  18.170  0.00  0.00    +0.000 C 
ATOM     17  N   UNL     1       0.672   9.546  18.860  0.00  0.00    +0.000 N 
ATOM     18  H   UNL     1       0.423   8.827  19.522  0.00  0.00    +0.000 HD
BRANCH  17  19
ATOM     19  C   UNL     1      -0.011  10.811  18.976  0.00  0.00    +0.000 C 
BRANCH  19  20
ATOM     20  C   UNL     1      -1.391  10.760  18.367  0.00  0.00    +0.000 A 
ATOM     21  C   UNL     1      -1.632   9.964  17.236  0.00  0.00    +0.000 A 
ATOM     22  C   UNL     1      -2.894   9.934  16.638  0.00  0.00    +0.000 A 
ATOM     23  C   UNL     1      -3.937  10.688  17.170  0.00  0.00    +0.000 A 
ATOM     24  C   UNL     1      -3.716  11.462  18.307  0.00  0.00    +0.000 A 
ATOM     25 CL   UNL     1      -5.007  12.390  18.968  0.00  0.00    +0.000 Cl
ATOM     26  C   UNL     1      -2.454  11.499  18.909  0.00  0.00    +0.000 A 
ENDBRANCH  19  20
ENDBRANCH  17  19
ENDBRANCH   1  16
TORSDOF 3
ENDMDL
MODEL 2
REMARK VINA RESULT:      -8.4      1.065      1.448
REMARK  Name = 
REMARK  3 active torsions:
REMARK  status: ('A' for Active; 'I' for Inactive)
REMARK    1  A    between atoms: C_2  and  C_12
REMARK    2  A    between atoms: N_3  and  C_4
REMARK    3  A    between atoms: C_4  and  C_5
REMARK                            x       y       z     vdW  Elec       q    Type
REMARK                         _______ _______ _______ _____ _____    ______ ____
ROOT
ATOM      1  C   UNL     1       2.445   8.190  18.313  0.00  0.00    +0.000 A 
ATOM      2  C   UNL     1       3.339   7.563  17.461  0.00  0.00    +0.000 A 
ATOM      3  C   UNL     1       3.574   6.246  17.932  0.00  0.00    +0.000 A 
ATOM      4  C   UNL     1       4.337   5.172  17.446  0.00  0.00    +0.000 A 
ATOM      5  C   UNL     1       4.340   3.959  18.142  0.00  0.00    +0.000 A 
ATOM      6  C   UNL     1       3.604   3.813  19.321  0.00  0.00    +0.000 A 
ATOM      7  C   UNL     1       3.570   2.612  20.040  0.00  0.00    +0.000 A 
ATOM      8  C   UNL     1       2.815   2.533  21.207  0.00  0.00    +0.000 A 
ATOM      9  C   UNL     1       2.117   3.660  21.625  0.00  0.00    +0.000 A 
ATOM     10  N   UNL     1       2.111   4.845  20.968  0.00  0.00    +0.000 NA
ATOM     11  C   UNL     1       2.851   4.890  19.835  0.00  0.00    +0.000 A 
ATOM     12  C   UNL     1       2.849   6.095  19.113  0.00  0.00    +0.000 A 
ATOM     13  N   UNL     1       2.204   7.294  19.342  0.00  0.00    +0.000 N 
ATOM     14  H   UNL     1       1.603   7.472  20.136  0.00  0.00    +0.000 HD
ENDROOT
BRANCH   1  16
ATOM     15  O   UNL     1       2.306  10.418  17.577  0.00  0.00    +0.000 OA
ATOM     16  C   UNL     1       1.831   9.502  18.240  0.00  0.00    +0.000 C 
ATOM     17  N   UNL     1       0.687   9.645  18.999  0.00  0.00    +0.000 N 
ATOM     18  H   UNL     1       0.457   8.920  19.660  0.00  0.00    +0.000 HD
BRANCH  17  19
ATOM     19  C   UNL     1       0.047  10.926  19.176  0.00  0.00    +0.000 C 
BRANCH  19  20
ATOM     20  C   UNL     1      -1.303  10.974  18.502  0.00  0.00    +0.000 A 
ATOM     21  C   UNL     1      -2.365  11.668  19.104  0.00  0.00    +0.000 A 
ATOM     22  C   UNL     1      -3.630  11.692  18.512  0.00  0.00    +0.000 A 
ATOM     23  C   UNL     1      -3.848  11.035  17.303  0.00  0.00    +0.000 A 
ATOM     24  C   UNL     1      -2.796  10.363  16.685  0.00  0.00    +0.000 A 
ATOM     25 CL   UNL     1      -3.064   9.556  15.189  0.00  0.00    +0.000 Cl
ATOM     26  C   UNL     1      -1.527  10.333  17.273  0.00  0.00    +0.000 A 
ENDBRANCH  19  20
ENDBRANCH  17  19
ENDBRANCH   1  16
TORSDOF 3
ENDMDL
MODEL 3
REMARK VINA RESULT:      -8.4      4.199      8.191
REMARK  Name = 
REMARK  3 active torsions:
REMARK  status: ('A' for Active; 'I' for Inactive)
REMARK    1  A    between atoms: C_2  and  C_12
REMARK    2  A    between atoms: N_3  and  C_4
REMARK    3  A    between atoms: C_4  and  C_5
REMARK                            x       y       z     vdW  Elec       q    Type
REMARK                         _______ _______ _______ _____ _____    ______ ____
ROOT
ATOM      1  C   UNL     1       2.965   6.756  18.904  0.00  0.00    +0.000 A 
ATOM      2  C   UNL     1       2.565   7.667  17.941  0.00  0.00    +0.000 A 
ATOM      3  C   UNL     1       1.755   8.658  18.555  0.00  0.00    +0.000 A 
ATOM      4  C   UNL     1       1.132   9.822  18.078  0.00  0.00    +0.000 A 
ATOM      5  C   UNL     1       0.408  10.627  18.963  0.00  0.00    +0.000 A 
ATOM      6  C   UNL     1       0.288  10.274  20.311  0.00  0.00    +0.000 A 
ATOM      7  C   UNL     1      -0.416  11.060  21.231  0.00  0.00    +0.000 A 
ATOM      8  C   UNL     1      -0.496  10.652  22.561  0.00  0.00    +0.000 A 
ATOM      9  C   UNL     1       0.130   9.467  22.931  0.00  0.00    +0.000 A 
ATOM     10  N   UNL     1       0.827   8.671  22.084  0.00  0.00    +0.000 NA
ATOM     11  C   UNL     1       0.890   9.096  20.800  0.00  0.00    +0.000 A 
ATOM     12  C   UNL     1       1.626   8.309  19.898  0.00  0.00    +0.000 A 
ATOM     13  N   UNL     1       2.334   7.138  20.078  0.00  0.00    +0.000 N 
ATOM     14  H   UNL     1       2.412   6.652  20.962  0.00  0.00    +0.000 HD
ENDROOT
BRANCH   1  16
ATOM     15  O   UNL     1       4.765   5.418  19.604  0.00  0.00    +0.000 OA
ATOM     16  C   UNL     1       3.848   5.610  18.813  0.00  0.00    +0.000 C 
ATOM     17  N   UNL     1       3.592   4.769  17.749  0.00  0.00    +0.000 N 
ATOM     18  H   UNL     1       2.950   5.079  17.037  0.00  0.00    +0.000 HD
BRANCH  17  19
ATOM     19  C   UNL     1       4.473   3.678  17.411  0.00  0.00    +0.000 C 
BRANCH  19  20
ATOM     20  C   UNL     1       5.412   4.046  16.288  0.00  0.00    +0.000 A 
ATOM     21  C   UNL     1       6.533   4.853  16.543  0.00  0.00    +0.000 A 
ATOM     22  C   UNL     1       7.392   5.233  15.509  0.00  0.00    +0.000 A 
ATOM     23  C   UNL     1       7.151   4.801  14.207  0.00  0.00    +0.000 A 
ATOM     24  C   UNL     1       6.056   3.980  13.946  0.00  0.00    +0.000 A 
ATOM     25 CL   UNL     1       5.761   3.442  12.337  0.00  0.00    +0.000 Cl
ATOM     26  C   UNL     1       5.190   3.598  14.976  0.00  0.00    +0.000 A 
ENDBRANCH  19  20
ENDBRANCH  17  19
ENDBRANCH   1  16
TORSDOF 3
ENDMDL
MODEL 4
REMARK VINA RESULT:      -8.3      2.929      8.274
REMARK  Name = 
REMARK  3 active torsions:
REMARK  status: ('A' for Active; 'I' for Inactive)
REMARK    1  A    between atoms: C_2  and  C_12
REMARK    2  A    between atoms: N_3  and  C_4
REMARK    3  A    between atoms: C_4  and  C_5
REMARK                            x       y       z     vdW  Elec       q    Type
REMARK                         _______ _______ _______ _____ _____    ______ ____
ROOT
ATOM      1  C   UNL     1       0.719   9.657  18.609  0.00  0.00    +0.000 A 
ATOM      2  C   UNL     1       0.476  10.451  19.716  0.00  0.00    +0.000 A 
ATOM      3  C   UNL     1      -0.802  11.052  19.580  0.00  0.00    +0.000 A 
ATOM      4  C   UNL     1      -1.563  11.894  20.406  0.00  0.00    +0.000 A 
ATOM      5  C   UNL     1      -2.835  12.301  19.990  0.00  0.00    +0.000 A 
ATOM      6  C   UNL     1      -3.345  11.889  18.756  0.00  0.00    +0.000 A 
ATOM      7  C   UNL     1      -4.618  12.263  18.309  0.00  0.00    +0.000 A 
ATOM      8  C   UNL     1      -5.068  11.816  17.069  0.00  0.00    +0.000 A 
ATOM      9  C   UNL     1      -4.229  11.009  16.309  0.00  0.00    +0.000 A 
ATOM     10  N   UNL     1      -2.991  10.614  16.693  0.00  0.00    +0.000 NA
ATOM     11  C   UNL     1      -2.584  11.061  17.904  0.00  0.00    +0.000 A 
ATOM     12  C   UNL     1      -1.315  10.651  18.347  0.00  0.00    +0.000 A 
ATOM     13  N   UNL     1      -0.365   9.839  17.763  0.00  0.00    +0.000 N 
ATOM     14  H   UNL     1      -0.470   9.404  16.856  0.00  0.00    +0.000 HD
ENDROOT
BRANCH   1  16
ATOM     15  O   UNL     1       2.464   8.868  17.248  0.00  0.00    +0.000 OA
ATOM     16  C   UNL     1       1.834   8.784  18.297  0.00  0.00    +0.000 C 
ATOM     17  N   UNL     1       2.111   7.836  19.260  0.00  0.00    +0.000 N 
ATOM     18  H   UNL     1       1.445   7.701  20.005  0.00  0.00    +0.000 HD
BRANCH  17  19
ATOM     19  C   UNL     1       3.073   6.784  19.039  0.00  0.00    +0.000 C 
BRANCH  19  20
ATOM     20  C   UNL     1       2.427   5.420  19.070  0.00  0.00    +0.000 A 
ATOM     21  C   UNL     1       2.010   4.812  17.874  0.00  0.00    +0.000 A 
ATOM     22  C   UNL     1       1.377   3.566  17.888  0.00  0.00    +0.000 A 
ATOM     23  C   UNL     1       1.166   2.904  19.096  0.00  0.00    +0.000 A 
ATOM     24  C   UNL     1       1.597   3.487  20.285  0.00  0.00    +0.000 A 
ATOM     25 CL   UNL     1       1.340   2.666  21.776  0.00  0.00    +0.000 Cl
ATOM     26  C   UNL     1       2.228   4.735  20.279  0.00  0.00    +0.000 A 
ENDBRANCH  19  20
ENDBRANCH  17  19
ENDBRANCH   1  16
TORSDOF 3
ENDMDL
MODEL 5
REMARK VINA RESULT:      -8.3      1.616      1.900
REMARK  Name = 
REMARK  3 active torsions:
REMARK  status: ('A' for Active; 'I' for Inactive)
REMARK    1  A    between atoms: C_2  and  C_12
REMARK    2  A    between atoms: N_3  and  C_4
REMARK    3  A    between atoms: C_4  and  C_5
REMARK                            x       y       z     vdW  Elec       q    Type
REMARK                         _______ _______ _______ _____ _____    ______ ____
ROOT
ATOM      1  C   UNL     1       2.597   7.992  17.975  0.00  0.00    +0.000 A 
ATOM      2  C   UNL     1       3.777   7.589  17.372  0.00  0.00    +0.000 A 
ATOM      3  C   UNL     1       3.858   6.173  17.423  0.00  0.00    +0.000 A 
ATOM      4  C   UNL     1       4.791   5.245  16.933  0.00  0.00    +0.000 A 
ATOM      5  C   UNL     1       4.567   3.878  17.124  0.00  0.00    +0.000 A 
ATOM      6  C   UNL     1       3.433   3.432  17.810  0.00  0.00    +0.000 A 
ATOM      7  C   UNL     1       3.165   2.072  18.010  0.00  0.00    +0.000 A 
ATOM      8  C   UNL     1       2.015   1.694  18.700  0.00  0.00    +0.000 A 
ATOM      9  C   UNL     1       1.167   2.689  19.173  0.00  0.00    +0.000 A 
ATOM     10  N   UNL     1       1.375   4.018  19.004  0.00  0.00    +0.000 NA
ATOM     11  C   UNL     1       2.498   4.353  18.327  0.00  0.00    +0.000 A 
ATOM     12  C   UNL     1       2.734   5.721  18.111  0.00  0.00    +0.000 A 
ATOM     13  N   UNL     1       2.006   6.839  18.466  0.00  0.00    +0.000 N 
ATOM     14  H   UNL     1       1.135   6.808  18.981  0.00  0.00    +0.000 HD
ENDROOT
BRANCH   1  16
ATOM     15  O   UNL     1       2.477  10.304  17.572  0.00  0.00    +0.000 OA
ATOM     16  C   UNL     1       2.012   9.310  18.121  0.00  0.00    +0.000 C 
ATOM     17  N   UNL     1       0.909   9.363  18.948  0.00  0.00    +0.000 N 
ATOM     18  H   UNL     1       0.692   8.554  19.509  0.00  0.00    +0.000 HD
BRANCH  17  19
ATOM     19  C   UNL     1       0.307  10.615  19.337  0.00  0.00    +0.000 C 
BRANCH  19  20
ATOM     20  C   UNL     1      -1.039  10.816  18.685  0.00  0.00    +0.000 A 
ATOM     21  C   UNL     1      -2.003  11.633  19.298  0.00  0.00    +0.000 A 
ATOM     22  C   UNL     1      -3.266  11.800  18.727  0.00  0.00    +0.000 A 
ATOM     23  C   UNL     1      -3.580  11.165  17.527  0.00  0.00    +0.000 A 
ATOM     24  C   UNL     1      -2.624  10.372  16.898  0.00  0.00    +0.000 A 
ATOM     25 CL   UNL     1      -3.010   9.591  15.413  0.00  0.00    +0.000 Cl
ATOM     26  C   UNL     1      -1.358  10.197  17.466  0.00  0.00    +0.000 A 
ENDBRANCH  19  20
ENDBRANCH  17  19
ENDBRANCH   1  16
TORSDOF 3
ENDMDL
MODEL 6
REMARK VINA RESULT:      -8.2      1.267      1.272
REMARK  Name = 
REMARK  3 active torsions:
REMARK  status: ('A' for Active; 'I' for Inactive)
REMARK    1  A    between atoms: C_2  and  C_12
REMARK    2  A    between atoms: N_3  and  C_4
REMARK    3  A    between atoms: C_4  and  C_5
REMARK                            x       y       z     vdW  Elec       q    Type
REMARK                         _______ _______ _______ _____ _____    ______ ____
ROOT
ATOM      1  C   UNL     1       2.583   8.032  17.901  0.00  0.00    +0.000 A 
ATOM      2  C   UNL     1       3.832   7.663  17.432  0.00  0.00    +0.000 A 
ATOM      3  C   UNL     1       3.948   6.250  17.497  0.00  0.00    +0.000 A 
ATOM      4  C   UNL     1       4.955   5.348  17.116  0.00  0.00    +0.000 A 
ATOM      5  C   UNL     1       4.750   3.976  17.287  0.00  0.00    +0.000 A 
ATOM      6  C   UNL     1       3.561   3.498  17.846  0.00  0.00    +0.000 A 
ATOM      7  C   UNL     1       3.311   2.131  18.020  0.00  0.00    +0.000 A 
ATOM      8  C   UNL     1       2.105   1.721  18.582  0.00  0.00    +0.000 A 
ATOM      9  C   UNL     1       1.182   2.692  18.956  0.00  0.00    +0.000 A 
ATOM     10  N   UNL     1       1.369   4.025  18.806  0.00  0.00    +0.000 NA
ATOM     11  C   UNL     1       2.549   4.393  18.254  0.00  0.00    +0.000 A 
ATOM     12  C   UNL     1       2.768   5.766  18.060  0.00  0.00    +0.000 A 
ATOM     13  N   UNL     1       1.974   6.863  18.329  0.00  0.00    +0.000 N 
ATOM     14  H   UNL     1       1.054   6.808  18.745  0.00  0.00    +0.000 HD
ENDROOT
BRANCH   1  16
ATOM     15  O   UNL     1       2.456  10.345  17.503  0.00  0.00    +0.000 OA
ATOM     16  C   UNL     1       1.948   9.334  17.976  0.00  0.00    +0.000 C 
ATOM     17  N   UNL     1       0.742   9.348  18.648  0.00  0.00    +0.000 N 
ATOM     18  H   UNL     1       0.474   8.528  19.169  0.00  0.00    +0.000 HD
BRANCH  17  19
ATOM     19  C   UNL     1       0.061  10.580  18.962  0.00  0.00    +0.000 C 
BRANCH  19  20
ATOM     20  C   UNL     1      -1.325  10.620  18.366  0.00  0.00    +0.000 A 
ATOM     21  C   UNL     1      -1.625   9.850  17.230  0.00  0.00    +0.000 A 
ATOM     22  C   UNL     1      -2.892   9.904  16.643  0.00  0.00    +0.000 A 
ATOM     23  C   UNL     1      -3.882  10.716  17.192  0.00  0.00    +0.000 A 
ATOM     24  C   UNL     1      -3.603  11.465  18.333  0.00  0.00    +0.000 A 
ATOM     25 CL   UNL     1      -4.828  12.465  19.013  0.00  0.00    +0.000 Cl
ATOM     26  C   UNL     1      -2.336  11.419  18.923  0.00  0.00    +0.000 A 
ENDBRANCH  19  20
ENDBRANCH  17  19
ENDBRANCH   1  16
TORSDOF 3
ENDMDL
MODEL 7
REMARK VINA RESULT:      -8.2      2.397      2.976
REMARK  Name = 
REMARK  3 active torsions:
REMARK  status: ('A' for Active; 'I' for Inactive)
REMARK    1  A    between atoms: C_2  and  C_12
REMARK    2  A    between atoms: N_3  and  C_4
REMARK    3  A    between atoms: C_4  and  C_5
REMARK                            x       y       z     vdW  Elec       q    Type
REMARK                         _______ _______ _______ _____ _____    ______ ____
ROOT
ATOM      1  C   UNL     1       2.680   7.976  17.896  0.00  0.00    +0.000 A 
ATOM      2  C   UNL     1       3.871   7.579  17.312  0.00  0.00    +0.000 A 
ATOM      3  C   UNL     1       3.961   6.164  17.370  0.00  0.00    +0.000 A 
ATOM      4  C   UNL     1       4.907   5.239  16.898  0.00  0.00    +0.000 A 
ATOM      5  C   UNL     1       4.689   3.872  17.091  0.00  0.00    +0.000 A 
ATOM      6  C   UNL     1       3.548   3.421  17.762  0.00  0.00    +0.000 A 
ATOM      7  C   UNL     1       3.286   2.061  17.963  0.00  0.00    +0.000 A 
ATOM      8  C   UNL     1       2.129   1.678  18.638  0.00  0.00    +0.000 A 
ATOM      9  C   UNL     1       1.267   2.669  19.095  0.00  0.00    +0.000 A 
ATOM     10  N   UNL     1       1.469   3.998  18.924  0.00  0.00    +0.000 NA
ATOM     11  C   UNL     1       2.599   4.338  18.261  0.00  0.00    +0.000 A 
ATOM     12  C   UNL     1       2.829   5.707  18.043  0.00  0.00    +0.000 A 
ATOM     13  N   UNL     1       2.089   6.821  18.383  0.00  0.00    +0.000 N 
ATOM     14  H   UNL     1       1.211   6.787  18.885  0.00  0.00    +0.000 HD
ENDROOT
BRANCH   1  16
ATOM     15  O   UNL     1       2.572  10.292  17.512  0.00  0.00    +0.000 OA
ATOM     16  C   UNL     1       2.084   9.291  18.027  0.00  0.00    +0.000 C 
ATOM     17  N   UNL     1       0.942   9.332  18.801  0.00  0.00    +0.000 N 
ATOM     18  H   UNL     1       0.702   8.516  19.343  0.00  0.00    +0.000 HD
BRANCH  17  19
ATOM     19  C   UNL     1       0.319  10.578  19.174  0.00  0.00    +0.000 C 
BRANCH  19  20
ATOM     20  C   UNL     1      -0.146  10.562  20.610  0.00  0.00    +0.000 A 
ATOM     21  C   UNL     1       0.136   9.457  21.429  0.00  0.00    +0.000 A 
ATOM     22  C   UNL     1      -0.317   9.410  22.750  0.00  0.00    +0.000 A 
ATOM     23  C   UNL     1      -1.048  10.474  23.275  0.00  0.00    +0.000 A 
ATOM     24  C   UNL     1      -1.312  11.586  22.479  0.00  0.00    +0.000 A 
ATOM     25 CL   UNL     1      -2.210  12.903  23.130  0.00  0.00    +0.000 Cl
ATOM     26  C   UNL     1      -0.864  11.638  21.156  0.00  0.00    +0.000 A 
ENDBRANCH  19  20
ENDBRANCH  17  19
ENDBRANCH   1  16
TORSDOF 3
ENDMDL
MODEL 8
REMARK VINA RESULT:      -8.2      5.293      8.328
REMARK  Name = 
REMARK  3 active torsions:
REMARK  status: ('A' for Active; 'I' for Inactive)
REMARK    1  A    between atoms: C_2  and  C_12
REMARK    2  A    between atoms: N_3  and  C_4
REMARK    3  A    between atoms: C_4  and  C_5
REMARK                            x       y       z     vdW  Elec       q    Type
REMARK                         _______ _______ _______ _____ _____    ______ ____
ROOT
ATOM      1  C   UNL     1       5.218   5.643  16.740  0.00  0.00    +0.000 A 
ATOM      2  C   UNL     1       4.651   6.761  17.328  0.00  0.00    +0.000 A 
ATOM      3  C   UNL     1       3.676   6.340  18.269  0.00  0.00    +0.000 A 
ATOM      4  C   UNL     1       2.845   7.029  19.168  0.00  0.00    +0.000 A 
ATOM      5  C   UNL     1       1.991   6.307  20.007  0.00  0.00    +0.000 A 
ATOM      6  C   UNL     1       1.947   4.911  19.947  0.00  0.00    +0.000 A 
ATOM      7  C   UNL     1       1.116   4.152  20.779  0.00  0.00    +0.000 A 
ATOM      8  C   UNL     1       1.121   2.763  20.670  0.00  0.00    +0.000 A 
ATOM      9  C   UNL     1       1.957   2.174  19.728  0.00  0.00    +0.000 A 
ATOM     10  N   UNL     1       2.784   2.859  18.902  0.00  0.00    +0.000 NA
ATOM     11  C   UNL     1       2.759   4.206  19.034  0.00  0.00    +0.000 A 
ATOM     12  C   UNL     1       3.622   4.949  18.211  0.00  0.00    +0.000 A 
ATOM     13  N   UNL     1       4.535   4.552  17.255  0.00  0.00    +0.000 N 
ATOM     14  H   UNL     1       4.707   3.588  17.000  0.00  0.00    +0.000 HD
ENDROOT
BRANCH   1  16
ATOM     15  O   UNL     1       7.336   6.169  15.870  0.00  0.00    +0.000 OA
ATOM     16  C   UNL     1       6.297   5.524  15.779  0.00  0.00    +0.000 C 
ATOM     17  N   UNL     1       6.049   4.651  14.740  0.00  0.00    +0.000 N 
ATOM     18  H   UNL     1       5.112   4.297  14.624  0.00  0.00    +0.000 HD
BRANCH  17  19
ATOM     19  C   UNL     1       6.939   4.539  13.610  0.00  0.00    +0.000 C 
BRANCH  19  20
ATOM     20  C   UNL     1       6.418   3.565  12.582  0.00  0.00    +0.000 A 
ATOM     21  C   UNL     1       7.274   2.598  12.032  0.00  0.00    +0.000 A 
ATOM     22  C   UNL     1       6.818   1.712  11.052  0.00  0.00    +0.000 A 
ATOM     23  C   UNL     1       5.495   1.772  10.618  0.00  0.00    +0.000 A 
ATOM     24  C   UNL     1       4.631   2.712  11.175  0.00  0.00    +0.000 A 
ATOM     25 CL   UNL     1       2.995   2.782  10.642  0.00  0.00    +0.000 Cl
ATOM     26  C   UNL     1       5.081   3.603  12.153  0.00  0.00    +0.000 A 
ENDBRANCH  19  20
ENDBRANCH  17  19
ENDBRANCH   1  16
TORSDOF 3
ENDMDL
MODEL 9
REMARK VINA RESULT:      -8.2      2.081      2.771
REMARK  Name = 
REMARK  3 active torsions:
REMARK  status: ('A' for Active; 'I' for Inactive)
REMARK    1  A    between atoms: C_2  and  C_12
REMARK    2  A    between atoms: N_3  and  C_4
REMARK    3  A    between atoms: C_4  and  C_5
REMARK                            x       y       z     vdW  Elec       q    Type
REMARK                         _______ _______ _______ _____ _____    ______ ____
ROOT
ATOM      1  C   UNL     1       2.482   8.070  18.130  0.00  0.00    +0.000 A 
ATOM      2  C   UNL     1       3.443   7.451  17.350  0.00  0.00    +0.000 A 
ATOM      3  C   UNL     1       3.691   6.154  17.870  0.00  0.00    +0.000 A 
ATOM      4  C   UNL     1       4.513   5.093  17.459  0.00  0.00    +0.000 A 
ATOM      5  C   UNL     1       4.513   3.899  18.187  0.00  0.00    +0.000 A 
ATOM      6  C   UNL     1       3.715   3.761  19.327  0.00  0.00    +0.000 A 
ATOM      7  C   UNL     1       3.676   2.579  20.075  0.00  0.00    +0.000 A 
ATOM      8  C   UNL     1       2.857   2.506  21.200  0.00  0.00    +0.000 A 
ATOM      9  C   UNL     1       2.102   3.621  21.545  0.00  0.00    +0.000 A 
ATOM     10  N   UNL     1       2.097   4.787  20.855  0.00  0.00    +0.000 NA
ATOM     11  C   UNL     1       2.900   4.826  19.765  0.00  0.00    +0.000 A 
ATOM     12  C   UNL     1       2.903   6.011  19.011  0.00  0.00    +0.000 A 
ATOM     13  N   UNL     1       2.209   7.194  19.169  0.00  0.00    +0.000 N 
ATOM     14  H   UNL     1       1.558   7.373  19.922  0.00  0.00    +0.000 HD
ENDROOT
BRANCH   1  16
ATOM     15  O   UNL     1       2.390  10.325  17.474  0.00  0.00    +0.000 OA
ATOM     16  C   UNL     1       1.833   9.359  17.986  0.00  0.00    +0.000 C 
ATOM     17  N   UNL     1       0.552   9.420  18.496  0.00  0.00    +0.000 N 
ATOM     18  H   UNL     1       0.226   8.654  19.064  0.00  0.00    +0.000 HD
BRANCH  17  19
ATOM     19  C   UNL     1      -0.172  10.663  18.589  0.00  0.00    +0.000 C 
BRANCH  19  20
ATOM     20  C   UNL     1      -0.561  10.979  20.012  0.00  0.00    +0.000 A 
ATOM     21  C   UNL     1      -1.313  12.130  20.298  0.00  0.00    +0.000 A 
ATOM     22  C   UNL     1      -1.651  12.457  21.614  0.00  0.00    +0.000 A 
ATOM     23  C   UNL     1      -1.253  11.630  22.662  0.00  0.00    +0.000 A 
ATOM     24  C   UNL     1      -0.528  10.472  22.388  0.00  0.00    +0.000 A 
ATOM     25 CL   UNL     1      -0.042   9.448  23.684  0.00  0.00    +0.000 Cl
ATOM     26  C   UNL     1      -0.184  10.141  21.074  0.00  0.00    +0.000 A 
ENDBRANCH  19  20
ENDBRANCH  17  19
ENDBRANCH   1  16
TORSDOF 3
ENDMDL
