MODEL 1
REMARK VINA RESULT:      -8.8      0.000      0.000
REMARK  Name = 
REMARK  8 active torsions:
REMARK  status: ('A' for Active; 'I' for Inactive)
REMARK    1  A    between atoms: C_1  and  C_2
REMARK    2  A    between atoms: C_5  and  C_6
REMARK    3  A    between atoms: C_7  and  S_8
REMARK    4  A    between atoms: S_8  and  N_11
REMARK    5  A    between atoms: C_15  and  C_16
REMARK    6  A    between atoms: C_16  and  N_17
REMARK    7  A    between atoms: C_18  and  C_20
REMARK    8  A    between atoms: N_22  and  C_23
REMARK                            x       y       z     vdW  Elec       q    Type
REMARK                         _______ _______ _______ _____ _____    ______ ____
ROOT
ATOM      1  N   UNL     1       3.105   3.710  19.321  0.00  0.00    +0.000 NA
ATOM      2  C   UNL     1       2.892   2.863  20.517  0.00  0.00    +0.000 C 
ATOM      3  C   UNL     1       1.433   3.072  20.881  0.00  0.00    +0.000 C 
ATOM      4  C   UNL     1       1.097   4.483  20.435  0.00  0.00    +0.000 C 
ATOM      5  C   UNL     1       2.142   4.862  19.381  0.00  0.00    +0.000 C 
ENDROOT
BRANCH   1   6
ATOM      6  S   UNL     1       3.347   2.914  17.822  0.00  0.00    +0.000 S 
ATOM      7  O   UNL     1       2.206   3.213  16.971  0.00  0.00    +0.000 OA
ATOM      8  O   UNL     1       3.758   1.556  18.092  0.00  0.00    +0.000 OA
BRANCH   6  15
ATOM      9  C   UNL     1       6.121   4.056  13.546  0.00  0.00    +0.000 C 
ATOM     10  C   UNL     1       5.993   4.214  15.031  0.00  0.00    +0.000 A 
ATOM     11  C   UNL     1       7.052   4.693  15.800  0.00  0.00    +0.000 A 
ATOM     12  C   UNL     1       6.943   4.752  17.191  0.00  0.00    +0.000 A 
ATOM     13  C   UNL     1       5.784   4.299  17.851  0.00  0.00    +0.000 A 
ATOM     14  C   UNL     1       5.770   4.341  19.354  0.00  0.00    +0.000 C 
ATOM     15  C   UNL     1       4.729   3.781  17.070  0.00  0.00    +0.000 A 
ATOM     16  C   UNL     1       4.827   3.779  15.671  0.00  0.00    +0.000 A 
ENDBRANCH   6  15
ENDBRANCH   1   6
BRANCH   5  17
ATOM     17  C   UNL     1       2.885   6.171  19.759  0.00  0.00    +0.000 C 
BRANCH  17  18
ATOM     18  N   UNL     1       2.217   7.383  19.294  0.00  0.00    +0.000 N 
ATOM     19  C   UNL     1       2.558   8.121  18.180  0.00  0.00    +0.000 C 
ATOM     20  O   UNL     1       3.467   7.888  17.397  0.00  0.00    +0.000 OA
ATOM     21  H   UNL     1       1.426   7.735  19.831  0.00  0.00    +0.000 HD
BRANCH  19  22
ATOM     22  C   UNL     1       1.629   9.341  17.971  0.00  0.00    +0.000 C 
ATOM     23  O   UNL     1       2.140  10.348  17.482  0.00  0.00    +0.000 OA
ATOM     24  N   UNL     1       0.320   9.147  18.377  0.00  0.00    +0.000 N 
ATOM     25  H   UNL     1       0.110   8.228  18.759  0.00  0.00    +0.000 HD
BRANCH  24  26
ATOM     26  C   UNL     1      -0.729  10.100  18.320  0.00  0.00    +0.000 A 
ATOM     27  C   UNL     1      -0.875  11.127  19.256  0.00  0.00    +0.000 A 
ATOM     28  C   UNL     1      -1.929  12.042  19.166  0.00  0.00    +0.000 A 
ATOM     29  C   UNL     1      -2.855  11.942  18.134  0.00  0.00    +0.000 A 
ATOM     30  C   UNL     1      -2.724  10.925  17.193  0.00  0.00    +0.000 A 
ATOM     31  C   UNL     1      -1.666  10.008  17.283  0.00  0.00    +0.000 A 
ENDBRANCH  24  26
ENDBRANCH  19  22
ENDBRANCH  17  18
ENDBRANCH   5  17
TORSDOF 6
ENDMDL
MODEL 2
REMARK VINA RESULT:      -8.6      1.017      2.071
REMARK  Name = 
REMARK  8 active torsions:
REMARK  status: ('A' for Active; 'I' for Inactive)
REMARK    1  A    between atoms: C_1  and  C_2
REMARK    2  A    between atoms: C_5  and  C_6
REMARK    3  A    between atoms: C_7  and  S_8
REMARK    4  A    between atoms: S_8  and  N_11
REMARK    5  A    between atoms: C_15  and  C_16
REMARK    6  A    between atoms: C_16  and  N_17
REMARK    7  A    between atoms: C_18  and  C_20
REMARK    8  A    between atoms: N_22  and  C_23
REMARK                            x       y       z     vdW  Elec       q    Type
REMARK                         _______ _______ _______ _____ _____    ______ ____
ROOT
ATOM      1  N   UNL     1       3.228   3.677  19.413  0.00  0.00    +0.000 NA
ATOM      2  C   UNL     1       3.096   2.538  20.351  0.00  0.00    +0.000 C 
ATOM      3  C   UNL     1       1.614   2.480  20.678  0.00  0.00    +0.000 C 
ATOM      4  C   UNL     1       1.116   3.911  20.578  0.00  0.00    +0.000 C 
ATOM      5  C   UNL     1       2.129   4.659  19.705  0.00  0.00    +0.000 C 
ENDROOT
BRANCH   1   6
ATOM      6  S   UNL     1       3.599   3.317  17.779  0.00  0.00    +0.000 S 
ATOM      7  O   UNL     1       2.672   4.058  16.939  0.00  0.00    +0.000 OA
ATOM      8  O   UNL     1       3.758   1.887  17.656  0.00  0.00    +0.000 OA
BRANCH   6  15
ATOM      9  C   UNL     1       7.726   5.882  19.694  0.00  0.00    +0.000 C 
ATOM     10  C   UNL     1       7.058   5.326  18.474  0.00  0.00    +0.000 A 
ATOM     11  C   UNL     1       7.472   5.690  17.193  0.00  0.00    +0.000 A 
ATOM     12  C   UNL     1       6.782   5.230  16.070  0.00  0.00    +0.000 A 
ATOM     13  C   UNL     1       5.636   4.421  16.201  0.00  0.00    +0.000 A 
ATOM     14  C   UNL     1       4.915   4.017  14.945  0.00  0.00    +0.000 C 
ATOM     15  C   UNL     1       5.199   4.086  17.500  0.00  0.00    +0.000 A 
ATOM     16  C   UNL     1       5.932   4.507  18.618  0.00  0.00    +0.000 A 
ENDBRANCH   6  15
ENDBRANCH   1   6
BRANCH   5  17
ATOM     17  C   UNL     1       2.695   5.908  20.433  0.00  0.00    +0.000 C 
BRANCH  17  18
ATOM     18  N   UNL     1       2.182   7.173  19.918  0.00  0.00    +0.000 N 
ATOM     19  C   UNL     1       2.467   7.722  18.684  0.00  0.00    +0.000 C 
ATOM     20  O   UNL     1       3.188   7.247  17.820  0.00  0.00    +0.000 OA
ATOM     21  H   UNL     1       1.558   7.719  20.509  0.00  0.00    +0.000 HD
BRANCH  19  22
ATOM     22  C   UNL     1       1.742   9.070  18.455  0.00  0.00    +0.000 C 
ATOM     23  O   UNL     1       2.048   9.697  17.441  0.00  0.00    +0.000 OA
ATOM     24  N   UNL     1       0.832   9.413  19.440  0.00  0.00    +0.000 N 
ATOM     25  H   UNL     1       0.734   8.742  20.199  0.00  0.00    +0.000 HD
BRANCH  24  26
ATOM     26  C   UNL     1       0.051  10.594  19.490  0.00  0.00    +0.000 A 
ATOM     27  C   UNL     1       0.454  11.745  20.172  0.00  0.00    +0.000 A 
ATOM     28  C   UNL     1      -0.352  12.888  20.201  0.00  0.00    +0.000 A 
ATOM     29  C   UNL     1      -1.577  12.896  19.546  0.00  0.00    +0.000 A 
ATOM     30  C   UNL     1      -1.994  11.758  18.860  0.00  0.00    +0.000 A 
ATOM     31  C   UNL     1      -1.185  10.612  18.830  0.00  0.00    +0.000 A 
ENDBRANCH  24  26
ENDBRANCH  19  22
ENDBRANCH  17  18
ENDBRANCH   5  17
TORSDOF 6
ENDMDL
MODEL 3
REMARK VINA RESULT:      -8.6      1.453      1.969
REMARK  Name = 
REMARK  8 active torsions:
REMARK  status: ('A' for Active; 'I' for Inactive)
REMARK    1  A    between atoms: C_1  and  C_2
REMARK    2  A    between atoms: C_5  and  C_6
REMARK    3  A    between atoms: C_7  and  S_8
REMARK    4  A    between atoms: S_8  and  N_11
REMARK    5  A    between atoms: C_15  and  C_16
REMARK    6  A    between atoms: C_16  and  N_17
REMARK    7  A    between atoms: C_18  and  C_20
REMARK    8  A    between atoms: N_22  and  C_23
REMARK                            x       y       z     vdW  Elec       q    Type
REMARK                         _______ _______ _______ _____ _____    ______ ____
ROOT
ATOM      1  N   UNL     1       3.154   4.101  19.237  0.00  0.00    +0.000 NA
ATOM      2  C   UNL     1       2.815   3.431  20.514  0.00  0.00    +0.000 C 
ATOM      3  C   UNL     1       1.358   3.782  20.757  0.00  0.00    +0.000 C 
ATOM      4  C   UNL     1       1.153   5.145  20.121  0.00  0.00    +0.000 C 
ATOM      5  C   UNL     1       2.278   5.314  19.094  0.00  0.00    +0.000 C 
ENDROOT
BRANCH   1   6
ATOM      6  S   UNL     1       3.414   3.106  17.866  0.00  0.00    +0.000 S 
ATOM      7  O   UNL     1       2.278   3.271  16.975  0.00  0.00    +0.000 OA
ATOM      8  O   UNL     1       3.836   1.804  18.326  0.00  0.00    +0.000 OA
BRANCH   6  15
ATOM      9  C   UNL     1       6.051   3.880  13.424  0.00  0.00    +0.000 C 
ATOM     10  C   UNL     1       5.989   4.133  14.900  0.00  0.00    +0.000 A 
ATOM     11  C   UNL     1       7.094   4.619  15.597  0.00  0.00    +0.000 A 
ATOM     12  C   UNL     1       7.044   4.766  16.985  0.00  0.00    +0.000 A 
ATOM     13  C   UNL     1       5.897   4.398  17.715  0.00  0.00    +0.000 A 
ATOM     14  C   UNL     1       5.945   4.532  19.212  0.00  0.00    +0.000 C 
ATOM     15  C   UNL     1       4.794   3.873  17.009  0.00  0.00    +0.000 A 
ATOM     16  C   UNL     1       4.835   3.782  15.611  0.00  0.00    +0.000 A 
ENDBRANCH   6  15
ENDBRANCH   1   6
BRANCH   5  17
ATOM     17  C   UNL     1       3.095   6.608  19.353  0.00  0.00    +0.000 C 
BRANCH  17  18
ATOM     18  N   UNL     1       2.271   7.798  19.537  0.00  0.00    +0.000 N 
ATOM     19  C   UNL     1       1.930   8.708  18.557  0.00  0.00    +0.000 C 
ATOM     20  O   UNL     1       2.253   8.673  17.380  0.00  0.00    +0.000 OA
ATOM     21  H   UNL     1       1.909   7.996  20.468  0.00  0.00    +0.000 HD
BRANCH  19  22
ATOM     22  C   UNL     1       1.030   9.847  19.096  0.00  0.00    +0.000 C 
ATOM     23  O   UNL     1       0.974  10.874  18.421  0.00  0.00    +0.000 OA
ATOM     24  N   UNL     1       0.399   9.568  20.296  0.00  0.00    +0.000 N 
ATOM     25  H   UNL     1       0.588   8.648  20.687  0.00  0.00    +0.000 HD
BRANCH  24  26
ATOM     26  C   UNL     1      -0.458  10.435  21.018  0.00  0.00    +0.000 A 
ATOM     27  C   UNL     1      -1.226  11.429  20.405  0.00  0.00    +0.000 A 
ATOM     28  C   UNL     1      -2.054  12.269  21.158  0.00  0.00    +0.000 A 
ATOM     29  C   UNL     1      -2.126  12.125  22.538  0.00  0.00    +0.000 A 
ATOM     30  C   UNL     1      -1.368  11.140  23.165  0.00  0.00    +0.000 A 
ATOM     31  C   UNL     1      -0.538  10.297  22.410  0.00  0.00    +0.000 A 
ENDBRANCH  24  26
ENDBRANCH  19  22
ENDBRANCH  17  18
ENDBRANCH   5  17
TORSDOF 6
ENDMDL
MODEL 4
REMARK VINA RESULT:      -8.4      1.789      2.180
REMARK  Name = 
REMARK  8 active torsions:
REMARK  status: ('A' for Active; 'I' for Inactive)
REMARK    1  A    between atoms: C_1  and  C_2
REMARK    2  A    between atoms: C_5  and  C_6
REMARK    3  A    between atoms: C_7  and  S_8
REMARK    4  A    between atoms: S_8  and  N_11
REMARK    5  A    between atoms: C_15  and  C_16
REMARK    6  A    between atoms: C_16  and  N_17
REMARK    7  A    between atoms: C_18  and  C_20
REMARK    8  A    between atoms: N_22  and  C_23
REMARK                            x       y       z     vdW  Elec       q    Type
REMARK                         _______ _______ _______ _____ _____    ______ ____
ROOT
ATOM      1  N   UNL     1       3.078   3.957  19.295  0.00  0.00    +0.000 NA
ATOM      2  C   UNL     1       2.938   3.201  20.560  0.00  0.00    +0.000 C 
ATOM      3  C   UNL     1       1.467   3.319  20.919  0.00  0.00    +0.000 C 
ATOM      4  C   UNL     1       1.016   4.656  20.359  0.00  0.00    +0.000 C 
ATOM      5  C   UNL     1       2.023   5.028  19.266  0.00  0.00    +0.000 C 
ENDROOT
BRANCH   1   6
ATOM      6  S   UNL     1       3.380   3.060  17.866  0.00  0.00    +0.000 S 
ATOM      7  O   UNL     1       2.253   3.259  16.970  0.00  0.00    +0.000 OA
ATOM      8  O   UNL     1       3.824   1.740  18.247  0.00  0.00    +0.000 OA
BRANCH   6  15
ATOM      9  C   UNL     1       6.204   3.992  13.572  0.00  0.00    +0.000 C 
ATOM     10  C   UNL     1       6.045   4.243  15.041  0.00  0.00    +0.000 A 
ATOM     11  C   UNL     1       7.078   4.798  15.795  0.00  0.00    +0.000 A 
ATOM     12  C   UNL     1       6.942   4.944  17.177  0.00  0.00    +0.000 A 
ATOM     13  C   UNL     1       5.782   4.505  17.846  0.00  0.00    +0.000 A 
ATOM     14  C   UNL     1       5.739   4.644  19.342  0.00  0.00    +0.000 C 
ATOM     15  C   UNL     1       4.755   3.911  17.082  0.00  0.00    +0.000 A 
ATOM     16  C   UNL     1       4.879   3.821  15.689  0.00  0.00    +0.000 A 
ENDBRANCH   6  15
ENDBRANCH   1   6
BRANCH   5  17
ATOM     17  C   UNL     1       2.656   6.421  19.525  0.00  0.00    +0.000 C 
BRANCH  17  18
ATOM     18  N   UNL     1       1.758   7.363  20.184  0.00  0.00    +0.000 N 
ATOM     19  C   UNL     1       1.399   8.609  19.711  0.00  0.00    +0.000 C 
ATOM     20  O   UNL     1       1.766   9.130  18.668  0.00  0.00    +0.000 OA
ATOM     21  H   UNL     1       1.351   7.098  21.080  0.00  0.00    +0.000 HD
BRANCH  19  22
ATOM     22  C   UNL     1       0.415   9.340  20.656  0.00  0.00    +0.000 C 
ATOM     23  O   UNL     1      -0.064   8.677  21.576  0.00  0.00    +0.000 OA
ATOM     24  N   UNL     1       0.184  10.667  20.337  0.00  0.00    +0.000 N 
ATOM     25  H   UNL     1       0.689  11.017  19.526  0.00  0.00    +0.000 HD
BRANCH  24  26
ATOM     26  C   UNL     1      -0.683  11.558  21.018  0.00  0.00    +0.000 A 
ATOM     27  C   UNL     1      -0.501  11.923  22.355  0.00  0.00    +0.000 A 
ATOM     28  C   UNL     1      -1.385  12.800  22.990  0.00  0.00    +0.000 A 
ATOM     29  C   UNL     1      -2.468  13.327  22.296  0.00  0.00    +0.000 A 
ATOM     30  C   UNL     1      -2.663  12.975  20.963  0.00  0.00    +0.000 A 
ATOM     31  C   UNL     1      -1.775  12.095  20.325  0.00  0.00    +0.000 A 
ENDBRANCH  24  26
ENDBRANCH  19  22
ENDBRANCH  17  18
ENDBRANCH   5  17
TORSDOF 6
ENDMDL
MODEL 5
REMARK VINA RESULT:      -8.3      2.015      2.887
REMARK  Name = 
REMARK  8 active torsions:
REMARK  status: ('A' for Active; 'I' for Inactive)
REMARK    1  A    between atoms: C_1  and  C_2
REMARK    2  A    between atoms: C_5  and  C_6
REMARK    3  A    between atoms: C_7  and  S_8
REMARK    4  A    between atoms: S_8  and  N_11
REMARK    5  A    between atoms: C_15  and  C_16
REMARK    6  A    between atoms: C_16  and  N_17
REMARK    7  A    between atoms: C_18  and  C_20
REMARK    8  A    between atoms: N_22  and  C_23
REMARK                            x       y       z     vdW  Elec       q    Type
REMARK                         _______ _______ _______ _____ _____    ______ ____
ROOT
ATOM      1  N   UNL     1       3.176   3.797  19.394  0.00  0.00    +0.000 NA
ATOM      2  C   UNL     1       2.960   2.724  20.392  0.00  0.00    +0.000 C 
ATOM      3  C   UNL     1       1.468   2.756  20.674  0.00  0.00    +0.000 C 
ATOM      4  C   UNL     1       1.044   4.199  20.475  0.00  0.00    +0.000 C 
ATOM      5  C   UNL     1       2.118   4.846  19.593  0.00  0.00    +0.000 C 
ENDROOT
BRANCH   1   6
ATOM      6  S   UNL     1       3.576   3.322  17.797  0.00  0.00    +0.000 S 
ATOM      7  O   UNL     1       2.677   4.015  16.889  0.00  0.00    +0.000 OA
ATOM      8  O   UNL     1       3.719   1.885  17.775  0.00  0.00    +0.000 OA
BRANCH   6  15
ATOM      9  C   UNL     1       7.751   5.853  19.654  0.00  0.00    +0.000 C 
ATOM     10  C   UNL     1       7.073   5.280  18.447  0.00  0.00    +0.000 A 
ATOM     11  C   UNL     1       7.496   5.603  17.158  0.00  0.00    +0.000 A 
ATOM     12  C   UNL     1       6.798   5.128  16.046  0.00  0.00    +0.000 A 
ATOM     13  C   UNL     1       5.636   4.346  16.195  0.00  0.00    +0.000 A 
ATOM     14  C   UNL     1       4.909   3.925  14.948  0.00  0.00    +0.000 C 
ATOM     15  C   UNL     1       5.191   4.052  17.502  0.00  0.00    +0.000 A 
ATOM     16  C   UNL     1       5.931   4.487  18.610  0.00  0.00    +0.000 A 
ENDBRANCH   6  15
ENDBRANCH   1   6
BRANCH   5  17
ATOM     17  C   UNL     1       2.723   6.107  20.264  0.00  0.00    +0.000 C 
BRANCH  17  18
ATOM     18  N   UNL     1       1.723   7.058  20.740  0.00  0.00    +0.000 N 
ATOM     19  C   UNL     1       1.388   8.253  20.135  0.00  0.00    +0.000 C 
ATOM     20  O   UNL     1       1.863   8.713  19.108  0.00  0.00    +0.000 OA
ATOM     21  H   UNL     1       1.219   6.842  21.597  0.00  0.00    +0.000 HD
BRANCH  19  22
ATOM     22  C   UNL     1       0.275   9.011  20.900  0.00  0.00    +0.000 C 
ATOM     23  O   UNL     1      -0.459   8.335  21.620  0.00  0.00    +0.000 OA
ATOM     24  N   UNL     1       0.238  10.374  20.666  0.00  0.00    +0.000 N 
ATOM     25  H   UNL     1       0.946  10.729  20.027  0.00  0.00    +0.000 HD
BRANCH  24  26
ATOM     26  C   UNL     1      -0.686  11.297  21.216  0.00  0.00    +0.000 A 
ATOM     27  C   UNL     1      -0.744  11.594  22.581  0.00  0.00    +0.000 A 
ATOM     28  C   UNL     1      -1.677  12.507  23.082  0.00  0.00    +0.000 A 
ATOM     29  C   UNL     1      -2.568  13.139  22.223  0.00  0.00    +0.000 A 
ATOM     30  C   UNL     1      -2.523  12.856  20.861  0.00  0.00    +0.000 A 
ATOM     31  C   UNL     1      -1.587  11.941  20.357  0.00  0.00    +0.000 A 
ENDBRANCH  24  26
ENDBRANCH  19  22
ENDBRANCH  17  18
ENDBRANCH   5  17
TORSDOF 6
ENDMDL
MODEL 6
REMARK VINA RESULT:      -8.3      1.335      2.260
REMARK  Name = 
REMARK  8 active torsions:
REMARK  status: ('A' for Active; 'I' for Inactive)
REMARK    1  A    between atoms: C_1  and  C_2
REMARK    2  A    between atoms: C_5  and  C_6
REMARK    3  A    between atoms: C_7  and  S_8
REMARK    4  A    between atoms: S_8  and  N_11
REMARK    5  A    between atoms: C_15  and  C_16
REMARK    6  A    between atoms: C_16  and  N_17
REMARK    7  A    between atoms: C_18  and  C_20
REMARK    8  A    between atoms: N_22  and  C_23
REMARK                            x       y       z     vdW  Elec       q    Type
REMARK                         _______ _______ _______ _____ _____    ______ ____
ROOT
ATOM      1  N   UNL     1       3.150   3.487  20.539  0.00  0.00    +0.000 NA
ATOM      2  C   UNL     1       2.235   2.798  21.479  0.00  0.00    +0.000 C 
ATOM      3  C   UNL     1       0.848   3.036  20.908  0.00  0.00    +0.000 C 
ATOM      4  C   UNL     1       0.922   4.376  20.198  0.00  0.00    +0.000 C 
ATOM      5  C   UNL     1       2.405   4.627  19.905  0.00  0.00    +0.000 C 
ENDROOT
BRANCH   1   6
ATOM      6  S   UNL     1       4.154   2.508  19.553  0.00  0.00    +0.000 S 
ATOM      7  O   UNL     1       3.294   1.656  18.750  0.00  0.00    +0.000 OA
ATOM      8  O   UNL     1       5.207   1.964  20.379  0.00  0.00    +0.000 OA
BRANCH   6  15
ATOM      9  C   UNL     1       7.673   6.240  18.564  0.00  0.00    +0.000 C 
ATOM     10  C   UNL     1       6.531   5.428  18.032  0.00  0.00    +0.000 A 
ATOM     11  C   UNL     1       5.875   5.786  16.855  0.00  0.00    +0.000 A 
ATOM     12  C   UNL     1       4.760   5.066  16.422  0.00  0.00    +0.000 A 
ATOM     13  C   UNL     1       4.249   3.991  17.176  0.00  0.00    +0.000 A 
ATOM     14  C   UNL     1       3.009   3.307  16.671  0.00  0.00    +0.000 C 
ATOM     15  C   UNL     1       4.894   3.656  18.385  0.00  0.00    +0.000 A 
ATOM     16  C   UNL     1       6.047   4.349  18.781  0.00  0.00    +0.000 A 
ENDBRANCH   6  15
ENDBRANCH   1   6
BRANCH   5  17
ATOM     17  C   UNL     1       2.880   5.982  20.494  0.00  0.00    +0.000 C 
BRANCH  17  18
ATOM     18  N   UNL     1       2.159   7.138  19.971  0.00  0.00    +0.000 N 
ATOM     19  C   UNL     1       2.448   7.813  18.802  0.00  0.00    +0.000 C 
ATOM     20  O   UNL     1       3.345   7.560  18.013  0.00  0.00    +0.000 OA
ATOM     21  H   UNL     1       1.370   7.498  20.504  0.00  0.00    +0.000 HD
BRANCH  19  22
ATOM     22  C   UNL     1       1.472   8.985  18.540  0.00  0.00    +0.000 C 
ATOM     23  O   UNL     1       1.592   9.576  17.467  0.00  0.00    +0.000 OA
ATOM     24  N   UNL     1       0.578   9.234  19.567  0.00  0.00    +0.000 N 
ATOM     25  H   UNL     1       0.654   8.619  20.374  0.00  0.00    +0.000 HD
BRANCH  24  26
ATOM     26  C   UNL     1      -0.405  10.255  19.599  0.00  0.00    +0.000 A 
ATOM     27  C   UNL     1      -1.282  10.500  18.538  0.00  0.00    +0.000 A 
ATOM     28  C   UNL     1      -2.233  11.523  18.609  0.00  0.00    +0.000 A 
ATOM     29  C   UNL     1      -2.320  12.319  19.745  0.00  0.00    +0.000 A 
ATOM     30  C   UNL     1      -1.455  12.089  20.810  0.00  0.00    +0.000 A 
ATOM     31  C   UNL     1      -0.502  11.061  20.741  0.00  0.00    +0.000 A 
ENDBRANCH  24  26
ENDBRANCH  19  22
ENDBRANCH  17  18
ENDBRANCH   5  17
TORSDOF 6
ENDMDL
MODEL 7
REMARK VINA RESULT:      -8.3      4.261      7.215
REMARK  Name = 
REMARK  8 active torsions:
REMARK  status: ('A' for Active; 'I' for Inactive)
REMARK    1  A    between atoms: C_1  and  C_2
REMARK    2  A    between atoms: C_5  and  C_6
REMARK    3  A    between atoms: C_7  and  S_8
REMARK    4  A    between atoms: S_8  and  N_11
REMARK    5  A    between atoms: C_15  and  C_16
REMARK    6  A    between atoms: C_16  and  N_17
REMARK    7  A    between atoms: C_18  and  C_20
REMARK    8  A    between atoms: N_22  and  C_23
REMARK                            x       y       z     vdW  Elec       q    Type
REMARK                         _______ _______ _______ _____ _____    ______ ____
ROOT
ATOM      1  N   UNL     1       5.125   4.767  17.110  0.00  0.00    +0.000 NA
ATOM      2  C   UNL     1       4.800   5.733  16.034  0.00  0.00    +0.000 C 
ATOM      3  C   UNL     1       5.258   5.052  14.756  0.00  0.00    +0.000 C 
ATOM      4  C   UNL     1       6.431   4.176  15.156  0.00  0.00    +0.000 C 
ATOM      5  C   UNL     1       6.300   3.942  16.665  0.00  0.00    +0.000 C 
ENDROOT
BRANCH   1   6
ATOM      6  S   UNL     1       3.816   3.983  17.890  0.00  0.00    +0.000 S 
ATOM      7  O   UNL     1       4.357   3.202  18.990  0.00  0.00    +0.000 OA
ATOM      8  O   UNL     1       2.977   3.387  16.876  0.00  0.00    +0.000 OA
BRANCH   6  15
ATOM      9  C   UNL     1       2.416   9.015  17.963  0.00  0.00    +0.000 C 
ATOM     10  C   UNL     1       2.339   7.687  18.654  0.00  0.00    +0.000 A 
ATOM     11  C   UNL     1       1.889   7.581  19.969  0.00  0.00    +0.000 A 
ATOM     12  C   UNL     1       1.906   6.347  20.623  0.00  0.00    +0.000 A 
ATOM     13  C   UNL     1       2.406   5.193  19.989  0.00  0.00    +0.000 A 
ATOM     14  C   UNL     1       2.445   3.917  20.783  0.00  0.00    +0.000 C 
ATOM     15  C   UNL     1       2.894   5.313  18.671  0.00  0.00    +0.000 A 
ATOM     16  C   UNL     1       2.821   6.544  18.004  0.00  0.00    +0.000 A 
ENDBRANCH   6  15
ENDBRANCH   1   6
BRANCH   5  17
ATOM     17  C   UNL     1       7.584   4.373  17.422  0.00  0.00    +0.000 C 
BRANCH  17  18
ATOM     18  N   UNL     1       7.784   5.818  17.469  0.00  0.00    +0.000 N 
ATOM     19  C   UNL     1       7.956   6.577  18.608  0.00  0.00    +0.000 C 
ATOM     20  O   UNL     1       7.973   6.174  19.761  0.00  0.00    +0.000 OA
ATOM     21  H   UNL     1       7.796   6.333  16.590  0.00  0.00    +0.000 HD
BRANCH  19  22
ATOM     22  C   UNL     1       8.157   8.079  18.293  0.00  0.00    +0.000 C 
ATOM     23  O   UNL     1       7.667   8.495  17.244  0.00  0.00    +0.000 OA
ATOM     24  N   UNL     1       8.883   8.777  19.243  0.00  0.00    +0.000 N 
ATOM     25  H   UNL     1       9.198   8.233  20.042  0.00  0.00    +0.000 HD
BRANCH  24  26
ATOM     26  C   UNL     1       9.230  10.151  19.194  0.00  0.00    +0.000 A 
ATOM     27  C   UNL     1       9.394  10.936  20.339  0.00  0.00    +0.000 A 
ATOM     28  C   UNL     1       9.730  12.289  20.244  0.00  0.00    +0.000 A 
ATOM     29  C   UNL     1       9.909  12.880  18.999  0.00  0.00    +0.000 A 
ATOM     30  C   UNL     1       9.751  12.113  17.848  0.00  0.00    +0.000 A 
ATOM     31  C   UNL     1       9.414  10.754  17.943  0.00  0.00    +0.000 A 
ENDBRANCH  24  26
ENDBRANCH  19  22
ENDBRANCH  17  18
ENDBRANCH   5  17
TORSDOF 6
ENDMDL
MODEL 8
REMARK VINA RESULT:      -8.2      1.099      1.500
REMARK  Name = 
REMARK  8 active torsions:
REMARK  status: ('A' for Active; 'I' for Inactive)
REMARK    1  A    between atoms: C_1  and  C_2
REMARK    2  A    between atoms: C_5  and  C_6
REMARK    3  A    between atoms: C_7  and  S_8
REMARK    4  A    between atoms: S_8  and  N_11
REMARK    5  A    between atoms: C_15  and  C_16
REMARK    6  A    between atoms: C_16  and  N_17
REMARK    7  A    between atoms: C_18  and  C_20
REMARK    8  A    between atoms: N_22  and  C_23
REMARK                            x       y       z     vdW  Elec       q    Type
REMARK                         _______ _______ _______ _____ _____    ______ ____
ROOT
ATOM      1  N   UNL     1       3.137   3.796  19.314  0.00  0.00    +0.000 NA
ATOM      2  C   UNL     1       2.930   2.993  20.541  0.00  0.00    +0.000 C 
ATOM      3  C   UNL     1       1.472   3.216  20.903  0.00  0.00    +0.000 C 
ATOM      4  C   UNL     1       1.134   4.610  20.408  0.00  0.00    +0.000 C 
ATOM      5  C   UNL     1       2.175   4.950  19.336  0.00  0.00    +0.000 C 
ENDROOT
BRANCH   1   6
ATOM      6  S   UNL     1       3.372   2.947  17.844  0.00  0.00    +0.000 S 
ATOM      7  O   UNL     1       2.227   3.212  16.989  0.00  0.00    +0.000 OA
ATOM      8  O   UNL     1       3.787   1.600  18.161  0.00  0.00    +0.000 OA
BRANCH   6  15
ATOM      9  C   UNL     1       6.097   3.968  13.506  0.00  0.00    +0.000 C 
ATOM     10  C   UNL     1       5.989   4.164  14.988  0.00  0.00    +0.000 A 
ATOM     11  C   UNL     1       7.060   4.655  15.732  0.00  0.00    +0.000 A 
ATOM     12  C   UNL     1       6.969   4.749  17.123  0.00  0.00    +0.000 A 
ATOM     13  C   UNL     1       5.817   4.319  17.808  0.00  0.00    +0.000 A 
ATOM     14  C   UNL     1       5.822   4.397  19.310  0.00  0.00    +0.000 C 
ATOM     15  C   UNL     1       4.749   3.787  17.053  0.00  0.00    +0.000 A 
ATOM     16  C   UNL     1       4.829   3.750  15.654  0.00  0.00    +0.000 A 
ENDBRANCH   6  15
ENDBRANCH   1   6
BRANCH   5  17
ATOM     17  C   UNL     1       2.918   6.272  19.663  0.00  0.00    +0.000 C 
BRANCH  17  18
ATOM     18  N   UNL     1       2.030   7.383  19.987  0.00  0.00    +0.000 N 
ATOM     19  C   UNL     1       1.823   8.508  19.215  0.00  0.00    +0.000 C 
ATOM     20  O   UNL     1       2.340   8.763  18.138  0.00  0.00    +0.000 OA
ATOM     21  H   UNL     1       1.510   7.347  20.862  0.00  0.00    +0.000 HD
BRANCH  19  22
ATOM     22  C   UNL     1       0.802   9.483  19.853  0.00  0.00    +0.000 C 
ATOM     23  O   UNL     1       0.923   9.699  21.058  0.00  0.00    +0.000 OA
ATOM     24  N   UNL     1      -0.140   9.989  18.974  0.00  0.00    +0.000 N 
ATOM     25  H   UNL     1      -0.056   9.674  18.011  0.00  0.00    +0.000 HD
BRANCH  24  26
ATOM     26  C   UNL     1      -1.196  10.879  19.295  0.00  0.00    +0.000 A 
ATOM     27  C   UNL     1      -2.365  10.977  18.535  0.00  0.00    +0.000 A 
ATOM     28  C   UNL     1      -3.380  11.874  18.884  0.00  0.00    +0.000 A 
ATOM     29  C   UNL     1      -3.239  12.689  20.002  0.00  0.00    +0.000 A 
ATOM     30  C   UNL     1      -2.082  12.603  20.770  0.00  0.00    +0.000 A 
ATOM     31  C   UNL     1      -1.064  11.702  20.421  0.00  0.00    +0.000 A 
ENDBRANCH  24  26
ENDBRANCH  19  22
ENDBRANCH  17  18
ENDBRANCH   5  17
TORSDOF 6
ENDMDL
MODEL 9
REMARK VINA RESULT:      -8.2      0.998      1.237
REMARK  Name = 
REMARK  8 active torsions:
REMARK  status: ('A' for Active; 'I' for Inactive)
REMARK    1  A    between atoms: C_1  and  C_2
REMARK    2  A    between atoms: C_5  and  C_6
REMARK    3  A    between atoms: C_7  and  S_8
REMARK    4  A    between atoms: S_8  and  N_11
REMARK    5  A    between atoms: C_15  and  C_16
REMARK    6  A    between atoms: C_16  and  N_17
REMARK    7  A    between atoms: C_18  and  C_20
REMARK    8  A    between atoms: N_22  and  C_23
REMARK                            x       y       z     vdW  Elec       q    Type
REMARK                         _______ _______ _______ _____ _____    ______ ____
ROOT
ATOM      1  N   UNL     1       3.023   3.720  19.175  0.00  0.00    +0.000 NA
ATOM      2  C   UNL     1       1.726   3.005  19.213  0.00  0.00    +0.000 C 
ATOM      3  C   UNL     1       0.927   3.599  18.067  0.00  0.00    +0.000 C 
ATOM      4  C   UNL     1       1.412   5.031  17.927  0.00  0.00    +0.000 C 
ATOM      5  C   UNL     1       2.794   5.083  18.587  0.00  0.00    +0.000 C 
ENDROOT
BRANCH   1   6
ATOM      6  S   UNL     1       4.402   2.830  18.680  0.00  0.00    +0.000 S 
ATOM      7  O   UNL     1       3.943   1.713  17.871  0.00  0.00    +0.000 OA
ATOM      8  O   UNL     1       5.251   2.635  19.832  0.00  0.00    +0.000 OA
BRANCH   6  15
ATOM      9  C   UNL     1       5.886   3.894  13.787  0.00  0.00    +0.000 C 
ATOM     10  C   UNL     1       5.945   4.305  15.227  0.00  0.00    +0.000 A 
ATOM     11  C   UNL     1       6.873   5.244  15.673  0.00  0.00    +0.000 A 
ATOM     12  C   UNL     1       6.970   5.550  17.033  0.00  0.00    +0.000 A 
ATOM     13  C   UNL     1       6.164   4.896  17.985  0.00  0.00    +0.000 A 
ATOM     14  C   UNL     1       6.372   5.238  19.435  0.00  0.00    +0.000 C 
ATOM     15  C   UNL     1       5.252   3.919  17.532  0.00  0.00    +0.000 A 
ATOM     16  C   UNL     1       5.124   3.661  16.160  0.00  0.00    +0.000 A 
ENDBRANCH   6  15
ENDBRANCH   1   6
BRANCH   5  17
ATOM     17  C   UNL     1       2.856   6.170  19.693  0.00  0.00    +0.000 C 
BRANCH  17  18
ATOM     18  N   UNL     1       2.177   7.412  19.338  0.00  0.00    +0.000 N 
ATOM     19  C   UNL     1       2.527   8.262  18.309  0.00  0.00    +0.000 C 
ATOM     20  O   UNL     1       3.452   8.121  17.525  0.00  0.00    +0.000 OA
ATOM     21  H   UNL     1       1.372   7.698  19.892  0.00  0.00    +0.000 HD
BRANCH  19  22
ATOM     22  C   UNL     1       1.581   9.484  18.204  0.00  0.00    +0.000 C 
ATOM     23  O   UNL     1       1.938  10.396  17.459  0.00  0.00    +0.000 OA
ATOM     24  N   UNL     1       0.440   9.400  18.983  0.00  0.00    +0.000 N 
ATOM     25  H   UNL     1       0.343   8.548  19.529  0.00  0.00    +0.000 HD
BRANCH  24  26
ATOM     26  C   UNL     1      -0.577  10.381  19.092  0.00  0.00    +0.000 A 
ATOM     27  C   UNL     1      -0.632  11.308  20.136  0.00  0.00    +0.000 A 
ATOM     28  C   UNL     1      -1.658  12.255  20.208  0.00  0.00    +0.000 A 
ATOM     29  C   UNL     1      -2.648  12.290  19.233  0.00  0.00    +0.000 A 
ATOM     30  C   UNL     1      -2.608  11.374  18.185  0.00  0.00    +0.000 A 
ATOM     31  C   UNL     1      -1.578  10.425  18.112  0.00  0.00    +0.000 A 
ENDBRANCH  24  26
ENDBRANCH  19  22
ENDBRANCH  17  18
ENDBRANCH   5  17
TORSDOF 6
ENDMDL
