MODEL 1
REMARK VINA RESULT:      -8.4      0.000      0.000
REMARK  Name = 
REMARK  10 active torsions:
REMARK  status: ('A' for Active; 'I' for Inactive)
REMARK    1  A    between atoms: C_1  and  O_2
REMARK    2  A    between atoms: O_2  and  C_3
REMARK    3  A    between atoms: C_6  and  C_7
REMARK    4  A    between atoms: C_7  and  C_8
REMARK    5  A    between atoms: C_8  and  N_9
REMARK    6  A    between atoms: N_9  and  C_10
REMARK    7  A    between atoms: C_11  and  O_12
REMARK    8  A    between atoms: O_12  and  C_13
REMARK    9  A    between atoms: C_34  and  O_35
REMARK   10  A    between atoms: O_35  and  C_36
REMARK                            x       y       z     vdW  Elec       q    Type
REMARK                         _______ _______ _______ _____ _____    ______ ____
ROOT
ATOM      1  C   UNL     1       1.354   8.955  19.403  0.00  0.00    +0.000 A 
ATOM      2  C   UNL     1       1.416   8.180  20.590  0.00  0.00    +0.000 A 
ATOM      3  C   UNL     1       0.918   8.729  21.769  0.00  0.00    +0.000 A 
ATOM      4  C   UNL     1       0.364  10.035  21.784  0.00  0.00    +0.000 A 
ATOM      5  C   UNL     1       0.447  10.905  20.665  0.00  0.00    +0.000 A 
ATOM      6  C   UNL     1       0.019  12.297  20.622  0.00  0.00    +0.000 A 
ATOM      7  C   UNL     1       0.506  13.160  19.603  0.00  0.00    +0.000 A 
ATOM      8  N   UNL     1       1.565  12.618  18.929  0.00  0.00    +0.000 N 
ATOM      9  C   UNL     1       1.624  11.296  18.654  0.00  0.00    +0.000 A 
ATOM     10  C   UNL     1       1.082  10.366  19.537  0.00  0.00    +0.000 A 
ATOM     11  C   UNL     1       2.904  13.312  19.084  0.00  0.00    +0.000 C 
ATOM     12  C   UNL     1       2.829  14.311  20.249  0.00  0.00    +0.000 C 
ATOM     13  C   UNL     1       1.779  15.273  19.777  0.00  0.00    +0.000 A 
ATOM     14  C   UNL     1       2.176  16.547  19.353  0.00  0.00    +0.000 A 
ATOM     15  C   UNL     1       1.313  17.232  18.547  0.00  0.00    +0.000 A 
ATOM     16  C   UNL     1       0.071  16.730  18.238  0.00  0.00    +0.000 A 
ATOM     17  C   UNL     1      -0.366  15.466  18.692  0.00  0.00    +0.000 A 
ATOM     18  C   UNL     1       0.522  14.671  19.464  0.00  0.00    +0.000 A 
ATOM     19  O   UNL     1      -0.574  17.567  17.363  0.00  0.00    +0.000 OA
ATOM     20  C   UNL     1       0.405  18.625  17.172  0.00  0.00    +0.000 C 
ATOM     21  O   UNL     1       1.630  18.374  17.881  0.00  0.00    +0.000 OA
ENDROOT
BRANCH   1  22
ATOM     22  N   UNL     1       1.691   8.440  18.118  0.00  0.00    +0.000 N 
ATOM     23  H   UNL     1       1.041   7.722  17.813  0.00  0.00    +0.000 HD
BRANCH  22  24
ATOM     24  C   UNL     1       3.078   7.945  17.910  0.00  0.00    +0.000 C 
BRANCH  24  25
ATOM     25  C   UNL     1       3.161   6.411  17.977  0.00  0.00    +0.000 C 
BRANCH  25  29
ATOM     26  C   UNL     1       6.618   5.208  15.641  0.00  0.00    +0.000 A 
ATOM     27  C   UNL     1       5.465   4.405  15.690  0.00  0.00    +0.000 A 
ATOM     28  C   UNL     1       4.357   4.765  16.471  0.00  0.00    +0.000 A 
ATOM     29  C   UNL     1       4.397   5.916  17.248  0.00  0.00    +0.000 A 
ATOM     30  C   UNL     1       5.581   6.654  17.288  0.00  0.00    +0.000 A 
ATOM     31  C   UNL     1       6.698   6.315  16.495  0.00  0.00    +0.000 A 
BRANCH  26  33
ATOM     32  C   UNL     1       7.342   4.799  13.421  0.00  0.00    +0.000 C 
ATOM     33  O   UNL     1       7.662   4.913  14.808  0.00  0.00    +0.000 OA
ENDBRANCH  26  33
BRANCH  31  34
ATOM     34  O   UNL     1       7.735   7.191  16.679  0.00  0.00    +0.000 OA
ATOM     35  C   UNL     1       7.635   8.187  17.686  0.00  0.00    +0.000 C 
ENDBRANCH  31  34
ENDBRANCH  25  29
ENDBRANCH  24  25
ENDBRANCH  22  24
ENDBRANCH   1  22
BRANCH   2  36
ATOM     36  O   UNL     1       2.069   6.977  20.511  0.00  0.00    +0.000 OA
ATOM     37  C   UNL     1       1.450   5.764  20.926  0.00  0.00    +0.000 C 
ENDBRANCH   2  36
TORSDOF 7
ENDMDL
MODEL 2
REMARK VINA RESULT:      -8.0      6.140      9.987
REMARK  Name = 
REMARK  10 active torsions:
REMARK  status: ('A' for Active; 'I' for Inactive)
REMARK    1  A    between atoms: C_1  and  O_2
REMARK    2  A    between atoms: O_2  and  C_3
REMARK    3  A    between atoms: C_6  and  C_7
REMARK    4  A    between atoms: C_7  and  C_8
REMARK    5  A    between atoms: C_8  and  N_9
REMARK    6  A    between atoms: N_9  and  C_10
REMARK    7  A    between atoms: C_11  and  O_12
REMARK    8  A    between atoms: O_12  and  C_13
REMARK    9  A    between atoms: C_34  and  O_35
REMARK   10  A    between atoms: O_35  and  C_36
REMARK                            x       y       z     vdW  Elec       q    Type
REMARK                         _______ _______ _______ _____ _____    ______ ____
ROOT
ATOM      1  C   UNL     1       8.817  14.041  19.547  0.00  0.00    +0.000 A 
ATOM      2  C   UNL     1      10.106  13.812  19.002  0.00  0.00    +0.000 A 
ATOM      3  C   UNL     1      10.859  12.750  19.500  0.00  0.00    +0.000 A 
ATOM      4  C   UNL     1      10.349  11.920  20.531  0.00  0.00    +0.000 A 
ATOM      5  C   UNL     1       9.147  12.224  21.222  0.00  0.00    +0.000 A 
ATOM      6  C   UNL     1       8.606  11.505  22.368  0.00  0.00    +0.000 A 
ATOM      7  C   UNL     1       7.636  12.123  23.204  0.00  0.00    +0.000 A 
ATOM      8  N   UNL     1       7.533  13.466  22.968  0.00  0.00    +0.000 N 
ATOM      9  C   UNL     1       7.640  13.975  21.721  0.00  0.00    +0.000 A 
ATOM     10  C   UNL     1       8.485  13.381  20.787  0.00  0.00    +0.000 A 
ATOM     11  C   UNL     1       7.962  14.393  24.090  0.00  0.00    +0.000 C 
ATOM     12  C   UNL     1       8.734  13.590  25.148  0.00  0.00    +0.000 C 
ATOM     13  C   UNL     1       7.699  12.615  25.626  0.00  0.00    +0.000 A 
ATOM     14  C   UNL     1       7.131  12.804  26.892  0.00  0.00    +0.000 A 
ATOM     15  C   UNL     1       5.930  12.201  27.131  0.00  0.00    +0.000 A 
ATOM     16  C   UNL     1       5.347  11.372  26.202  0.00  0.00    +0.000 A 
ATOM     17  C   UNL     1       5.926  11.134  24.936  0.00  0.00    +0.000 A 
ATOM     18  C   UNL     1       7.133  11.801  24.598  0.00  0.00    +0.000 A 
ATOM     19  O   UNL     1       4.121  10.948  26.649  0.00  0.00    +0.000 OA
ATOM     20  C   UNL     1       4.020  11.607  27.941  0.00  0.00    +0.000 C 
ATOM     21  O   UNL     1       5.149  12.454  28.215  0.00  0.00    +0.000 OA
ENDROOT
BRANCH   1  22
ATOM     22  N   UNL     1       7.904  14.996  19.013  0.00  0.00    +0.000 N 
ATOM     23  H   UNL     1       7.438  15.527  19.743  0.00  0.00    +0.000 HD
BRANCH  22  24
ATOM     24  C   UNL     1       6.880  14.515  18.048  0.00  0.00    +0.000 C 
BRANCH  24  25
ATOM     25  C   UNL     1       5.644  15.431  18.011  0.00  0.00    +0.000 C 
BRANCH  25  29
ATOM     26  C   UNL     1       2.568  13.367  20.277  0.00  0.00    +0.000 A 
ATOM     27  C   UNL     1       2.514  13.427  18.873  0.00  0.00    +0.000 A 
ATOM     28  C   UNL     1       3.481  14.122  18.133  0.00  0.00    +0.000 A 
ATOM     29  C   UNL     1       4.500  14.804  18.787  0.00  0.00    +0.000 A 
ATOM     30  C   UNL     1       4.492  14.840  20.182  0.00  0.00    +0.000 A 
ATOM     31  C   UNL     1       3.535  14.132  20.941  0.00  0.00    +0.000 A 
BRANCH  26  33
ATOM     32  C   UNL     1       0.470  13.262  21.376  0.00  0.00    +0.000 C 
ATOM     33  O   UNL     1       1.683  12.612  20.997  0.00  0.00    +0.000 OA
ENDBRANCH  26  33
BRANCH  31  34
ATOM     34  O   UNL     1       3.735  14.293  22.287  0.00  0.00    +0.000 OA
ATOM     35  C   UNL     1       4.389  15.461  22.759  0.00  0.00    +0.000 C 
ENDBRANCH  31  34
ENDBRANCH  25  29
ENDBRANCH  24  25
ENDBRANCH  22  24
ENDBRANCH   1  22
BRANCH   2  36
ATOM     36  O   UNL     1      10.567  14.728  18.092  0.00  0.00    +0.000 OA
ATOM     37  C   UNL     1      11.352  14.336  16.971  0.00  0.00    +0.000 C 
ENDBRANCH   2  36
TORSDOF 7
ENDMDL
MODEL 3
REMARK VINA RESULT:      -8.0      5.075      8.727
REMARK  Name = 
REMARK  10 active torsions:
REMARK  status: ('A' for Active; 'I' for Inactive)
REMARK    1  A    between atoms: C_1  and  O_2
REMARK    2  A    between atoms: O_2  and  C_3
REMARK    3  A    between atoms: C_6  and  C_7
REMARK    4  A    between atoms: C_7  and  C_8
REMARK    5  A    between atoms: C_8  and  N_9
REMARK    6  A    between atoms: N_9  and  C_10
REMARK    7  A    between atoms: C_11  and  O_12
REMARK    8  A    between atoms: O_12  and  C_13
REMARK    9  A    between atoms: C_34  and  O_35
REMARK   10  A    between atoms: O_35  and  C_36
REMARK                            x       y       z     vdW  Elec       q    Type
REMARK                         _______ _______ _______ _____ _____    ______ ____
ROOT
ATOM      1  C   UNL     1       0.027  10.136  18.966  0.00  0.00    +0.000 A 
ATOM      2  C   UNL     1       1.122   9.272  19.217  0.00  0.00    +0.000 A 
ATOM      3  C   UNL     1       1.376   8.884  20.530  0.00  0.00    +0.000 A 
ATOM      4  C   UNL     1       0.560   9.347  21.594  0.00  0.00    +0.000 A 
ATOM      5  C   UNL     1      -0.428  10.350  21.408  0.00  0.00    +0.000 A 
ATOM      6  C   UNL     1      -1.229  10.974  22.452  0.00  0.00    +0.000 A 
ATOM      7  C   UNL     1      -1.881  12.213  22.205  0.00  0.00    +0.000 A 
ATOM      8  N   UNL     1      -1.431  12.814  21.062  0.00  0.00    +0.000 N 
ATOM      9  C   UNL     1      -1.109  12.093  19.965  0.00  0.00    +0.000 A 
ATOM     10  C   UNL     1      -0.561  10.819  20.094  0.00  0.00    +0.000 A 
ATOM     11  C   UNL     1      -0.682  14.122  21.225  0.00  0.00    +0.000 C 
ATOM     12  C   UNL     1      -0.314  14.319  22.703  0.00  0.00    +0.000 C 
ATOM     13  C   UNL     1      -1.661  14.388  23.360  0.00  0.00    +0.000 A 
ATOM     14  C   UNL     1      -2.124  15.628  23.816  0.00  0.00    +0.000 A 
ATOM     15  C   UNL     1      -3.470  15.759  24.005  0.00  0.00    +0.000 A 
ATOM     16  C   UNL     1      -4.323  14.695  23.840  0.00  0.00    +0.000 A 
ATOM     17  C   UNL     1      -3.871  13.424  23.422  0.00  0.00    +0.000 A 
ATOM     18  C   UNL     1      -2.492  13.249  23.129  0.00  0.00    +0.000 A 
ATOM     19  O   UNL     1      -5.623  15.097  24.018  0.00  0.00    +0.000 OA
ATOM     20  C   UNL     1      -5.469  16.514  24.306  0.00  0.00    +0.000 C 
ATOM     21  O   UNL     1      -4.099  16.943  24.235  0.00  0.00    +0.000 OA
ENDROOT
BRANCH   1  22
ATOM     22  N   UNL     1      -0.416  10.473  17.653  0.00  0.00    +0.000 N 
ATOM     23  H   UNL     1      -0.339  11.469  17.470  0.00  0.00    +0.000 HD
BRANCH  22  24
ATOM     24  C   UNL     1      -1.769  10.015  17.238  0.00  0.00    +0.000 C 
BRANCH  24  25
ATOM     25  C   UNL     1      -2.617  11.164  16.665  0.00  0.00    +0.000 C 
BRANCH  25  29
ATOM     26  C   UNL     1      -6.537  11.321  18.526  0.00  0.00    +0.000 A 
ATOM     27  C   UNL     1      -5.587  10.363  18.922  0.00  0.00    +0.000 A 
ATOM     28  C   UNL     1      -4.332  10.279  18.302  0.00  0.00    +0.000 A 
ATOM     29  C   UNL     1      -4.018  11.127  17.248  0.00  0.00    +0.000 A 
ATOM     30  C   UNL     1      -4.999  12.002  16.779  0.00  0.00    +0.000 A 
ATOM     31  C   UNL     1      -6.260  12.111  17.403  0.00  0.00    +0.000 A 
BRANCH  26  33
ATOM     32  C   UNL     1      -7.636  11.578  20.611  0.00  0.00    +0.000 C 
ATOM     33  O   UNL     1      -7.724  11.471  19.189  0.00  0.00    +0.000 OA
ENDBRANCH  26  33
BRANCH  31  34
ATOM     34  O   UNL     1      -7.050  13.047  16.789  0.00  0.00    +0.000 OA
ATOM     35  C   UNL     1      -6.648  14.409  16.794  0.00  0.00    +0.000 C 
ENDBRANCH  31  34
ENDBRANCH  25  29
ENDBRANCH  24  25
ENDBRANCH  22  24
ENDBRANCH   1  22
BRANCH   2  36
ATOM     36  O   UNL     1       1.927   8.964  18.149  0.00  0.00    +0.000 OA
ATOM     37  C   UNL     1       2.452   7.654  17.964  0.00  0.00    +0.000 C 
ENDBRANCH   2  36
TORSDOF 7
ENDMDL
MODEL 4
REMARK VINA RESULT:      -8.0      5.033      8.934
REMARK  Name = 
REMARK  10 active torsions:
REMARK  status: ('A' for Active; 'I' for Inactive)
REMARK    1  A    between atoms: C_1  and  O_2
REMARK    2  A    between atoms: O_2  and  C_3
REMARK    3  A    between atoms: C_6  and  C_7
REMARK    4  A    between atoms: C_7  and  C_8
REMARK    5  A    between atoms: C_8  and  N_9
REMARK    6  A    between atoms: N_9  and  C_10
REMARK    7  A    between atoms: C_11  and  O_12
REMARK    8  A    between atoms: O_12  and  C_13
REMARK    9  A    between atoms: C_34  and  O_35
REMARK   10  A    between atoms: O_35  and  C_36
REMARK                            x       y       z     vdW  Elec       q    Type
REMARK                         _______ _______ _______ _____ _____    ______ ____
ROOT
ATOM      1  C   UNL     1      -0.671  11.041  18.967  0.00  0.00    +0.000 A 
ATOM      2  C   UNL     1       0.332  10.041  19.030  0.00  0.00    +0.000 A 
ATOM      3  C   UNL     1       0.723   9.569  20.280  0.00  0.00    +0.000 A 
ATOM      4  C   UNL     1       0.134  10.080  21.466  0.00  0.00    +0.000 A 
ATOM      5  C   UNL     1      -0.736  11.201  21.455  0.00  0.00    +0.000 A 
ATOM      6  C   UNL     1      -1.293  11.872  22.622  0.00  0.00    +0.000 A 
ATOM      7  C   UNL     1      -1.812  13.190  22.506  0.00  0.00    +0.000 A 
ATOM      8  N   UNL     1      -1.462  13.781  21.324  0.00  0.00    +0.000 N 
ATOM      9  C   UNL     1      -1.395  13.075  20.174  0.00  0.00    +0.000 A 
ATOM     10  C   UNL     1      -0.998  11.740  20.187  0.00  0.00    +0.000 A 
ATOM     11  C   UNL     1      -0.538  14.981  21.406  0.00  0.00    +0.000 C 
ATOM     12  C   UNL     1       0.062  15.068  22.818  0.00  0.00    +0.000 C 
ATOM     13  C   UNL     1      -1.156  15.270  23.670  0.00  0.00    +0.000 A 
ATOM     14  C   UNL     1      -1.389  16.536  24.221  0.00  0.00    +0.000 A 
ATOM     15  C   UNL     1      -2.666  16.820  24.612  0.00  0.00    +0.000 A 
ATOM     16  C   UNL     1      -3.660  15.874  24.549  0.00  0.00    +0.000 A 
ATOM     17  C   UNL     1      -3.437  14.577  24.037  0.00  0.00    +0.000 A 
ATOM     18  C   UNL     1      -2.148  14.251  23.537  0.00  0.00    +0.000 A 
ATOM     19  O   UNL     1      -4.860  16.422  24.930  0.00  0.00    +0.000 OA
ATOM     20  C   UNL     1      -4.489  17.796  25.227  0.00  0.00    +0.000 C 
ATOM     21  O   UNL     1      -3.101  18.059  24.963  0.00  0.00    +0.000 OA
ENDROOT
BRANCH   1  22
ATOM     22  N   UNL     1      -1.254  11.485  17.744  0.00  0.00    +0.000 N 
ATOM     23  H   UNL     1      -1.706  12.389  17.845  0.00  0.00    +0.000 HD
BRANCH  22  24
ATOM     24  C   UNL     1      -2.185  10.562  17.043  0.00  0.00    +0.000 C 
BRANCH  24  25
ATOM     25  C   UNL     1      -3.404  10.203  17.910  0.00  0.00    +0.000 C 
BRANCH  25  29
ATOM     26  C   UNL     1      -6.400  13.333  18.201  0.00  0.00    +0.000 A 
ATOM     27  C   UNL     1      -6.058  12.773  16.957  0.00  0.00    +0.000 A 
ATOM     28  C   UNL     1      -5.066  11.789  16.847  0.00  0.00    +0.000 A 
ATOM     29  C   UNL     1      -4.369  11.373  17.974  0.00  0.00    +0.000 A 
ATOM     30  C   UNL     1      -4.627  12.007  19.191  0.00  0.00    +0.000 A 
ATOM     31  C   UNL     1      -5.634  12.987  19.321  0.00  0.00    +0.000 A 
BRANCH  26  33
ATOM     32  C   UNL     1      -7.287  15.453  17.619  0.00  0.00    +0.000 C 
ATOM     33  O   UNL     1      -7.431  14.222  18.329  0.00  0.00    +0.000 OA
ENDBRANCH  26  33
BRANCH  31  34
ATOM     34  O   UNL     1      -5.725  13.451  20.607  0.00  0.00    +0.000 OA
ATOM     35  C   UNL     1      -5.373  12.595  21.684  0.00  0.00    +0.000 C 
ENDBRANCH  31  34
ENDBRANCH  25  29
ENDBRANCH  24  25
ENDBRANCH  22  24
ENDBRANCH   1  22
BRANCH   2  36
ATOM     36  O   UNL     1       0.928   9.685  17.847  0.00  0.00    +0.000 OA
ATOM     37  C   UNL     1       2.016   8.769  17.805  0.00  0.00    +0.000 C 
ENDBRANCH   2  36
TORSDOF 7
ENDMDL
MODEL 5
REMARK VINA RESULT:      -7.8      4.326      5.966
REMARK  Name = 
REMARK  10 active torsions:
REMARK  status: ('A' for Active; 'I' for Inactive)
REMARK    1  A    between atoms: C_1  and  O_2
REMARK    2  A    between atoms: O_2  and  C_3
REMARK    3  A    between atoms: C_6  and  C_7
REMARK    4  A    between atoms: C_7  and  C_8
REMARK    5  A    between atoms: C_8  and  N_9
REMARK    6  A    between atoms: N_9  and  C_10
REMARK    7  A    between atoms: C_11  and  O_12
REMARK    8  A    between atoms: O_12  and  C_13
REMARK    9  A    between atoms: C_34  and  O_35
REMARK   10  A    between atoms: O_35  and  C_36
REMARK                            x       y       z     vdW  Elec       q    Type
REMARK                         _______ _______ _______ _____ _____    ______ ____
ROOT
ATOM      1  C   UNL     1      -2.112  11.333  18.202  0.00  0.00    +0.000 A 
ATOM      2  C   UNL     1      -3.154  10.574  17.609  0.00  0.00    +0.000 A 
ATOM      3  C   UNL     1      -4.473  10.919  17.894  0.00  0.00    +0.000 A 
ATOM      4  C   UNL     1      -4.768  12.002  18.762  0.00  0.00    +0.000 A 
ATOM      5  C   UNL     1      -3.763  12.667  19.512  0.00  0.00    +0.000 A 
ATOM      6  C   UNL     1      -3.977  13.702  20.513  0.00  0.00    +0.000 A 
ATOM      7  C   UNL     1      -2.959  14.000  21.459  0.00  0.00    +0.000 A 
ATOM      8  N   UNL     1      -1.975  13.051  21.475  0.00  0.00    +0.000 N 
ATOM      9  C   UNL     1      -1.561  12.444  20.341  0.00  0.00    +0.000 A 
ATOM     10  C   UNL     1      -2.457  12.199  19.304  0.00  0.00    +0.000 A 
ATOM     11  C   UNL     1      -1.838  12.229  22.742  0.00  0.00    +0.000 C 
ATOM     12  C   UNL     1      -3.076  12.442  23.626  0.00  0.00    +0.000 C 
ATOM     13  C   UNL     1      -3.002  13.909  23.929  0.00  0.00    +0.000 A 
ATOM     14  C   UNL     1      -2.620  14.311  25.215  0.00  0.00    +0.000 A 
ATOM     15  C   UNL     1      -2.147  15.585  25.354  0.00  0.00    +0.000 A 
ATOM     16  C   UNL     1      -2.131  16.462  24.297  0.00  0.00    +0.000 A 
ATOM     17  C   UNL     1      -2.554  16.089  23.001  0.00  0.00    +0.000 A 
ATOM     18  C   UNL     1      -2.976  14.752  22.777  0.00  0.00    +0.000 A 
ATOM     19  O   UNL     1      -1.550  17.647  24.673  0.00  0.00    +0.000 OA
ATOM     20  C   UNL     1      -1.214  17.396  26.065  0.00  0.00    +0.000 C 
ATOM     21  O   UNL     1      -1.542  16.058  26.476  0.00  0.00    +0.000 OA
ENDROOT
BRANCH   1  22
ATOM     22  N   UNL     1      -0.738  11.168  17.862  0.00  0.00    +0.000 N 
ATOM     23  H   UNL     1      -0.615  10.895  16.892  0.00  0.00    +0.000 HD
BRANCH  22  24
ATOM     24  C   UNL     1       0.086  10.272  18.716  0.00  0.00    +0.000 C 
BRANCH  24  25
ATOM     25  C   UNL     1       1.354   9.787  17.991  0.00  0.00    +0.000 C 
BRANCH  25  29
ATOM     26  C   UNL     1       2.566   5.973  19.677  0.00  0.00    +0.000 A 
ATOM     27  C   UNL     1       1.923   6.942  20.468  0.00  0.00    +0.000 A 
ATOM     28  C   UNL     1       1.561   8.191  19.945  0.00  0.00    +0.000 A 
ATOM     29  C   UNL     1       1.870   8.510  18.628  0.00  0.00    +0.000 A 
ATOM     30  C   UNL     1       2.607   7.595  17.874  0.00  0.00    +0.000 A 
ATOM     31  C   UNL     1       2.963   6.327  18.382  0.00  0.00    +0.000 A 
BRANCH  26  33
ATOM     32  C   UNL     1       1.702   3.948  20.556  0.00  0.00    +0.000 C 
ATOM     33  O   UNL     1       2.834   4.720  20.154  0.00  0.00    +0.000 OA
ENDBRANCH  26  33
BRANCH  31  34
ATOM     34  O   UNL     1       3.661   5.590  17.460  0.00  0.00    +0.000 OA
ATOM     35  C   UNL     1       5.053   5.814  17.300  0.00  0.00    +0.000 C 
ENDBRANCH  31  34
ENDBRANCH  25  29
ENDBRANCH  24  25
ENDBRANCH  22  24
ENDBRANCH   1  22
BRANCH   2  36
ATOM     36  O   UNL     1      -2.781   9.477  16.876  0.00  0.00    +0.000 OA
ATOM     37  C   UNL     1      -2.826   9.479  15.454  0.00  0.00    +0.000 C 
ENDBRANCH   2  36
TORSDOF 7
ENDMDL
MODEL 6
REMARK VINA RESULT:      -7.7      1.157      1.795
REMARK  Name = 
REMARK  10 active torsions:
REMARK  status: ('A' for Active; 'I' for Inactive)
REMARK    1  A    between atoms: C_1  and  O_2
REMARK    2  A    between atoms: O_2  and  C_3
REMARK    3  A    between atoms: C_6  and  C_7
REMARK    4  A    between atoms: C_7  and  C_8
REMARK    5  A    between atoms: C_8  and  N_9
REMARK    6  A    between atoms: N_9  and  C_10
REMARK    7  A    between atoms: C_11  and  O_12
REMARK    8  A    between atoms: O_12  and  C_13
REMARK    9  A    between atoms: C_34  and  O_35
REMARK   10  A    between atoms: O_35  and  C_36
REMARK                            x       y       z     vdW  Elec       q    Type
REMARK                         _______ _______ _______ _____ _____    ______ ____
ROOT
ATOM      1  C   UNL     1       1.146   8.919  19.399  0.00  0.00    +0.000 A 
ATOM      2  C   UNL     1       1.372   8.148  20.567  0.00  0.00    +0.000 A 
ATOM      3  C   UNL     1       1.126   8.731  21.807  0.00  0.00    +0.000 A 
ATOM      4  C   UNL     1       0.664  10.070  21.901  0.00  0.00    +0.000 A 
ATOM      5  C   UNL     1       0.599  10.928  20.771  0.00  0.00    +0.000 A 
ATOM      6  C   UNL     1       0.255  12.343  20.783  0.00  0.00    +0.000 A 
ATOM      7  C   UNL     1       0.604  13.170  19.681  0.00  0.00    +0.000 A 
ATOM      8  N   UNL     1       1.491  12.560  18.838  0.00  0.00    +0.000 N 
ATOM      9  C   UNL     1       1.420  11.236  18.577  0.00  0.00    +0.000 A 
ATOM     10  C   UNL     1       0.989  10.346  19.557  0.00  0.00    +0.000 A 
ATOM     11  C   UNL     1       2.876  13.170  18.742  0.00  0.00    +0.000 C 
ATOM     12  C   UNL     1       3.070  14.177  19.886  0.00  0.00    +0.000 C 
ATOM     13  C   UNL     1       2.013  15.200  19.593  0.00  0.00    +0.000 A 
ATOM     14  C   UNL     1       2.404  16.445  19.086  0.00  0.00    +0.000 A 
ATOM     15  C   UNL     1       1.454  17.178  18.435  0.00  0.00    +0.000 A 
ATOM     16  C   UNL     1       0.149  16.754  18.359  0.00  0.00    +0.000 A 
ATOM     17  C   UNL     1      -0.276  15.521  18.903  0.00  0.00    +0.000 A 
ATOM     18  C   UNL     1       0.686  14.676  19.518  0.00  0.00    +0.000 A 
ATOM     19  O   UNL     1      -0.590  17.626  17.600  0.00  0.00    +0.000 OA
ATOM     20  C   UNL     1       0.402  18.620  17.222  0.00  0.00    +0.000 C 
ATOM     21  O   UNL     1       1.716  18.296  17.706  0.00  0.00    +0.000 OA
ENDROOT
BRANCH   1  22
ATOM     22  N   UNL     1       1.218   8.379  18.082  0.00  0.00    +0.000 N 
ATOM     23  H   UNL     1       0.843   7.436  18.037  0.00  0.00    +0.000 HD
BRANCH  22  24
ATOM     24  C   UNL     1       2.536   8.400  17.393  0.00  0.00    +0.000 C 
BRANCH  24  25
ATOM     25  C   UNL     1       3.584   7.545  18.125  0.00  0.00    +0.000 C 
BRANCH  25  29
ATOM     26  C   UNL     1       5.406   4.435  15.704  0.00  0.00    +0.000 A 
ATOM     27  C   UNL     1       5.638   5.794  15.428  0.00  0.00    +0.000 A 
ATOM     28  C   UNL     1       5.025   6.807  16.180  0.00  0.00    +0.000 A 
ATOM     29  C   UNL     1       4.138   6.479  17.197  0.00  0.00    +0.000 A 
ATOM     30  C   UNL     1       3.820   5.135  17.399  0.00  0.00    +0.000 A 
ATOM     31  C   UNL     1       4.441   4.104  16.663  0.00  0.00    +0.000 A 
BRANCH  26  33
ATOM     32  C   UNL     1       6.079   3.541  13.613  0.00  0.00    +0.000 C 
ATOM     33  O   UNL     1       6.074   3.444  15.038  0.00  0.00    +0.000 OA
ENDBRANCH  26  33
BRANCH  31  34
ATOM     34  O   UNL     1       3.993   2.867  17.047  0.00  0.00    +0.000 OA
ATOM     35  C   UNL     1       3.738   2.613  18.420  0.00  0.00    +0.000 C 
ENDBRANCH  31  34
ENDBRANCH  25  29
ENDBRANCH  24  25
ENDBRANCH  22  24
ENDBRANCH   1  22
BRANCH   2  36
ATOM     36  O   UNL     1       1.926   6.905  20.392  0.00  0.00    +0.000 OA
ATOM     37  C   UNL     1       1.389   5.752  21.029  0.00  0.00    +0.000 C 
ENDBRANCH   2  36
TORSDOF 7
ENDMDL
MODEL 7
REMARK VINA RESULT:      -7.6      5.063      8.644
REMARK  Name = 
REMARK  10 active torsions:
REMARK  status: ('A' for Active; 'I' for Inactive)
REMARK    1  A    between atoms: C_1  and  O_2
REMARK    2  A    between atoms: O_2  and  C_3
REMARK    3  A    between atoms: C_6  and  C_7
REMARK    4  A    between atoms: C_7  and  C_8
REMARK    5  A    between atoms: C_8  and  N_9
REMARK    6  A    between atoms: N_9  and  C_10
REMARK    7  A    between atoms: C_11  and  O_12
REMARK    8  A    between atoms: O_12  and  C_13
REMARK    9  A    between atoms: C_34  and  O_35
REMARK   10  A    between atoms: O_35  and  C_36
REMARK                            x       y       z     vdW  Elec       q    Type
REMARK                         _______ _______ _______ _____ _____    ______ ____
ROOT
ATOM      1  C   UNL     1       1.285  14.846  20.214  0.00  0.00    +0.000 A 
ATOM      2  C   UNL     1       0.336  15.850  19.890  0.00  0.00    +0.000 A 
ATOM      3  C   UNL     1       0.575  16.655  18.779  0.00  0.00    +0.000 A 
ATOM      4  C   UNL     1       1.742  16.479  17.992  0.00  0.00    +0.000 A 
ATOM      5  C   UNL     1       2.796  15.613  18.385  0.00  0.00    +0.000 A 
ATOM      6  C   UNL     1       4.078  15.456  17.713  0.00  0.00    +0.000 A 
ATOM      7  C   UNL     1       5.179  14.878  18.404  0.00  0.00    +0.000 A 
ATOM      8  N   UNL     1       4.954  14.789  19.749  0.00  0.00    +0.000 N 
ATOM      9  C   UNL     1       3.732  14.492  20.243  0.00  0.00    +0.000 A 
ATOM     10  C   UNL     1       2.582  14.921  19.586  0.00  0.00    +0.000 A 
ATOM     11  C   UNL     1       5.832  15.640  20.647  0.00  0.00    +0.000 C 
ATOM     12  C   UNL     1       6.582  16.675  19.795  0.00  0.00    +0.000 C 
ATOM     13  C   UNL     1       7.415  15.807  18.900  0.00  0.00    +0.000 A 
ATOM     14  C   UNL     1       8.793  15.725  19.135  0.00  0.00    +0.000 A 
ATOM     15  C   UNL     1       9.449  14.643  18.622  0.00  0.00    +0.000 A 
ATOM     16  C   UNL     1       8.803  13.722  17.834  0.00  0.00    +0.000 A 
ATOM     17  C   UNL     1       7.422  13.810  17.548  0.00  0.00    +0.000 A 
ATOM     18  C   UNL     1       6.669  14.867  18.124  0.00  0.00    +0.000 A 
ATOM     19  O   UNL     1       9.657  12.700  17.502  0.00  0.00    +0.000 OA
ATOM     20  C   UNL     1      10.884  13.096  18.172  0.00  0.00    +0.000 C 
ATOM     21  O   UNL     1      10.728  14.304  18.935  0.00  0.00    +0.000 OA
ENDROOT
BRANCH   1  22
ATOM     22  N   UNL     1       1.070  13.871  21.231  0.00  0.00    +0.000 N 
ATOM     23  H   UNL     1       1.869  13.786  21.852  0.00  0.00    +0.000 HD
BRANCH  22  24
ATOM     24  C   UNL     1       0.649  12.508  20.809  0.00  0.00    +0.000 C 
BRANCH  24  25
ATOM     25  C   UNL     1      -0.875  12.318  20.908  0.00  0.00    +0.000 C 
BRANCH  25  29
ATOM     26  C   UNL     1      -2.578  10.400  17.404  0.00  0.00    +0.000 A 
ATOM     27  C   UNL     1      -1.227  10.211  17.746  0.00  0.00    +0.000 A 
ATOM     28  C   UNL     1      -0.657  10.855  18.854  0.00  0.00    +0.000 A 
ATOM     29  C   UNL     1      -1.418  11.731  19.617  0.00  0.00    +0.000 A 
ATOM     30  C   UNL     1      -2.725  12.007  19.214  0.00  0.00    +0.000 A 
ATOM     31  C   UNL     1      -3.319  11.354  18.112  0.00  0.00    +0.000 A 
BRANCH  26  33
ATOM     32  C   UNL     1      -2.907  10.187  15.066  0.00  0.00    +0.000 C 
ATOM     33  O   UNL     1      -3.164   9.701  16.384  0.00  0.00    +0.000 OA
ENDBRANCH  26  33
BRANCH  31  34
ATOM     34  O   UNL     1      -4.612  11.763  17.917  0.00  0.00    +0.000 OA
ATOM     35  C   UNL     1      -5.300  12.423  18.969  0.00  0.00    +0.000 C 
ENDBRANCH  31  34
ENDBRANCH  25  29
ENDBRANCH  24  25
ENDBRANCH  22  24
ENDBRANCH   1  22
BRANCH   2  36
ATOM     36  O   UNL     1      -0.704  16.027  20.766  0.00  0.00    +0.000 OA
ATOM     37  C   UNL     1      -1.833  16.825  20.432  0.00  0.00    +0.000 C 
ENDBRANCH   2  36
TORSDOF 7
ENDMDL
MODEL 8
REMARK VINA RESULT:      -7.6      4.995      8.639
REMARK  Name = 
REMARK  10 active torsions:
REMARK  status: ('A' for Active; 'I' for Inactive)
REMARK    1  A    between atoms: C_1  and  O_2
REMARK    2  A    between atoms: O_2  and  C_3
REMARK    3  A    between atoms: C_6  and  C_7
REMARK    4  A    between atoms: C_7  and  C_8
REMARK    5  A    between atoms: C_8  and  N_9
REMARK    6  A    between atoms: N_9  and  C_10
REMARK    7  A    between atoms: C_11  and  O_12
REMARK    8  A    between atoms: O_12  and  C_13
REMARK    9  A    between atoms: C_34  and  O_35
REMARK   10  A    between atoms: O_35  and  C_36
REMARK                            x       y       z     vdW  Elec       q    Type
REMARK                         _______ _______ _______ _____ _____    ______ ____
ROOT
ATOM      1  C   UNL     1       0.113  15.441  18.756  0.00  0.00    +0.000 A 
ATOM      2  C   UNL     1      -0.585  16.674  18.821  0.00  0.00    +0.000 A 
ATOM      3  C   UNL     1       0.083  17.837  18.448  0.00  0.00    +0.000 A 
ATOM      4  C   UNL     1       1.434  17.792  18.017  0.00  0.00    +0.000 A 
ATOM      5  C   UNL     1       2.218  16.612  18.110  0.00  0.00    +0.000 A 
ATOM      6  C   UNL     1       3.638  16.495  17.809  0.00  0.00    +0.000 A 
ATOM      7  C   UNL     1       4.384  15.393  18.309  0.00  0.00    +0.000 A 
ATOM      8  N   UNL     1       3.701  14.701  19.271  0.00  0.00    +0.000 N 
ATOM      9  C   UNL     1       2.365  14.516  19.193  0.00  0.00    +0.000 A 
ATOM     10  C   UNL     1       1.550  15.491  18.623  0.00  0.00    +0.000 A 
ATOM     11  C   UNL     1       4.274  14.733  20.675  0.00  0.00    +0.000 C 
ATOM     12  C   UNL     1       5.349  15.828  20.763  0.00  0.00    +0.000 C 
ATOM     13  C   UNL     1       6.373  15.348  19.777  0.00  0.00    +0.000 A 
ATOM     14  C   UNL     1       7.574  14.814  20.262  0.00  0.00    +0.000 A 
ATOM     15  C   UNL     1       8.284  14.011  19.416  0.00  0.00    +0.000 A 
ATOM     16  C   UNL     1       7.883  13.807  18.118  0.00  0.00    +0.000 A 
ATOM     17  C   UNL     1       6.698  14.372  17.596  0.00  0.00    +0.000 A 
ATOM     18  C   UNL     1       5.874  15.148  18.454  0.00  0.00    +0.000 A 
ATOM     19  O   UNL     1       8.720  12.912  17.499  0.00  0.00    +0.000 OA
ATOM     20  C   UNL     1       9.666  12.594  18.557  0.00  0.00    +0.000 C 
ATOM     21  O   UNL     1       9.346  13.251  19.795  0.00  0.00    +0.000 OA
ENDROOT
BRANCH   1  22
ATOM     22  N   UNL     1      -0.513  14.178  18.966  0.00  0.00    +0.000 N 
ATOM     23  H   UNL     1      -1.320  14.049  18.363  0.00  0.00    +0.000 HD
BRANCH  22  24
ATOM     24  C   UNL     1      -0.895  13.814  20.357  0.00  0.00    +0.000 C 
BRANCH  24  25
ATOM     25  C   UNL     1      -1.081  12.297  20.527  0.00  0.00    +0.000 C 
BRANCH  25  29
ATOM     26  C   UNL     1      -2.705  10.299  17.030  0.00  0.00    +0.000 A 
ATOM     27  C   UNL     1      -1.363  10.116  17.409  0.00  0.00    +0.000 A 
ATOM     28  C   UNL     1      -0.818  10.786  18.514  0.00  0.00    +0.000 A 
ATOM     29  C   UNL     1      -1.595  11.680  19.238  0.00  0.00    +0.000 A 
ATOM     30  C   UNL     1      -2.892  11.948  18.798  0.00  0.00    +0.000 A 
ATOM     31  C   UNL     1      -3.460  11.270  17.699  0.00  0.00    +0.000 A 
BRANCH  26  33
ATOM     32  C   UNL     1      -3.041  10.074  14.694  0.00  0.00    +0.000 C 
ATOM     33  O   UNL     1      -3.268   9.577  16.014  0.00  0.00    +0.000 OA
ENDBRANCH  26  33
BRANCH  31  34
ATOM     34  O   UNL     1      -4.748  11.676  17.463  0.00  0.00    +0.000 OA
ATOM     35  C   UNL     1      -5.808  11.096  18.209  0.00  0.00    +0.000 C 
ENDBRANCH  31  34
ENDBRANCH  25  29
ENDBRANCH  24  25
ENDBRANCH  22  24
ENDBRANCH   1  22
BRANCH   2  36
ATOM     36  O   UNL     1      -1.848  16.643  19.355  0.00  0.00    +0.000 OA
ATOM     37  C   UNL     1      -2.508  17.831  19.779  0.00  0.00    +0.000 C 
ENDBRANCH   2  36
TORSDOF 7
ENDMDL
MODEL 9
REMARK VINA RESULT:      -7.6      3.930      6.387
REMARK  Name = 
REMARK  10 active torsions:
REMARK  status: ('A' for Active; 'I' for Inactive)
REMARK    1  A    between atoms: C_1  and  O_2
REMARK    2  A    between atoms: O_2  and  C_3
REMARK    3  A    between atoms: C_6  and  C_7
REMARK    4  A    between atoms: C_7  and  C_8
REMARK    5  A    between atoms: C_8  and  N_9
REMARK    6  A    between atoms: N_9  and  C_10
REMARK    7  A    between atoms: C_11  and  O_12
REMARK    8  A    between atoms: O_12  and  C_13
REMARK    9  A    between atoms: C_34  and  O_35
REMARK   10  A    between atoms: O_35  and  C_36
REMARK                            x       y       z     vdW  Elec       q    Type
REMARK                         _______ _______ _______ _____ _____    ______ ____
ROOT
ATOM      1  C   UNL     1       1.659  13.284  19.336  0.00  0.00    +0.000 A 
ATOM      2  C   UNL     1       2.794  14.133  19.393  0.00  0.00    +0.000 A 
ATOM      3  C   UNL     1       3.006  14.882  20.547  0.00  0.00    +0.000 A 
ATOM      4  C   UNL     1       2.105  14.803  21.640  0.00  0.00    +0.000 A 
ATOM      5  C   UNL     1       0.869  14.108  21.553  0.00  0.00    +0.000 A 
ATOM      6  C   UNL     1      -0.171  14.069  22.571  0.00  0.00    +0.000 A 
ATOM      7  C   UNL     1      -1.495  13.686  22.222  0.00  0.00    +0.000 A 
ATOM      8  N   UNL     1      -1.686  13.663  20.868  0.00  0.00    +0.000 N 
ATOM      9  C   UNL     1      -0.715  13.248  20.025  0.00  0.00    +0.000 A 
ATOM     10  C   UNL     1       0.625  13.479  20.323  0.00  0.00    +0.000 A 
ATOM     11  C   UNL     1      -2.655  14.680  20.297  0.00  0.00    +0.000 C 
ATOM     12  C   UNL     1      -2.971  15.740  21.363  0.00  0.00    +0.000 C 
ATOM     13  C   UNL     1      -3.623  14.925  22.440  0.00  0.00    +0.000 A 
ATOM     14  C   UNL     1      -5.007  15.036  22.623  0.00  0.00    +0.000 A 
ATOM     15  C   UNL     1      -5.633  14.014  23.276  0.00  0.00    +0.000 A 
ATOM     16  C   UNL     1      -4.924  12.965  23.809  0.00  0.00    +0.000 A 
ATOM     17  C   UNL     1      -3.522  12.856  23.674  0.00  0.00    +0.000 A 
ATOM     18  C   UNL     1      -2.826  13.846  22.931  0.00  0.00    +0.000 A 
ATOM     19  O   UNL     1      -5.781  12.040  24.350  0.00  0.00    +0.000 OA
ATOM     20  C   UNL     1      -7.081  12.635  24.087  0.00  0.00    +0.000 C 
ATOM     21  O   UNL     1      -6.982  13.864  23.347  0.00  0.00    +0.000 OA
ENDROOT
BRANCH   1  22
ATOM     22  N   UNL     1       1.428  12.363  18.273  0.00  0.00    +0.000 N 
ATOM     23  H   UNL     1       0.446  12.116  18.190  0.00  0.00    +0.000 HD
BRANCH  22  24
ATOM     24  C   UNL     1       2.236  11.114  18.247  0.00  0.00    +0.000 C 
BRANCH  24  25
ATOM     25  C   UNL     1       1.393   9.888  17.857  0.00  0.00    +0.000 C 
BRANCH  25  29
ATOM     26  C   UNL     1       2.741   6.131  19.568  0.00  0.00    +0.000 A 
ATOM     27  C   UNL     1       1.958   7.027  20.317  0.00  0.00    +0.000 A 
ATOM     28  C   UNL     1       1.549   8.259  19.788  0.00  0.00    +0.000 A 
ATOM     29  C   UNL     1       1.948   8.636  18.512  0.00  0.00    +0.000 A 
ATOM     30  C   UNL     1       2.817   7.800  17.810  0.00  0.00    +0.000 A 
ATOM     31  C   UNL     1       3.224   6.549  18.321  0.00  0.00    +0.000 A 
BRANCH  26  33
ATOM     32  C   UNL     1       2.328   4.447  21.184  0.00  0.00    +0.000 C 
ATOM     33  O   UNL     1       3.062   4.889  20.042  0.00  0.00    +0.000 OA
ENDBRANCH  26  33
BRANCH  31  34
ATOM     34  O   UNL     1       4.055   5.892  17.452  0.00  0.00    +0.000 OA
ATOM     35  C   UNL     1       4.846   6.643  16.543  0.00  0.00    +0.000 C 
ENDBRANCH  31  34
ENDBRANCH  25  29
ENDBRANCH  24  25
ENDBRANCH  22  24
ENDBRANCH   1  22
BRANCH   2  36
ATOM     36  O   UNL     1       3.549  14.237  18.252  0.00  0.00    +0.000 OA
ATOM     37  C   UNL     1       3.580  15.434  17.484  0.00  0.00    +0.000 C 
ENDBRANCH   2  36
TORSDOF 7
ENDMDL
