MODEL 1
REMARK VINA RESULT:      -7.9      0.000      0.000
REMARK  Name = 
REMARK  4 active torsions:
REMARK  status: ('A' for Active; 'I' for Inactive)
REMARK    1  A    between atoms: C_5  and  C_6
REMARK    2  A    between atoms: C_15  and  C_16
REMARK    3  A    between atoms: C_16  and  S_17
REMARK    4  A    between atoms: S_17  and  C_18
REMARK                            x       y       z     vdW  Elec       q    Type
REMARK                         _______ _______ _______ _____ _____    ______ ____
ROOT
ATOM      1  O   UNL     1       3.104   1.239  18.815  0.00  0.00    +0.000 OA
ATOM      2  C   UNL     1       3.761   2.246  18.601  0.00  0.00    +0.000 C 
ATOM      3  C   UNL     1       4.789   2.806  19.537  0.00  0.00    +0.000 C 
ATOM      4  C   UNL     1       5.213   4.132  18.925  0.00  0.00    +0.000 C 
ATOM      5  C   UNL     1       4.436   4.257  17.616  0.00  0.00    +0.000 C 
ATOM      6  O   UNL     1       3.551   5.393  17.659  0.00  0.00    +0.000 OA
ATOM      7  C   UNL     1       2.186   4.918  17.798  0.00  0.00    +0.000 C 
ATOM      8  C   UNL     1       2.237   3.511  17.212  0.00  0.00    +0.000 C 
ATOM      9  N   UNL     1       3.579   3.112  17.535  0.00  0.00    +0.000 N 
ENDROOT
BRANCH   5  10
ATOM     10  C   UNL     1       5.399   4.395  16.441  0.00  0.00    +0.000 A 
ATOM     11  C   UNL     1       6.608   5.104  16.552  0.00  0.00    +0.000 A 
ATOM     12  C   UNL     1       7.413   5.333  15.430  0.00  0.00    +0.000 A 
ATOM     13  C   UNL     1       7.026   4.859  14.174  0.00  0.00    +0.000 A 
ATOM     14 CL   UNL     1       8.047   5.221  12.827  0.00  0.00    +0.000 Cl
ATOM     15  C   UNL     1       5.837   4.139  14.044  0.00  0.00    +0.000 A 
ATOM     16 CL   UNL     1       5.284   3.531  12.524  0.00  0.00    +0.000 Cl
ATOM     17  C   UNL     1       5.034   3.909  15.170  0.00  0.00    +0.000 A 
ENDBRANCH   5  10
BRANCH   7  18
ATOM     18  C   UNL     1       1.757   4.930  19.277  0.00  0.00    +0.000 C 
BRANCH  18  19
ATOM     19  S   UNL     1       2.780   6.087  20.269  0.00  0.00    +0.000 S 
BRANCH  19  20
ATOM     20  C   UNL     1       1.897   7.610  19.966  0.00  0.00    +0.000 A 
ATOM     21  C   UNL     1       1.098   8.162  20.976  0.00  0.00    +0.000 A 
ATOM     22  C   UNL     1       0.388   9.344  20.746  0.00  0.00    +0.000 A 
ATOM     23  C   UNL     1       0.482   9.979  19.512  0.00  0.00    +0.000 A 
ATOM     24 CL   UNL     1      -0.408  11.422  19.213  0.00  0.00    +0.000 Cl
ATOM     25  C   UNL     1       1.295   9.451  18.506  0.00  0.00    +0.000 A 
ATOM     26  C   UNL     1       2.004   8.273  18.739  0.00  0.00    +0.000 A 
ENDBRANCH  19  20
ENDBRANCH  18  19
ENDBRANCH   7  18
TORSDOF 4
ENDMDL
MODEL 2
REMARK VINA RESULT:      -7.8      2.124      7.337
REMARK  Name = 
REMARK  4 active torsions:
REMARK  status: ('A' for Active; 'I' for Inactive)
REMARK    1  A    between atoms: C_5  and  C_6
REMARK    2  A    between atoms: C_15  and  C_16
REMARK    3  A    between atoms: C_16  and  S_17
REMARK    4  A    between atoms: S_17  and  C_18
REMARK                            x       y       z     vdW  Elec       q    Type
REMARK                         _______ _______ _______ _____ _____    ______ ____
ROOT
ATOM      1  O   UNL     1       4.215   2.980  20.017  0.00  0.00    +0.000 OA
ATOM      2  C   UNL     1       3.837   3.829  19.226  0.00  0.00    +0.000 C 
ATOM      3  C   UNL     1       3.025   3.547  17.999  0.00  0.00    +0.000 C 
ATOM      4  C   UNL     1       2.940   4.871  17.256  0.00  0.00    +0.000 C 
ATOM      5  C   UNL     1       3.676   5.888  18.126  0.00  0.00    +0.000 C 
ATOM      6  O   UNL     1       4.828   6.408  17.435  0.00  0.00    +0.000 OA
ATOM      7  C   UNL     1       6.025   5.840  18.027  0.00  0.00    +0.000 C 
ATOM      8  C   UNL     1       5.588   5.484  19.443  0.00  0.00    +0.000 C 
ATOM      9  N   UNL     1       4.200   5.166  19.247  0.00  0.00    +0.000 N 
ENDROOT
BRANCH   5  10
ATOM     10  C   UNL     1       2.741   7.032  18.509  0.00  0.00    +0.000 A 
ATOM     11  C   UNL     1       2.420   8.060  17.606  0.00  0.00    +0.000 A 
ATOM     12  C   UNL     1       1.670   9.169  18.015  0.00  0.00    +0.000 A 
ATOM     13  C   UNL     1       1.227   9.273  19.336  0.00  0.00    +0.000 A 
ATOM     14 CL   UNL     1       0.347  10.692  19.781  0.00  0.00    +0.000 Cl
ATOM     15  C   UNL     1       1.521   8.255  20.245  0.00  0.00    +0.000 A 
ATOM     16 CL   UNL     1       1.020   8.316  21.898  0.00  0.00    +0.000 Cl
ATOM     17  C   UNL     1       2.270   7.145  19.832  0.00  0.00    +0.000 A 
ENDBRANCH   5  10
BRANCH   7  18
ATOM     18  C   UNL     1       6.495   4.612  17.225  0.00  0.00    +0.000 C 
BRANCH  18  19
ATOM     19  S   UNL     1       7.635   5.085  15.866  0.00  0.00    +0.000 S 
BRANCH  19  20
ATOM     20  C   UNL     1       6.711   4.470  14.466  0.00  0.00    +0.000 A 
ATOM     21  C   UNL     1       5.353   4.159  14.614  0.00  0.00    +0.000 A 
ATOM     22  C   UNL     1       4.622   3.660  13.532  0.00  0.00    +0.000 A 
ATOM     23  C   UNL     1       5.244   3.481  12.301  0.00  0.00    +0.000 A 
ATOM     24 CL   UNL     1       4.358   2.845  10.970  0.00  0.00    +0.000 Cl
ATOM     25  C   UNL     1       6.591   3.812  12.135  0.00  0.00    +0.000 A 
ATOM     26  C   UNL     1       7.318   4.311  13.216  0.00  0.00    +0.000 A 
ENDBRANCH  19  20
ENDBRANCH  18  19
ENDBRANCH   7  18
TORSDOF 4
ENDMDL
MODEL 3
REMARK VINA RESULT:      -7.7      2.174      7.332
REMARK  Name = 
REMARK  4 active torsions:
REMARK  status: ('A' for Active; 'I' for Inactive)
REMARK    1  A    between atoms: C_5  and  C_6
REMARK    2  A    between atoms: C_15  and  C_16
REMARK    3  A    between atoms: C_16  and  S_17
REMARK    4  A    between atoms: S_17  and  C_18
REMARK                            x       y       z     vdW  Elec       q    Type
REMARK                         _______ _______ _______ _____ _____    ______ ____
ROOT
ATOM      1  O   UNL     1       4.897   2.552  19.875  0.00  0.00    +0.000 OA
ATOM      2  C   UNL     1       4.388   3.454  19.229  0.00  0.00    +0.000 C 
ATOM      3  C   UNL     1       3.442   3.251  18.084  0.00  0.00    +0.000 C 
ATOM      4  C   UNL     1       3.209   4.636  17.502  0.00  0.00    +0.000 C 
ATOM      5  C   UNL     1       4.001   5.601  18.383  0.00  0.00    +0.000 C 
ATOM      6  O   UNL     1       5.035   6.251  17.619  0.00  0.00    +0.000 OA
ATOM      7  C   UNL     1       6.320   5.695  18.000  0.00  0.00    +0.000 C 
ATOM      8  C   UNL     1       6.078   5.175  19.413  0.00  0.00    +0.000 C 
ATOM      9  N   UNL     1       4.692   4.801  19.350  0.00  0.00    +0.000 N 
ENDROOT
BRANCH   5  10
ATOM     10  C   UNL     1       3.072   6.646  18.993  0.00  0.00    +0.000 A 
ATOM     11  C   UNL     1       2.399   6.420  20.206  0.00  0.00    +0.000 A 
ATOM     12  C   UNL     1       1.450   7.333  20.682  0.00  0.00    +0.000 A 
ATOM     13  C   UNL     1       1.153   8.488  19.954  0.00  0.00    +0.000 A 
ATOM     14 CL   UNL     1      -0.064   9.544  20.580  0.00  0.00    +0.000 Cl
ATOM     15  C   UNL     1       1.821   8.738  18.755  0.00  0.00    +0.000 A 
ATOM     16 CL   UNL     1       1.501  10.136  17.791  0.00  0.00    +0.000 Cl
ATOM     17  C   UNL     1       2.773   7.824  18.282  0.00  0.00    +0.000 A 
ENDBRANCH   5  10
BRANCH   7  18
ATOM     18  C   UNL     1       6.740   4.582  17.022  0.00  0.00    +0.000 C 
BRANCH  18  19
ATOM     19  S   UNL     1       7.645   5.258  15.575  0.00  0.00    +0.000 S 
BRANCH  19  20
ATOM     20  C   UNL     1       6.687   4.533  14.252  0.00  0.00    +0.000 A 
ATOM     21  C   UNL     1       7.289   4.292  13.010  0.00  0.00    +0.000 A 
ATOM     22  C   UNL     1       6.547   3.741  11.962  0.00  0.00    +0.000 A 
ATOM     23  C   UNL     1       5.207   3.424  12.155  0.00  0.00    +0.000 A 
ATOM     24 CL   UNL     1       4.280   2.767  10.862  0.00  0.00    +0.000 Cl
ATOM     25  C   UNL     1       4.602   3.636  13.396  0.00  0.00    +0.000 A 
ATOM     26  C   UNL     1       5.346   4.183  14.442  0.00  0.00    +0.000 A 
ENDBRANCH  19  20
ENDBRANCH  18  19
ENDBRANCH   7  18
TORSDOF 4
ENDMDL
MODEL 4
REMARK VINA RESULT:      -7.3      0.612      1.130
REMARK  Name = 
REMARK  4 active torsions:
REMARK  status: ('A' for Active; 'I' for Inactive)
REMARK    1  A    between atoms: C_5  and  C_6
REMARK    2  A    between atoms: C_15  and  C_16
REMARK    3  A    between atoms: C_16  and  S_17
REMARK    4  A    between atoms: S_17  and  C_18
REMARK                            x       y       z     vdW  Elec       q    Type
REMARK                         _______ _______ _______ _____ _____    ______ ____
ROOT
ATOM      1  O   UNL     1       2.315   1.645  18.779  0.00  0.00    +0.000 OA
ATOM      2  C   UNL     1       3.149   2.530  18.668  0.00  0.00    +0.000 C 
ATOM      3  C   UNL     1       4.249   2.790  19.652  0.00  0.00    +0.000 C 
ATOM      4  C   UNL     1       4.918   4.071  19.180  0.00  0.00    +0.000 C 
ATOM      5  C   UNL     1       4.196   4.474  17.895  0.00  0.00    +0.000 C 
ATOM      6  O   UNL     1       3.535   5.742  18.062  0.00  0.00    +0.000 OA
ATOM      7  C   UNL     1       2.104   5.516  18.158  0.00  0.00    +0.000 C 
ATOM      8  C   UNL     1       1.903   4.192  17.428  0.00  0.00    +0.000 C 
ATOM      9  N   UNL     1       3.145   3.521  17.700  0.00  0.00    +0.000 N 
ENDROOT
BRANCH   5  10
ATOM     10  C   UNL     1       5.184   4.552  16.735  0.00  0.00    +0.000 A 
ATOM     11  C   UNL     1       6.427   5.197  16.863  0.00  0.00    +0.000 A 
ATOM     12  C   UNL     1       7.262   5.376  15.753  0.00  0.00    +0.000 A 
ATOM     13  C   UNL     1       6.870   4.916  14.493  0.00  0.00    +0.000 A 
ATOM     14 CL   UNL     1       7.931   5.214  13.161  0.00  0.00    +0.000 Cl
ATOM     15  C   UNL     1       5.647   4.259  14.348  0.00  0.00    +0.000 A 
ATOM     16 CL   UNL     1       5.087   3.672  12.822  0.00  0.00    +0.000 Cl
ATOM     17  C   UNL     1       4.815   4.079  15.461  0.00  0.00    +0.000 A 
ENDBRANCH   5  10
BRANCH   7  18
ATOM     18  C   UNL     1       1.664   5.453  19.632  0.00  0.00    +0.000 C 
BRANCH  18  19
ATOM     19  S   UNL     1       2.417   6.803  20.622  0.00  0.00    +0.000 S 
BRANCH  19  20
ATOM     20  C   UNL     1       1.488   8.195  19.994  0.00  0.00    +0.000 A 
ATOM     21  C   UNL     1       1.766   8.692  18.713  0.00  0.00    +0.000 A 
ATOM     22  C   UNL     1       1.059   9.791  18.216  0.00  0.00    +0.000 A 
ATOM     23  C   UNL     1       0.071  10.387  18.992  0.00  0.00    +0.000 A 
ATOM     24 CL   UNL     1      -0.787  11.755  18.397  0.00  0.00    +0.000 Cl
ATOM     25  C   UNL     1      -0.231   9.884  20.260  0.00  0.00    +0.000 A 
ATOM     26  C   UNL     1       0.474   8.786  20.753  0.00  0.00    +0.000 A 
ENDBRANCH  19  20
ENDBRANCH  18  19
ENDBRANCH   7  18
TORSDOF 4
ENDMDL
MODEL 5
REMARK VINA RESULT:      -7.3      5.065      6.900
REMARK  Name = 
REMARK  4 active torsions:
REMARK  status: ('A' for Active; 'I' for Inactive)
REMARK    1  A    between atoms: C_5  and  C_6
REMARK    2  A    between atoms: C_15  and  C_16
REMARK    3  A    between atoms: C_16  and  S_17
REMARK    4  A    between atoms: S_17  and  C_18
REMARK                            x       y       z     vdW  Elec       q    Type
REMARK                         _______ _______ _______ _____ _____    ______ ____
ROOT
ATOM      1  O   UNL     1       7.388   4.457  15.158  0.00  0.00    +0.000 OA
ATOM      2  C   UNL     1       6.544   5.018  15.839  0.00  0.00    +0.000 C 
ATOM      3  C   UNL     1       5.558   6.019  15.317  0.00  0.00    +0.000 C 
ATOM      4  C   UNL     1       4.837   6.553  16.545  0.00  0.00    +0.000 C 
ATOM      5  C   UNL     1       5.410   5.787  17.735  0.00  0.00    +0.000 C 
ATOM      6  O   UNL     1       6.082   6.685  18.640  0.00  0.00    +0.000 OA
ATOM      7  C   UNL     1       7.515   6.492  18.513  0.00  0.00    +0.000 C 
ATOM      8  C   UNL     1       7.638   5.063  17.996  0.00  0.00    +0.000 C 
ATOM      9  N   UNL     1       6.437   4.932  17.218  0.00  0.00    +0.000 N 
ENDROOT
BRANCH   5  10
ATOM     10  C   UNL     1       4.299   5.044  18.472  0.00  0.00    +0.000 A 
ATOM     11  C   UNL     1       3.535   5.661  19.477  0.00  0.00    +0.000 A 
ATOM     12  C   UNL     1       2.613   4.927  20.233  0.00  0.00    +0.000 A 
ATOM     13  C   UNL     1       2.437   3.561  19.999  0.00  0.00    +0.000 A 
ATOM     14 CL   UNL     1       1.315   2.710  21.002  0.00  0.00    +0.000 Cl
ATOM     15  C   UNL     1       3.174   2.932  18.994  0.00  0.00    +0.000 A 
ATOM     16 CL   UNL     1       3.022   1.245  18.653  0.00  0.00    +0.000 Cl
ATOM     17  C   UNL     1       4.095   3.670  18.238  0.00  0.00    +0.000 A 
ENDBRANCH   5  10
BRANCH   7  18
ATOM     18  C   UNL     1       8.116   7.527  17.544  0.00  0.00    +0.000 C 
BRANCH  18  19
ATOM     19  S   UNL     1       7.187   9.111  17.583  0.00  0.00    +0.000 S 
BRANCH  19  20
ATOM     20  C   UNL     1       8.450  10.187  18.246  0.00  0.00    +0.000 A 
ATOM     21  C   UNL     1       8.677  11.437  17.654  0.00  0.00    +0.000 A 
ATOM     22  C   UNL     1       9.673  12.282  18.151  0.00  0.00    +0.000 A 
ATOM     23  C   UNL     1      10.437  11.883  19.243  0.00  0.00    +0.000 A 
ATOM     24 CL   UNL     1      11.682  12.908  19.847  0.00  0.00    +0.000 Cl
ATOM     25  C   UNL     1      10.202  10.651  19.857  0.00  0.00    +0.000 A 
ATOM     26  C   UNL     1       9.206   9.810  19.360  0.00  0.00    +0.000 A 
ENDBRANCH  19  20
ENDBRANCH  18  19
ENDBRANCH   7  18
TORSDOF 4
ENDMDL
MODEL 6
REMARK VINA RESULT:      -7.3      3.144      6.782
REMARK  Name = 
REMARK  4 active torsions:
REMARK  status: ('A' for Active; 'I' for Inactive)
REMARK    1  A    between atoms: C_5  and  C_6
REMARK    2  A    between atoms: C_15  and  C_16
REMARK    3  A    between atoms: C_16  and  S_17
REMARK    4  A    between atoms: S_17  and  C_18
REMARK                            x       y       z     vdW  Elec       q    Type
REMARK                         _______ _______ _______ _____ _____    ______ ____
ROOT
ATOM      1  O   UNL     1       2.180   2.977  20.290  0.00  0.00    +0.000 OA
ATOM      2  C   UNL     1       2.091   3.931  19.534  0.00  0.00    +0.000 C 
ATOM      3  C   UNL     1       1.330   3.925  18.243  0.00  0.00    +0.000 C 
ATOM      4  C   UNL     1       1.639   5.260  17.585  0.00  0.00    +0.000 C 
ATOM      5  C   UNL     1       2.538   6.013  18.565  0.00  0.00    +0.000 C 
ATOM      6  O   UNL     1       3.833   6.253  17.983  0.00  0.00    +0.000 OA
ATOM      7  C   UNL     1       4.800   5.370  18.610  0.00  0.00    +0.000 C 
ATOM      8  C   UNL     1       4.179   5.071  19.970  0.00  0.00    +0.000 C 
ATOM      9  N   UNL     1       2.776   5.128  19.666  0.00  0.00    +0.000 N 
ENDROOT
BRANCH   5  10
ATOM     10  C   UNL     1       1.894   7.338  18.962  0.00  0.00    +0.000 A 
ATOM     11  C   UNL     1       1.714   8.381  18.038  0.00  0.00    +0.000 A 
ATOM     12  C   UNL     1       1.246   9.634  18.450  0.00  0.00    +0.000 A 
ATOM     13  C   UNL     1       0.949   9.871  19.794  0.00  0.00    +0.000 A 
ATOM     14 CL   UNL     1       0.421  11.456  20.236  0.00  0.00    +0.000 Cl
ATOM     15  C   UNL     1       1.106   8.844  20.726  0.00  0.00    +0.000 A 
ATOM     16 CL   UNL     1       0.773   9.061  22.409  0.00  0.00    +0.000 Cl
ATOM     17  C   UNL     1       1.573   7.589  20.311  0.00  0.00    +0.000 A 
ENDBRANCH   5  10
BRANCH   7  18
ATOM     18  C   UNL     1       5.006   4.102  17.760  0.00  0.00    +0.000 C 
BRANCH  18  19
ATOM     19  S   UNL     1       6.491   4.239  16.689  0.00  0.00    +0.000 S 
BRANCH  19  20
ATOM     20  C   UNL     1       7.211   5.731  17.358  0.00  0.00    +0.000 A 
ATOM     21  C   UNL     1       7.859   5.692  18.600  0.00  0.00    +0.000 A 
ATOM     22  C   UNL     1       8.412   6.855  19.144  0.00  0.00    +0.000 A 
ATOM     23  C   UNL     1       8.326   8.054  18.445  0.00  0.00    +0.000 A 
ATOM     24 CL   UNL     1       8.983   9.496  19.118  0.00  0.00    +0.000 Cl
ATOM     25  C   UNL     1       7.705   8.100  17.194  0.00  0.00    +0.000 A 
ATOM     26  C   UNL     1       7.155   6.937  16.653  0.00  0.00    +0.000 A 
ENDBRANCH  19  20
ENDBRANCH  18  19
ENDBRANCH   7  18
TORSDOF 4
ENDMDL
MODEL 7
REMARK VINA RESULT:      -7.3      1.898      2.732
REMARK  Name = 
REMARK  4 active torsions:
REMARK  status: ('A' for Active; 'I' for Inactive)
REMARK    1  A    between atoms: C_5  and  C_6
REMARK    2  A    between atoms: C_15  and  C_16
REMARK    3  A    between atoms: C_16  and  S_17
REMARK    4  A    between atoms: S_17  and  C_18
REMARK                            x       y       z     vdW  Elec       q    Type
REMARK                         _______ _______ _______ _____ _____    ______ ____
ROOT
ATOM      1  O   UNL     1       7.256   5.387  19.779  0.00  0.00    +0.000 OA
ATOM      2  C   UNL     1       6.799   5.686  18.687  0.00  0.00    +0.000 C 
ATOM      3  C   UNL     1       6.898   7.047  18.067  0.00  0.00    +0.000 C 
ATOM      4  C   UNL     1       6.054   6.978  16.804  0.00  0.00    +0.000 C 
ATOM      5  C   UNL     1       5.539   5.543  16.721  0.00  0.00    +0.000 C 
ATOM      6  O   UNL     1       4.101   5.514  16.809  0.00  0.00    +0.000 OA
ATOM      7  C   UNL     1       3.721   5.006  18.114  0.00  0.00    +0.000 C 
ATOM      8  C   UNL     1       4.923   4.167  18.533  0.00  0.00    +0.000 C 
ATOM      9  N   UNL     1       6.003   4.871  17.898  0.00  0.00    +0.000 N 
ENDROOT
BRANCH   5  10
ATOM     10  C   UNL     1       5.992   4.892  15.417  0.00  0.00    +0.000 A 
ATOM     11  C   UNL     1       7.342   4.879  15.026  0.00  0.00    +0.000 A 
ATOM     12  C   UNL     1       7.721   4.397  13.767  0.00  0.00    +0.000 A 
ATOM     13  C   UNL     1       6.759   3.921  12.874  0.00  0.00    +0.000 A 
ATOM     14 CL   UNL     1       7.295   3.386  11.321  0.00  0.00    +0.000 Cl
ATOM     15  C   UNL     1       5.414   3.910  13.249  0.00  0.00    +0.000 A 
ATOM     16 CL   UNL     1       4.163   3.349  12.197  0.00  0.00    +0.000 Cl
ATOM     17  C   UNL     1       5.038   4.391  14.511  0.00  0.00    +0.000 A 
ENDBRANCH   5  10
BRANCH   7  18
ATOM     18  C   UNL     1       3.440   6.166  19.086  0.00  0.00    +0.000 C 
BRANCH  18  19
ATOM     19  S   UNL     1       2.735   7.622  18.217  0.00  0.00    +0.000 S 
BRANCH  19  20
ATOM     20  C   UNL     1       1.757   8.321  19.540  0.00  0.00    +0.000 A 
ATOM     21  C   UNL     1       1.105   9.546  19.347  0.00  0.00    +0.000 A 
ATOM     22  C   UNL     1       0.351  10.113  20.379  0.00  0.00    +0.000 A 
ATOM     23  C   UNL     1       0.243   9.454  21.599  0.00  0.00    +0.000 A 
ATOM     24 CL   UNL     1      -0.663  10.157  22.883  0.00  0.00    +0.000 Cl
ATOM     25  C   UNL     1       0.869   8.221  21.794  0.00  0.00    +0.000 A 
ATOM     26  C   UNL     1       1.618   7.655  20.762  0.00  0.00    +0.000 A 
ENDBRANCH  19  20
ENDBRANCH  18  19
ENDBRANCH   7  18
TORSDOF 4
ENDMDL
MODEL 8
REMARK VINA RESULT:      -7.2      3.018      6.697
REMARK  Name = 
REMARK  4 active torsions:
REMARK  status: ('A' for Active; 'I' for Inactive)
REMARK    1  A    between atoms: C_5  and  C_6
REMARK    2  A    between atoms: C_15  and  C_16
REMARK    3  A    between atoms: C_16  and  S_17
REMARK    4  A    between atoms: S_17  and  C_18
REMARK                            x       y       z     vdW  Elec       q    Type
REMARK                         _______ _______ _______ _____ _____    ______ ____
ROOT
ATOM      1  O   UNL     1       1.346   2.735  20.099  0.00  0.00    +0.000 OA
ATOM      2  C   UNL     1       1.572   3.728  19.426  0.00  0.00    +0.000 C 
ATOM      3  C   UNL     1       1.194   3.881  17.983  0.00  0.00    +0.000 C 
ATOM      4  C   UNL     1       1.817   5.195  17.540  0.00  0.00    +0.000 C 
ATOM      5  C   UNL     1       2.495   5.777  18.779  0.00  0.00    +0.000 C 
ATOM      6  O   UNL     1       3.919   5.875  18.579  0.00  0.00    +0.000 OA
ATOM      7  C   UNL     1       4.574   4.846  19.365  0.00  0.00    +0.000 C 
ATOM      8  C   UNL     1       3.579   4.565  20.485  0.00  0.00    +0.000 C 
ATOM      9  N   UNL     1       2.325   4.818  19.829  0.00  0.00    +0.000 N 
ENDROOT
BRANCH   5  10
ATOM     10  C   UNL     1       1.921   7.154  19.098  0.00  0.00    +0.000 A 
ATOM     11  C   UNL     1       1.888   8.183  18.142  0.00  0.00    +0.000 A 
ATOM     12  C   UNL     1       1.482   9.477  18.491  0.00  0.00    +0.000 A 
ATOM     13  C   UNL     1       1.102   9.768  19.804  0.00  0.00    +0.000 A 
ATOM     14 CL   UNL     1       0.657  11.397  20.171  0.00  0.00    +0.000 Cl
ATOM     15  C   UNL     1       1.112   8.756  20.765  0.00  0.00    +0.000 A 
ATOM     16 CL   UNL     1       0.668   9.039  22.412  0.00  0.00    +0.000 Cl
ATOM     17  C   UNL     1       1.517   7.462  20.412  0.00  0.00    +0.000 A 
ENDBRANCH   5  10
BRANCH   7  18
ATOM     18  C   UNL     1       4.859   3.603  18.500  0.00  0.00    +0.000 C 
BRANCH  18  19
ATOM     19  S   UNL     1       5.702   4.049  16.931  0.00  0.00    +0.000 S 
BRANCH  19  20
ATOM     20  C   UNL     1       6.616   5.486  17.476  0.00  0.00    +0.000 A 
ATOM     21  C   UNL     1       6.437   6.711  16.820  0.00  0.00    +0.000 A 
ATOM     22  C   UNL     1       7.158   7.838  17.224  0.00  0.00    +0.000 A 
ATOM     23  C   UNL     1       8.051   7.744  18.286  0.00  0.00    +0.000 A 
ATOM     24 CL   UNL     1       8.961   9.122  18.775  0.00  0.00    +0.000 Cl
ATOM     25  C   UNL     1       8.218   6.534  18.964  0.00  0.00    +0.000 A 
ATOM     26  C   UNL     1       7.496   5.411  18.560  0.00  0.00    +0.000 A 
ENDBRANCH  19  20
ENDBRANCH  18  19
ENDBRANCH   7  18
TORSDOF 4
ENDMDL
MODEL 9
REMARK VINA RESULT:      -7.2      2.954      6.566
REMARK  Name = 
REMARK  4 active torsions:
REMARK  status: ('A' for Active; 'I' for Inactive)
REMARK    1  A    between atoms: C_5  and  C_6
REMARK    2  A    between atoms: C_15  and  C_16
REMARK    3  A    between atoms: C_16  and  S_17
REMARK    4  A    between atoms: S_17  and  C_18
REMARK                            x       y       z     vdW  Elec       q    Type
REMARK                         _______ _______ _______ _____ _____    ______ ____
ROOT
ATOM      1  O   UNL     1       1.236   2.481  19.986  0.00  0.00    +0.000 OA
ATOM      2  C   UNL     1       1.508   3.545  19.454  0.00  0.00    +0.000 C 
ATOM      3  C   UNL     1       1.133   3.916  18.051  0.00  0.00    +0.000 C 
ATOM      4  C   UNL     1       1.820   5.246  17.787  0.00  0.00    +0.000 C 
ATOM      5  C   UNL     1       2.531   5.617  19.087  0.00  0.00    +0.000 C 
ATOM      6  O   UNL     1       3.957   5.671  18.887  0.00  0.00    +0.000 OA
ATOM      7  C   UNL     1       4.562   4.512  19.515  0.00  0.00    +0.000 C 
ATOM      8  C   UNL     1       3.559   4.128  20.597  0.00  0.00    +0.000 C 
ATOM      9  N   UNL     1       2.317   4.531  19.996  0.00  0.00    +0.000 N 
ENDROOT
BRANCH   5  10
ATOM     10  C   UNL     1       2.028   6.963  19.600  0.00  0.00    +0.000 A 
ATOM     11  C   UNL     1       1.388   7.088  20.846  0.00  0.00    +0.000 A 
ATOM     12  C   UNL     1       0.815   8.303  21.241  0.00  0.00    +0.000 A 
ATOM     13  C   UNL     1       0.869   9.417  20.398  0.00  0.00    +0.000 A 
ATOM     14 CL   UNL     1       0.100  10.869  20.933  0.00  0.00    +0.000 Cl
ATOM     15  C   UNL     1       1.514   9.317  19.164  0.00  0.00    +0.000 A 
ATOM     16 CL   UNL     1       1.612  10.645  18.061  0.00  0.00    +0.000 Cl
ATOM     17  C   UNL     1       2.088   8.101  18.772  0.00  0.00    +0.000 A 
ENDBRANCH   5  10
BRANCH   7  18
ATOM     18  C   UNL     1       4.781   3.389  18.483  0.00  0.00    +0.000 C 
BRANCH  18  19
ATOM     19  S   UNL     1       5.268   4.060  16.845  0.00  0.00    +0.000 S 
BRANCH  19  20
ATOM     20  C   UNL     1       6.298   5.423  17.370  0.00  0.00    +0.000 A 
ATOM     21  C   UNL     1       7.284   5.212  18.343  0.00  0.00    +0.000 A 
ATOM     22  C   UNL     1       8.085   6.273  18.775  0.00  0.00    +0.000 A 
ATOM     23  C   UNL     1       7.909   7.540  18.230  0.00  0.00    +0.000 A 
ATOM     24 CL   UNL     1       8.876   8.857  18.773  0.00  0.00    +0.000 Cl
ATOM     25  C   UNL     1       6.947   7.756  17.241  0.00  0.00    +0.000 A 
ATOM     26  C   UNL     1       6.149   6.696  16.809  0.00  0.00    +0.000 A 
ENDBRANCH  19  20
ENDBRANCH  18  19
ENDBRANCH   7  18
TORSDOF 4
ENDMDL
