MODEL 1
REMARK VINA RESULT:      -9.2      0.000      0.000
REMARK  Name = 
REMARK  6 active torsions:
REMARK  status: ('A' for Active; 'I' for Inactive)
REMARK    1  A    between atoms: C_2  and  C_3
REMARK    2  A    between atoms: C_3  and  S_21
REMARK    3  A    between atoms: C_4  and  C_5
REMARK    4  A    between atoms: C_7  and  C_8
REMARK    5  A    between atoms: C_8  and  C_9
REMARK    6  A    between atoms: S_21  and  C_24
REMARK                            x       y       z     vdW  Elec       q    Type
REMARK                         _______ _______ _______ _____ _____    ______ ____
ROOT
ATOM      1  C   UNL     1       3.838   4.198  18.488  0.00  0.00    +0.000 A 
ATOM      2  C   UNL     1       3.476   5.077  19.519  0.00  0.00    +0.000 A 
ATOM      3  C   UNL     1       2.164   5.088  20.034  0.00  0.00    +0.000 A 
ATOM      4  C   UNL     1       1.200   4.247  19.452  0.00  0.00    +0.000 A 
ATOM      5  C   UNL     1       1.570   3.327  18.469  0.00  0.00    +0.000 A 
ATOM      6  C   UNL     1       2.885   3.288  18.017  0.00  0.00    +0.000 A 
ATOM      7  F   UNL     1       3.228   2.367  17.103  0.00  0.00    +0.000 F 
ENDROOT
BRANCH   1   9
ATOM      8  C   UNL     1       5.585   5.370  17.161  0.00  0.00    +0.000 C 
ATOM      9  C   UNL     1       5.171   4.294  17.860  0.00  0.00    +0.000 C 
BRANCH   8  10
ATOM     10  S   UNL     1       7.172   5.330  16.452  0.00  0.00    +0.000 S 
ATOM     11  O   UNL     1       7.746   6.666  16.499  0.00  0.00    +0.000 OA
ATOM     12  O   UNL     1       7.904   4.236  17.074  0.00  0.00    +0.000 OA
BRANCH  10  13
ATOM     13  C   UNL     1       7.005   4.892  14.711  0.00  0.00    +0.000 A 
ATOM     14  C   UNL     1       6.111   3.904  14.315  0.00  0.00    +0.000 A 
ATOM     15  C   UNL     1       6.092   3.543  12.969  0.00  0.00    +0.000 A 
ATOM     16  C   UNL     1       6.967   4.162  12.084  0.00  0.00    +0.000 A 
ATOM     17  C   UNL     1       7.831   5.132  12.578  0.00  0.00    +0.000 A 
ATOM     18  N   UNL     1       7.874   5.522  13.876  0.00  0.00    +0.000 NA
ENDBRANCH  10  13
ENDBRANCH   8  10
BRANCH   8  20
ATOM     19  N   UNL     1       4.059   7.405  16.787  0.00  0.00    +0.000 NA
ATOM     20  C   UNL     1       4.767   6.501  16.930  0.00  0.00    +0.000 C 
ENDBRANCH   8  20
ENDBRANCH   1   9
BRANCH   3  21
ATOM     21  C   UNL     1       1.797   5.984  21.200  0.00  0.00    +0.000 C 
BRANCH  21  22
ATOM     22  C   UNL     1       1.346   7.367  20.797  0.00  0.00    +0.000 A 
ATOM     23  C   UNL     1       0.372   8.040  21.546  0.00  0.00    +0.000 A 
ATOM     24  C   UNL     1      -0.134   9.267  21.111  0.00  0.00    +0.000 A 
ATOM     25  C   UNL     1       0.341   9.846  19.932  0.00  0.00    +0.000 A 
ATOM     26 CL   UNL     1      -0.378  11.331  19.420  0.00  0.00    +0.000 Cl
ATOM     27  C   UNL     1       1.352   9.210  19.204  0.00  0.00    +0.000 A 
ATOM     28 CL   UNL     1       2.007   9.877  17.752  0.00  0.00    +0.000 Cl
ATOM     29  C   UNL     1       1.852   7.977  19.639  0.00  0.00    +0.000 A 
ENDBRANCH  21  22
ENDBRANCH   3  21
TORSDOF 6
ENDMDL
MODEL 2
REMARK VINA RESULT:      -9.2      0.605      1.324
REMARK  Name = 
REMARK  6 active torsions:
REMARK  status: ('A' for Active; 'I' for Inactive)
REMARK    1  A    between atoms: C_2  and  C_3
REMARK    2  A    between atoms: C_3  and  S_21
REMARK    3  A    between atoms: C_4  and  C_5
REMARK    4  A    between atoms: C_7  and  C_8
REMARK    5  A    between atoms: C_8  and  C_9
REMARK    6  A    between atoms: S_21  and  C_24
REMARK                            x       y       z     vdW  Elec       q    Type
REMARK                         _______ _______ _______ _____ _____    ______ ____
ROOT
ATOM      1  C   UNL     1       3.932   4.240  18.618  0.00  0.00    +0.000 A 
ATOM      2  C   UNL     1       3.525   5.218  19.539  0.00  0.00    +0.000 A 
ATOM      3  C   UNL     1       2.216   5.219  20.063  0.00  0.00    +0.000 A 
ATOM      4  C   UNL     1       1.299   4.261  19.598  0.00  0.00    +0.000 A 
ATOM      5  C   UNL     1       1.717   3.250  18.731  0.00  0.00    +0.000 A 
ATOM      6  C   UNL     1       3.030   3.229  18.273  0.00  0.00    +0.000 A 
ATOM      7  F   UNL     1       3.421   2.223  17.474  0.00  0.00    +0.000 F 
ENDROOT
BRANCH   1   9
ATOM      8  C   UNL     1       5.623   5.363  17.180  0.00  0.00    +0.000 C 
ATOM      9  C   UNL     1       5.255   4.333  17.968  0.00  0.00    +0.000 C 
BRANCH   8  10
ATOM     10  S   UNL     1       7.204   5.322  16.457  0.00  0.00    +0.000 S 
ATOM     11  O   UNL     1       7.779   6.658  16.501  0.00  0.00    +0.000 OA
ATOM     12  O   UNL     1       7.940   4.227  17.072  0.00  0.00    +0.000 OA
BRANCH  10  13
ATOM     13  C   UNL     1       7.022   4.887  14.717  0.00  0.00    +0.000 A 
ATOM     14  C   UNL     1       6.129   3.894  14.328  0.00  0.00    +0.000 A 
ATOM     15  C   UNL     1       6.098   3.535  12.983  0.00  0.00    +0.000 A 
ATOM     16  C   UNL     1       6.961   4.161  12.089  0.00  0.00    +0.000 A 
ATOM     17  C   UNL     1       7.824   5.135  12.577  0.00  0.00    +0.000 A 
ATOM     18  N   UNL     1       7.878   5.523  13.874  0.00  0.00    +0.000 NA
ENDBRANCH  10  13
ENDBRANCH   8  10
BRANCH   8  20
ATOM     19  N   UNL     1       4.079   7.353  16.664  0.00  0.00    +0.000 NA
ATOM     20  C   UNL     1       4.761   6.441  16.867  0.00  0.00    +0.000 C 
ENDBRANCH   8  20
ENDBRANCH   1   9
BRANCH   3  21
ATOM     21  C   UNL     1       1.805   6.229  21.115  0.00  0.00    +0.000 C 
BRANCH  21  22
ATOM     22  C   UNL     1       1.400   7.572  20.555  0.00  0.00    +0.000 A 
ATOM     23  C   UNL     1       1.838   7.969  19.285  0.00  0.00    +0.000 A 
ATOM     24  C   UNL     1       1.566   9.255  18.812  0.00  0.00    +0.000 A 
ATOM     25  C   UNL     1       0.836  10.153  19.595  0.00  0.00    +0.000 A 
ATOM     26 CL   UNL     1       0.595  11.747  18.974  0.00  0.00    +0.000 Cl
ATOM     27  C   UNL     1       0.347   9.749  20.841  0.00  0.00    +0.000 A 
ATOM     28 CL   UNL     1      -0.584  10.795  21.853  0.00  0.00    +0.000 Cl
ATOM     29  C   UNL     1       0.628   8.462  21.316  0.00  0.00    +0.000 A 
ENDBRANCH  21  22
ENDBRANCH   3  21
TORSDOF 6
ENDMDL
MODEL 3
REMARK VINA RESULT:      -7.7      2.997      4.438
REMARK  Name = 
REMARK  6 active torsions:
REMARK  status: ('A' for Active; 'I' for Inactive)
REMARK    1  A    between atoms: C_2  and  C_3
REMARK    2  A    between atoms: C_3  and  S_21
REMARK    3  A    between atoms: C_4  and  C_5
REMARK    4  A    between atoms: C_7  and  C_8
REMARK    5  A    between atoms: C_8  and  C_9
REMARK    6  A    between atoms: S_21  and  C_24
REMARK                            x       y       z     vdW  Elec       q    Type
REMARK                         _______ _______ _______ _____ _____    ______ ____
ROOT
ATOM      1  C   UNL     1       2.518   6.845  19.565  0.00  0.00    +0.000 A 
ATOM      2  C   UNL     1       2.150   7.897  18.712  0.00  0.00    +0.000 A 
ATOM      3  C   UNL     1       1.222   8.874  19.124  0.00  0.00    +0.000 A 
ATOM      4  C   UNL     1       0.616   8.744  20.386  0.00  0.00    +0.000 A 
ATOM      5  C   UNL     1       1.024   7.736  21.262  0.00  0.00    +0.000 A 
ATOM      6  C   UNL     1       1.988   6.817  20.859  0.00  0.00    +0.000 A 
ATOM      7  F   UNL     1       2.395   5.883  21.733  0.00  0.00    +0.000 F 
ENDROOT
BRANCH   1   9
ATOM      8  C   UNL     1       2.971   4.467  18.994  0.00  0.00    +0.000 C 
ATOM      9  C   UNL     1       3.377   5.751  19.072  0.00  0.00    +0.000 C 
BRANCH   8  10
ATOM     10  S   UNL     1       4.104   3.279  18.421  0.00  0.00    +0.000 S 
ATOM     11  O   UNL     1       4.952   2.862  19.527  0.00  0.00    +0.000 OA
ATOM     12  O   UNL     1       3.349   2.263  17.702  0.00  0.00    +0.000 OA
BRANCH  10  13
ATOM     13  C   UNL     1       5.178   4.060  17.202  0.00  0.00    +0.000 A 
ATOM     14  C   UNL     1       4.759   4.207  15.884  0.00  0.00    +0.000 A 
ATOM     15  C   UNL     1       5.665   4.732  14.966  0.00  0.00    +0.000 A 
ATOM     16  C   UNL     1       6.946   5.071  15.389  0.00  0.00    +0.000 A 
ATOM     17  C   UNL     1       7.274   4.877  16.725  0.00  0.00    +0.000 A 
ATOM     18  N   UNL     1       6.419   4.382  17.654  0.00  0.00    +0.000 NA
ENDBRANCH  10  13
ENDBRANCH   8  10
BRANCH   8  20
ATOM     19  N   UNL     1       0.623   3.746  19.754  0.00  0.00    +0.000 NA
ATOM     20  C   UNL     1       1.689   4.037  19.412  0.00  0.00    +0.000 C 
ENDBRANCH   8  20
ENDBRANCH   1   9
BRANCH   3  21
ATOM     21  C   UNL     1       0.888  10.051  18.229  0.00  0.00    +0.000 C 
BRANCH  21  22
ATOM     22  C   UNL     1      -0.570  10.443  18.246  0.00  0.00    +0.000 A 
ATOM     23  C   UNL     1      -1.467   9.865  17.337  0.00  0.00    +0.000 A 
ATOM     24  C   UNL     1      -2.790  10.309  17.269  0.00  0.00    +0.000 A 
ATOM     25  C   UNL     1      -3.237  11.323  18.120  0.00  0.00    +0.000 A 
ATOM     26 CL   UNL     1      -4.866  11.868  17.933  0.00  0.00    +0.000 Cl
ATOM     27  C   UNL     1      -2.366  11.868  19.068  0.00  0.00    +0.000 A 
ATOM     28 CL   UNL     1      -2.854  13.105  20.171  0.00  0.00    +0.000 Cl
ATOM     29  C   UNL     1      -1.039  11.426  19.129  0.00  0.00    +0.000 A 
ENDBRANCH  21  22
ENDBRANCH   3  21
TORSDOF 6
ENDMDL
MODEL 4
REMARK VINA RESULT:      -7.7      2.696      3.918
REMARK  Name = 
REMARK  6 active torsions:
REMARK  status: ('A' for Active; 'I' for Inactive)
REMARK    1  A    between atoms: C_2  and  C_3
REMARK    2  A    between atoms: C_3  and  S_21
REMARK    3  A    between atoms: C_4  and  C_5
REMARK    4  A    between atoms: C_7  and  C_8
REMARK    5  A    between atoms: C_8  and  C_9
REMARK    6  A    between atoms: S_21  and  C_24
REMARK                            x       y       z     vdW  Elec       q    Type
REMARK                         _______ _______ _______ _____ _____    ______ ____
ROOT
ATOM      1  C   UNL     1       2.504   7.407  19.057  0.00  0.00    +0.000 A 
ATOM      2  C   UNL     1       1.862   7.606  20.289  0.00  0.00    +0.000 A 
ATOM      3  C   UNL     1       0.969   8.680  20.475  0.00  0.00    +0.000 A 
ATOM      4  C   UNL     1       0.779   9.594  19.424  0.00  0.00    +0.000 A 
ATOM      5  C   UNL     1       1.367   9.366  18.178  0.00  0.00    +0.000 A 
ATOM      6  C   UNL     1       2.197   8.264  17.995  0.00  0.00    +0.000 A 
ATOM      7  F   UNL     1       2.716   8.040  16.777  0.00  0.00    +0.000 F 
ENDROOT
BRANCH   1   9
ATOM      8  C   UNL     1       3.317   5.163  18.356  0.00  0.00    +0.000 C 
ATOM      9  C   UNL     1       3.544   6.368  18.917  0.00  0.00    +0.000 C 
BRANCH   8  10
ATOM     10  S   UNL     1       4.631   4.026  18.287  0.00  0.00    +0.000 S 
ATOM     11  O   UNL     1       5.539   4.285  19.393  0.00  0.00    +0.000 OA
ATOM     12  O   UNL     1       4.055   2.695  18.156  0.00  0.00    +0.000 OA
BRANCH  10  13
ATOM     13  C   UNL     1       5.557   4.321  16.768  0.00  0.00    +0.000 A 
ATOM     14  C   UNL     1       4.985   4.050  15.530  0.00  0.00    +0.000 A 
ATOM     15  C   UNL     1       5.779   4.209  14.396  0.00  0.00    +0.000 A 
ATOM     16  C   UNL     1       7.103   4.610  14.540  0.00  0.00    +0.000 A 
ATOM     17  C   UNL     1       7.585   4.847  15.822  0.00  0.00    +0.000 A 
ATOM     18  N   UNL     1       6.844   4.718  16.950  0.00  0.00    +0.000 NA
ENDBRANCH  10  13
ENDBRANCH   8  10
BRANCH   8  20
ATOM     19  N   UNL     1       1.014   4.381  17.524  0.00  0.00    +0.000 NA
ATOM     20  C   UNL     1       2.047   4.761  17.878  0.00  0.00    +0.000 C 
ENDBRANCH   8  20
ENDBRANCH   1   9
BRANCH   3  21
ATOM     21  C   UNL     1       0.219   8.846  21.781  0.00  0.00    +0.000 C 
BRANCH  21  22
ATOM     22  C   UNL     1      -0.148  10.275  22.104  0.00  0.00    +0.000 A 
ATOM     23  C   UNL     1      -1.151  10.552  23.041  0.00  0.00    +0.000 A 
ATOM     24  C   UNL     1      -1.576  11.865  23.256  0.00  0.00    +0.000 A 
ATOM     25  C   UNL     1      -0.990  12.919  22.551  0.00  0.00    +0.000 A 
ATOM     26 CL   UNL     1      -1.611  14.509  22.819  0.00  0.00    +0.000 Cl
ATOM     27  C   UNL     1       0.050  12.660  21.652  0.00  0.00    +0.000 A 
ATOM     28 CL   UNL     1       0.840  13.913  20.763  0.00  0.00    +0.000 Cl
ATOM     29  C   UNL     1       0.468  11.342  21.434  0.00  0.00    +0.000 A 
ENDBRANCH  21  22
ENDBRANCH   3  21
TORSDOF 6
ENDMDL
MODEL 5
REMARK VINA RESULT:      -7.7      2.036      2.999
REMARK  Name = 
REMARK  6 active torsions:
REMARK  status: ('A' for Active; 'I' for Inactive)
REMARK    1  A    between atoms: C_2  and  C_3
REMARK    2  A    between atoms: C_3  and  S_21
REMARK    3  A    between atoms: C_4  and  C_5
REMARK    4  A    between atoms: C_7  and  C_8
REMARK    5  A    between atoms: C_8  and  C_9
REMARK    6  A    between atoms: S_21  and  C_24
REMARK                            x       y       z     vdW  Elec       q    Type
REMARK                         _______ _______ _______ _____ _____    ______ ____
ROOT
ATOM      1  C   UNL     1       4.090   6.969  18.263  0.00  0.00    +0.000 A 
ATOM      2  C   UNL     1       3.220   7.945  17.752  0.00  0.00    +0.000 A 
ATOM      3  C   UNL     1       1.934   8.127  18.298  0.00  0.00    +0.000 A 
ATOM      4  C   UNL     1       1.506   7.269  19.326  0.00  0.00    +0.000 A 
ATOM      5  C   UNL     1       2.389   6.340  19.880  0.00  0.00    +0.000 A 
ATOM      6  C   UNL     1       3.677   6.217  19.368  0.00  0.00    +0.000 A 
ATOM      7  F   UNL     1       4.522   5.347  19.944  0.00  0.00    +0.000 F 
ENDROOT
BRANCH   1   9
ATOM      8  C   UNL     1       5.659   5.515  16.994  0.00  0.00    +0.000 C 
ATOM      9  C   UNL     1       5.375   6.690  17.592  0.00  0.00    +0.000 C 
BRANCH   8  10
ATOM     10  S   UNL     1       7.227   5.319  16.269  0.00  0.00    +0.000 S 
ATOM     11  O   UNL     1       7.921   6.598  16.288  0.00  0.00    +0.000 OA
ATOM     12  O   UNL     1       7.864   4.173  16.903  0.00  0.00    +0.000 OA
BRANCH  10  13
ATOM     13  C   UNL     1       7.001   4.870  14.538  0.00  0.00    +0.000 A 
ATOM     14  C   UNL     1       6.124   3.851  14.182  0.00  0.00    +0.000 A 
ATOM     15  C   UNL     1       6.058   3.485  12.840  0.00  0.00    +0.000 A 
ATOM     16  C   UNL     1       6.873   4.130  11.916  0.00  0.00    +0.000 A 
ATOM     17  C   UNL     1       7.725   5.130  12.371  0.00  0.00    +0.000 A 
ATOM     18  N   UNL     1       7.810   5.526  13.665  0.00  0.00    +0.000 NA
ENDBRANCH  10  13
ENDBRANCH   8  10
BRANCH   8  20
ATOM     19  N   UNL     1       4.082   3.485  16.959  0.00  0.00    +0.000 NA
ATOM     20  C   UNL     1       4.764   4.419  16.983  0.00  0.00    +0.000 C 
ENDBRANCH   8  20
ENDBRANCH   1   9
BRANCH   3  21
ATOM     21  C   UNL     1       1.029   9.233  17.794  0.00  0.00    +0.000 C 
BRANCH  21  22
ATOM     22  C   UNL     1       1.035  10.473  18.656  0.00  0.00    +0.000 A 
ATOM     23  C   UNL     1       1.907  11.531  18.365  0.00  0.00    +0.000 A 
ATOM     24  C   UNL     1       2.002  12.627  19.225  0.00  0.00    +0.000 A 
ATOM     25  C   UNL     1       1.212  12.690  20.376  0.00  0.00    +0.000 A 
ATOM     26 CL   UNL     1       1.431  14.043  21.427  0.00  0.00    +0.000 Cl
ATOM     27  C   UNL     1       0.299  11.666  20.648  0.00  0.00    +0.000 A 
ATOM     28 CL   UNL     1      -0.728  11.686  22.036  0.00  0.00    +0.000 Cl
ATOM     29  C   UNL     1       0.212  10.565  19.787  0.00  0.00    +0.000 A 
ENDBRANCH  21  22
ENDBRANCH   3  21
TORSDOF 6
ENDMDL
MODEL 6
REMARK VINA RESULT:      -7.6      2.997      4.331
REMARK  Name = 
REMARK  6 active torsions:
REMARK  status: ('A' for Active; 'I' for Inactive)
REMARK    1  A    between atoms: C_2  and  C_3
REMARK    2  A    between atoms: C_3  and  S_21
REMARK    3  A    between atoms: C_4  and  C_5
REMARK    4  A    between atoms: C_7  and  C_8
REMARK    5  A    between atoms: C_8  and  C_9
REMARK    6  A    between atoms: S_21  and  C_24
REMARK                            x       y       z     vdW  Elec       q    Type
REMARK                         _______ _______ _______ _____ _____    ______ ____
ROOT
ATOM      1  C   UNL     1       2.556   6.828  19.574  0.00  0.00    +0.000 A 
ATOM      2  C   UNL     1       2.298   7.948  18.769  0.00  0.00    +0.000 A 
ATOM      3  C   UNL     1       1.403   8.953  19.191  0.00  0.00    +0.000 A 
ATOM      4  C   UNL     1       0.720   8.785  20.407  0.00  0.00    +0.000 A 
ATOM      5  C   UNL     1       1.020   7.705  21.240  0.00  0.00    +0.000 A 
ATOM      6  C   UNL     1       1.952   6.755  20.834  0.00  0.00    +0.000 A 
ATOM      7  F   UNL     1       2.257   5.749  21.669  0.00  0.00    +0.000 F 
ENDROOT
BRANCH   1   9
ATOM      8  C   UNL     1       2.939   4.444  18.978  0.00  0.00    +0.000 C 
ATOM      9  C   UNL     1       3.380   5.715  19.062  0.00  0.00    +0.000 C 
BRANCH   8  10
ATOM     10  S   UNL     1       4.033   3.231  18.381  0.00  0.00    +0.000 S 
ATOM     11  O   UNL     1       4.848   2.745  19.483  0.00  0.00    +0.000 OA
ATOM     12  O   UNL     1       3.249   2.269  17.619  0.00  0.00    +0.000 OA
BRANCH  10  13
ATOM     13  C   UNL     1       5.154   4.008  17.202  0.00  0.00    +0.000 A 
ATOM     14  C   UNL     1       4.777   4.171  15.873  0.00  0.00    +0.000 A 
ATOM     15  C   UNL     1       5.718   4.692  14.988  0.00  0.00    +0.000 A 
ATOM     16  C   UNL     1       6.989   5.011  15.452  0.00  0.00    +0.000 A 
ATOM     17  C   UNL     1       7.273   4.802  16.796  0.00  0.00    +0.000 A 
ATOM     18  N   UNL     1       6.384   4.310  17.694  0.00  0.00    +0.000 NA
ENDBRANCH  10  13
ENDBRANCH   8  10
BRANCH   8  20
ATOM     19  N   UNL     1       0.589   3.695  19.700  0.00  0.00    +0.000 NA
ATOM     20  C   UNL     1       1.652   4.044  19.408  0.00  0.00    +0.000 C 
ENDBRANCH   8  20
ENDBRANCH   1   9
BRANCH   3  21
ATOM     21  C   UNL     1       1.187  10.198  18.354  0.00  0.00    +0.000 C 
BRANCH  21  22
ATOM     22  C   UNL     1      -0.237  10.698  18.351  0.00  0.00    +0.000 A 
ATOM     23  C   UNL     1      -0.641  11.685  19.260  0.00  0.00    +0.000 A 
ATOM     24  C   UNL     1      -1.983  12.066  19.342  0.00  0.00    +0.000 A 
ATOM     25  C   UNL     1      -2.934  11.478  18.504  0.00  0.00    +0.000 A 
ATOM     26 CL   UNL     1      -4.583  11.949  18.707  0.00  0.00    +0.000 Cl
ATOM     27  C   UNL     1      -2.534  10.531  17.557  0.00  0.00    +0.000 A 
ATOM     28 CL   UNL     1      -3.647   9.780  16.470  0.00  0.00    +0.000 Cl
ATOM     29  C   UNL     1      -1.189  10.146  17.482  0.00  0.00    +0.000 A 
ENDBRANCH  21  22
ENDBRANCH   3  21
TORSDOF 6
ENDMDL
MODEL 7
REMARK VINA RESULT:      -7.6      1.325      1.821
REMARK  Name = 
REMARK  6 active torsions:
REMARK  status: ('A' for Active; 'I' for Inactive)
REMARK    1  A    between atoms: C_2  and  C_3
REMARK    2  A    between atoms: C_3  and  S_21
REMARK    3  A    between atoms: C_4  and  C_5
REMARK    4  A    between atoms: C_7  and  C_8
REMARK    5  A    between atoms: C_8  and  C_9
REMARK    6  A    between atoms: S_21  and  C_24
REMARK                            x       y       z     vdW  Elec       q    Type
REMARK                         _______ _______ _______ _____ _____    ______ ____
ROOT
ATOM      1  C   UNL     1       3.561   4.834  17.908  0.00  0.00    +0.000 A 
ATOM      2  C   UNL     1       3.292   5.768  18.920  0.00  0.00    +0.000 A 
ATOM      3  C   UNL     1       2.081   5.728  19.640  0.00  0.00    +0.000 A 
ATOM      4  C   UNL     1       1.112   4.774  19.284  0.00  0.00    +0.000 A 
ATOM      5  C   UNL     1       1.399   3.804  18.322  0.00  0.00    +0.000 A 
ATOM      6  C   UNL     1       2.626   3.822  17.665  0.00  0.00    +0.000 A 
ATOM      7  F   UNL     1       2.897   2.855  16.775  0.00  0.00    +0.000 F 
ENDROOT
BRANCH   1   9
ATOM      8  C   UNL     1       6.017   5.021  17.563  0.00  0.00    +0.000 C 
ATOM      9  C   UNL     1       4.765   4.973  17.065  0.00  0.00    +0.000 C 
BRANCH   8  10
ATOM     10  S   UNL     1       7.338   5.217  16.450  0.00  0.00    +0.000 S 
ATOM     11  O   UNL     1       7.684   6.628  16.369  0.00  0.00    +0.000 OA
ATOM     12  O   UNL     1       8.376   4.267  16.828  0.00  0.00    +0.000 OA
BRANCH  10  13
ATOM     13  C   UNL     1       6.779   4.719  14.810  0.00  0.00    +0.000 A 
ATOM     14  C   UNL     1       5.658   3.909  14.663  0.00  0.00    +0.000 A 
ATOM     15  C   UNL     1       5.327   3.480  13.380  0.00  0.00    +0.000 A 
ATOM     16  C   UNL     1       6.127   3.857  12.307  0.00  0.00    +0.000 A 
ATOM     17  C   UNL     1       7.232   4.661  12.557  0.00  0.00    +0.000 A 
ATOM     18  N   UNL     1       7.583   5.111  13.787  0.00  0.00    +0.000 NA
ENDBRANCH  10  13
ENDBRANCH   8  10
BRANCH   8  20
ATOM     19  N   UNL     1       6.529   5.009  20.082  0.00  0.00    +0.000 NA
ATOM     20  C   UNL     1       6.298   4.979  18.949  0.00  0.00    +0.000 C 
ENDBRANCH   8  20
ENDBRANCH   1   9
BRANCH   3  21
ATOM     21  C   UNL     1       1.829   6.689  20.784  0.00  0.00    +0.000 C 
BRANCH  21  22
ATOM     22  C   UNL     1       1.392   8.067  20.346  0.00  0.00    +0.000 A 
ATOM     23  C   UNL     1       1.658   8.512  19.044  0.00  0.00    +0.000 A 
ATOM     24  C   UNL     1       1.364   9.825  18.671  0.00  0.00    +0.000 A 
ATOM     25  C   UNL     1       0.783  10.704  19.588  0.00  0.00    +0.000 A 
ATOM     26 CL   UNL     1       0.508  12.331  19.077  0.00  0.00    +0.000 Cl
ATOM     27  C   UNL     1       0.464  10.256  20.873  0.00  0.00    +0.000 A 
ATOM     28 CL   UNL     1      -0.279  11.277  22.052  0.00  0.00    +0.000 Cl
ATOM     29  C   UNL     1       0.767   8.941  21.247  0.00  0.00    +0.000 A 
ENDBRANCH  21  22
ENDBRANCH   3  21
TORSDOF 6
ENDMDL
MODEL 8
REMARK VINA RESULT:      -7.6      1.074      1.168
REMARK  Name = 
REMARK  6 active torsions:
REMARK  status: ('A' for Active; 'I' for Inactive)
REMARK    1  A    between atoms: C_2  and  C_3
REMARK    2  A    between atoms: C_3  and  S_21
REMARK    3  A    between atoms: C_4  and  C_5
REMARK    4  A    between atoms: C_7  and  C_8
REMARK    5  A    between atoms: C_8  and  C_9
REMARK    6  A    between atoms: S_21  and  C_24
REMARK                            x       y       z     vdW  Elec       q    Type
REMARK                         _______ _______ _______ _____ _____    ______ ____
ROOT
ATOM      1  C   UNL     1       3.480   4.533  17.927  0.00  0.00    +0.000 A 
ATOM      2  C   UNL     1       3.196   5.363  19.021  0.00  0.00    +0.000 A 
ATOM      3  C   UNL     1       1.980   5.245  19.724  0.00  0.00    +0.000 A 
ATOM      4  C   UNL     1       1.022   4.321  19.270  0.00  0.00    +0.000 A 
ATOM      5  C   UNL     1       1.325   3.451  18.222  0.00  0.00    +0.000 A 
ATOM      6  C   UNL     1       2.556   3.541  17.581  0.00  0.00    +0.000 A 
ATOM      7  F   UNL     1       2.843   2.666  16.604  0.00  0.00    +0.000 F 
ENDROOT
BRANCH   1   9
ATOM      8  C   UNL     1       5.922   4.912  17.639  0.00  0.00    +0.000 C 
ATOM      9  C   UNL     1       4.690   4.761  17.111  0.00  0.00    +0.000 C 
BRANCH   8  10
ATOM     10  S   UNL     1       7.250   5.205  16.556  0.00  0.00    +0.000 S 
ATOM     11  O   UNL     1       7.524   6.633  16.519  0.00  0.00    +0.000 OA
ATOM     12  O   UNL     1       8.328   4.299  16.927  0.00  0.00    +0.000 OA
BRANCH  10  13
ATOM     13  C   UNL     1       6.745   4.724  14.893  0.00  0.00    +0.000 A 
ATOM     14  C   UNL     1       5.681   3.848  14.705  0.00  0.00    +0.000 A 
ATOM     15  C   UNL     1       5.395   3.439  13.405  0.00  0.00    +0.000 A 
ATOM     16  C   UNL     1       6.182   3.901  12.356  0.00  0.00    +0.000 A 
ATOM     17  C   UNL     1       7.229   4.767  12.646  0.00  0.00    +0.000 A 
ATOM     18  N   UNL     1       7.534   5.199  13.894  0.00  0.00    +0.000 NA
ENDBRANCH  10  13
ENDBRANCH   8  10
BRANCH   8  20
ATOM     19  N   UNL     1       6.436   4.878  20.157  0.00  0.00    +0.000 NA
ATOM     20  C   UNL     1       6.171   4.901  19.032  0.00  0.00    +0.000 C 
ENDBRANCH   8  20
ENDBRANCH   1   9
BRANCH   3  21
ATOM     21  C   UNL     1       1.710   6.090  20.953  0.00  0.00    +0.000 C 
BRANCH  21  22
ATOM     22  C   UNL     1       1.285   7.506  20.645  0.00  0.00    +0.000 A 
ATOM     23  C   UNL     1       0.295   8.130  21.416  0.00  0.00    +0.000 A 
ATOM     24  C   UNL     1      -0.185   9.393  21.063  0.00  0.00    +0.000 A 
ATOM     25  C   UNL     1       0.331  10.056  19.947  0.00  0.00    +0.000 A 
ATOM     26 CL   UNL     1      -0.358  11.585  19.531  0.00  0.00    +0.000 Cl
ATOM     27  C   UNL     1       1.356   9.466  19.201  0.00  0.00    +0.000 A 
ATOM     28 CL   UNL     1       2.062  10.236  17.825  0.00  0.00    +0.000 Cl
ATOM     29  C   UNL     1       1.831   8.197  19.553  0.00  0.00    +0.000 A 
ENDBRANCH  21  22
ENDBRANCH   3  21
TORSDOF 6
ENDMDL
MODEL 9
REMARK VINA RESULT:      -7.6      3.491      5.278
REMARK  Name = 
REMARK  6 active torsions:
REMARK  status: ('A' for Active; 'I' for Inactive)
REMARK    1  A    between atoms: C_2  and  C_3
REMARK    2  A    between atoms: C_3  and  S_21
REMARK    3  A    between atoms: C_4  and  C_5
REMARK    4  A    between atoms: C_7  and  C_8
REMARK    5  A    between atoms: C_8  and  C_9
REMARK    6  A    between atoms: S_21  and  C_24
REMARK                            x       y       z     vdW  Elec       q    Type
REMARK                         _______ _______ _______ _____ _____    ______ ____
ROOT
ATOM      1  C   UNL     1       2.090   7.710  19.667  0.00  0.00    +0.000 A 
ATOM      2  C   UNL     1       1.576   8.742  18.867  0.00  0.00    +0.000 A 
ATOM      3  C   UNL     1       0.525   9.561  19.328  0.00  0.00    +0.000 A 
ATOM      4  C   UNL     1      -0.049   9.286  20.581  0.00  0.00    +0.000 A 
ATOM      5  C   UNL     1       0.499   8.302  21.406  0.00  0.00    +0.000 A 
ATOM      6  C   UNL     1       1.578   7.545  20.958  0.00  0.00    +0.000 A 
ATOM      7  F   UNL     1       2.116   6.634  21.784  0.00  0.00    +0.000 F 
ENDROOT
BRANCH   1   9
ATOM      8  C   UNL     1       2.886   5.440  19.035  0.00  0.00    +0.000 C 
ATOM      9  C   UNL     1       3.089   6.770  19.121  0.00  0.00    +0.000 C 
BRANCH   8  10
ATOM     10  S   UNL     1       4.166   4.452  18.396  0.00  0.00    +0.000 S 
ATOM     11  O   UNL     1       4.356   3.302  19.267  0.00  0.00    +0.000 OA
ATOM     12  O   UNL     1       3.878   4.218  16.987  0.00  0.00    +0.000 OA
BRANCH  10  13
ATOM     13  C   UNL     1       5.696   5.404  18.442  0.00  0.00    +0.000 A 
ATOM     14  C   UNL     1       6.050   6.221  17.374  0.00  0.00    +0.000 A 
ATOM     15  C   UNL     1       7.287   6.860  17.425  0.00  0.00    +0.000 A 
ATOM     16  C   UNL     1       8.121   6.648  18.517  0.00  0.00    +0.000 A 
ATOM     17  C   UNL     1       7.681   5.805  19.530  0.00  0.00    +0.000 A 
ATOM     18  N   UNL     1       6.481   5.174  19.528  0.00  0.00    +0.000 NA
ENDBRANCH  10  13
ENDBRANCH   8  10
BRANCH   8  20
ATOM     19  N   UNL     1       0.751   4.322  19.930  0.00  0.00    +0.000 NA
ATOM     20  C   UNL     1       1.707   4.808  19.497  0.00  0.00    +0.000 C 
ENDBRANCH   8  20
ENDBRANCH   1   9
BRANCH   3  21
ATOM     21  C   UNL     1       0.026  10.723  18.493  0.00  0.00    +0.000 C 
BRANCH  21  22
ATOM     22  C   UNL     1      -1.478  10.799  18.380  0.00  0.00    +0.000 A 
ATOM     23  C   UNL     1      -2.160   9.978  17.471  0.00  0.00    +0.000 A 
ATOM     24  C   UNL     1      -3.535  10.127  17.277  0.00  0.00    +0.000 A 
ATOM     25  C   UNL     1      -4.249  11.085  18.002  0.00  0.00    +0.000 A 
ATOM     26 CL   UNL     1      -5.934  11.259  17.660  0.00  0.00    +0.000 Cl
ATOM     27  C   UNL     1      -3.589  11.872  18.950  0.00  0.00    +0.000 A 
ATOM     28 CL   UNL     1      -4.408  13.058  19.901  0.00  0.00    +0.000 Cl
ATOM     29  C   UNL     1      -2.209  11.726  19.137  0.00  0.00    +0.000 A 
ENDBRANCH  21  22
ENDBRANCH   3  21
TORSDOF 6
ENDMDL
