MODEL 1
REMARK VINA RESULT:      -7.8      0.000      0.000
REMARK  Name = 
REMARK  10 active torsions:
REMARK  status: ('A' for Active; 'I' for Inactive)
REMARK    1  A    between atoms: C_1  and  O_2
REMARK    2  A    between atoms: O_2  and  C_3
REMARK    3  A    between atoms: C_6  and  N_7
REMARK    4  A    between atoms: C_8  and  C_10
REMARK    5  A    between atoms: C_10  and  S_11
REMARK    6  A    between atoms: S_11  and  C_12
REMARK    7  A    between atoms: C_15  and  C_16
REMARK    8  A    between atoms: N_22  and  N_23
REMARK    9  A    between atoms: C_24  and  O_25
REMARK   10  A    between atoms: O_25  and  C_26
REMARK                            x       y       z     vdW  Elec       q    Type
REMARK                         _______ _______ _______ _____ _____    ______ ____
ROOT
ATOM      1  C   UNL     1       2.292   3.681  21.492  0.00  0.00    +0.000 C 
ENDROOT
BRANCH   1   3
ATOM      2  N   UNL     1       2.553   5.973  20.662  0.00  0.00    +0.000 N 
ATOM      3  C   UNL     1       1.681   4.890  20.784  0.00  0.00    +0.000 C 
ATOM      4  O   UNL     1       0.510   4.897  20.401  0.00  0.00    +0.000 OA
ATOM      5  H   UNL     1       3.183   6.075  21.447  0.00  0.00    +0.000 HD
BRANCH   2   9
ATOM      6  C   UNL     1       1.096   9.622  19.123  0.00  0.00    +0.000 A 
ATOM      7  C   UNL     1       0.865   9.260  20.452  0.00  0.00    +0.000 A 
ATOM      8  C   UNL     1       1.359   8.057  20.962  0.00  0.00    +0.000 A 
ATOM      9  C   UNL     1       2.065   7.190  20.127  0.00  0.00    +0.000 A 
ATOM     10  C   UNL     1       2.315   7.543  18.788  0.00  0.00    +0.000 A 
ATOM     11  C   UNL     1       1.829   8.766  18.297  0.00  0.00    +0.000 A 
BRANCH   6  13
ATOM     12  C   UNL     1       0.637  11.881  19.732  0.00  0.00    +0.000 C 
ATOM     13  O   UNL     1       0.577  10.839  18.767  0.00  0.00    +0.000 OA
ENDBRANCH   6  13
BRANCH  10  14
ATOM     14  O   UNL     1       3.114   6.687  18.070  0.00  0.00    +0.000 OA
ATOM     15  C   UNL     1       4.131   7.281  17.273  0.00  0.00    +0.000 C 
ENDBRANCH  10  14
ENDBRANCH   2   9
ENDBRANCH   1   3
BRANCH   1  16
ATOM     16  S   UNL     1       2.054   2.212  20.455  0.00  0.00    +0.000 S 
BRANCH  16  17
ATOM     17  C   UNL     1       2.535   2.776  18.889  0.00  0.00    +0.000 A 
ATOM     18  N   UNL     1       1.782   2.992  17.835  0.00  0.00    +0.000 NA
ATOM     19  N   UNL     1       2.608   3.427  16.818  0.00  0.00    +0.000 NA
ATOM     20  C   UNL     1       3.851   3.493  17.281  0.00  0.00    +0.000 A 
ATOM     21  N   UNL     1       3.847   3.056  18.588  0.00  0.00    +0.000 N 
BRANCH  20  22
ATOM     22  C   UNL     1       5.035   3.938  16.546  0.00  0.00    +0.000 A 
ATOM     23  C   UNL     1       5.068   3.949  15.155  0.00  0.00    +0.000 A 
ATOM     24  C   UNL     1       6.229   4.380  14.514  0.00  0.00    +0.000 A 
ATOM     25  C   UNL     1       7.314   4.799  15.275  0.00  0.00    +0.000 A 
ATOM     26  C   UNL     1       7.197   4.771  16.654  0.00  0.00    +0.000 A 
ATOM     27  N   UNL     1       6.087   4.348  17.306  0.00  0.00    +0.000 NA
ENDBRANCH  20  22
BRANCH  21  28
ATOM     28  N   UNL     1       4.988   2.889  19.462  0.00  0.00    +0.000 N 
ATOM     29  H   UNL     1       5.728   3.533  19.164  0.00  0.00    +0.000 HD
ATOM     30  H   UNL     1       4.747   3.153  20.414  0.00  0.00    +0.000 HD
ENDBRANCH  21  28
ENDBRANCH  16  17
ENDBRANCH   1  16
TORSDOF 8
ENDMDL
MODEL 2
REMARK VINA RESULT:      -7.1      0.946      1.874
REMARK  Name = 
REMARK  10 active torsions:
REMARK  status: ('A' for Active; 'I' for Inactive)
REMARK    1  A    between atoms: C_1  and  O_2
REMARK    2  A    between atoms: O_2  and  C_3
REMARK    3  A    between atoms: C_6  and  N_7
REMARK    4  A    between atoms: C_8  and  C_10
REMARK    5  A    between atoms: C_10  and  S_11
REMARK    6  A    between atoms: S_11  and  C_12
REMARK    7  A    between atoms: C_15  and  C_16
REMARK    8  A    between atoms: N_22  and  N_23
REMARK    9  A    between atoms: C_24  and  O_25
REMARK   10  A    between atoms: O_25  and  C_26
REMARK                            x       y       z     vdW  Elec       q    Type
REMARK                         _______ _______ _______ _____ _____    ______ ____
ROOT
ATOM      1  C   UNL     1       2.301   3.994  21.463  0.00  0.00    +0.000 C 
ENDROOT
BRANCH   1   3
ATOM      2  N   UNL     1       2.559   6.238  20.510  0.00  0.00    +0.000 N 
ATOM      3  C   UNL     1       1.687   5.164  20.694  0.00  0.00    +0.000 C 
ATOM      4  O   UNL     1       0.515   5.150  20.315  0.00  0.00    +0.000 OA
ATOM      5  H   UNL     1       3.192   6.382  21.286  0.00  0.00    +0.000 HD
BRANCH   2   9
ATOM      6  C   UNL     1       1.097   9.745  18.674  0.00  0.00    +0.000 A 
ATOM      7  C   UNL     1       1.746   8.760  17.927  0.00  0.00    +0.000 A 
ATOM      8  C   UNL     1       2.218   7.595  18.535  0.00  0.00    +0.000 A 
ATOM      9  C   UNL     1       2.069   7.425  19.912  0.00  0.00    +0.000 A 
ATOM     10  C   UNL     1       1.409   8.402  20.679  0.00  0.00    +0.000 A 
ATOM     11  C   UNL     1       0.922   9.559  20.049  0.00  0.00    +0.000 A 
BRANCH   6  13
ATOM     12  C   UNL     1      -0.135  11.786  18.618  0.00  0.00    +0.000 C 
ATOM     13  O   UNL     1       0.664  10.821  17.945  0.00  0.00    +0.000 OA
ENDBRANCH   6  13
BRANCH  10  14
ATOM     14  O   UNL     1       1.205   8.103  22.004  0.00  0.00    +0.000 OA
ATOM     15  C   UNL     1       0.795   9.174  22.845  0.00  0.00    +0.000 C 
ENDBRANCH  10  14
ENDBRANCH   2   9
ENDBRANCH   1   3
BRANCH   1  16
ATOM     16  S   UNL     1       2.075   2.474  20.498  0.00  0.00    +0.000 S 
BRANCH  16  17
ATOM     17  C   UNL     1       2.534   2.972  18.902  0.00  0.00    +0.000 A 
ATOM     18  N   UNL     1       1.766   3.143  17.852  0.00  0.00    +0.000 NA
ATOM     19  N   UNL     1       2.577   3.533  16.805  0.00  0.00    +0.000 NA
ATOM     20  C   UNL     1       3.827   3.618  17.247  0.00  0.00    +0.000 A 
ATOM     21  N   UNL     1       3.842   3.238  18.572  0.00  0.00    +0.000 N 
BRANCH  20  22
ATOM     22  C   UNL     1       5.000   4.031  16.477  0.00  0.00    +0.000 A 
ATOM     23  C   UNL     1       5.130   3.725  15.126  0.00  0.00    +0.000 A 
ATOM     24  C   UNL     1       6.275   4.142  14.450  0.00  0.00    +0.000 A 
ATOM     25  C   UNL     1       7.248   4.864  15.133  0.00  0.00    +0.000 A 
ATOM     26  C   UNL     1       7.037   5.140  16.474  0.00  0.00    +0.000 A 
ATOM     27  N   UNL     1       5.941   4.738  17.161  0.00  0.00    +0.000 NA
ENDBRANCH  20  22
BRANCH  21  28
ATOM     28  N   UNL     1       4.995   3.107  19.435  0.00  0.00    +0.000 N 
ATOM     29  H   UNL     1       5.666   3.845  19.201  0.00  0.00    +0.000 HD
ATOM     30  H   UNL     1       4.730   3.260  20.405  0.00  0.00    +0.000 HD
ENDBRANCH  21  28
ENDBRANCH  16  17
ENDBRANCH   1  16
TORSDOF 8
ENDMDL
MODEL 3
REMARK VINA RESULT:      -7.1      5.725      7.385
REMARK  Name = 
REMARK  10 active torsions:
REMARK  status: ('A' for Active; 'I' for Inactive)
REMARK    1  A    between atoms: C_1  and  O_2
REMARK    2  A    between atoms: O_2  and  C_3
REMARK    3  A    between atoms: C_6  and  N_7
REMARK    4  A    between atoms: C_8  and  C_10
REMARK    5  A    between atoms: C_10  and  S_11
REMARK    6  A    between atoms: S_11  and  C_12
REMARK    7  A    between atoms: C_15  and  C_16
REMARK    8  A    between atoms: N_22  and  N_23
REMARK    9  A    between atoms: C_24  and  O_25
REMARK   10  A    between atoms: O_25  and  C_26
REMARK                            x       y       z     vdW  Elec       q    Type
REMARK                         _______ _______ _______ _____ _____    ______ ____
ROOT
ATOM      1  C   UNL     1       8.055   7.189  18.626  0.00  0.00    +0.000 C 
ENDROOT
BRANCH   1   3
ATOM      2  N   UNL     1       9.273   9.240  19.189  0.00  0.00    +0.000 N 
ATOM      3  C   UNL     1       8.307   8.673  18.358  0.00  0.00    +0.000 C 
ATOM      4  O   UNL     1       7.673   9.297  17.506  0.00  0.00    +0.000 OA
ATOM      5  H   UNL     1       9.276   8.858  20.126  0.00  0.00    +0.000 HD
BRANCH   2   9
ATOM      6  C   UNL     1       9.975  13.391  18.901  0.00  0.00    +0.000 A 
ATOM      7  C   UNL     1      10.164  12.552  17.800  0.00  0.00    +0.000 A 
ATOM      8  C   UNL     1       9.920  11.181  17.896  0.00  0.00    +0.000 A 
ATOM      9  C   UNL     1       9.512  10.634  19.113  0.00  0.00    +0.000 A 
ATOM     10  C   UNL     1       9.307  11.465  20.229  0.00  0.00    +0.000 A 
ATOM     11  C   UNL     1       9.537  12.846  20.111  0.00  0.00    +0.000 A 
BRANCH   6  13
ATOM     12  C   UNL     1      10.900  15.039  17.447  0.00  0.00    +0.000 C 
ATOM     13  O   UNL     1      10.227  14.715  18.657  0.00  0.00    +0.000 OA
ENDBRANCH   6  13
BRANCH  10  14
ATOM     14  O   UNL     1       8.795  10.863  21.353  0.00  0.00    +0.000 OA
ATOM     15  C   UNL     1       8.393  11.723  22.411  0.00  0.00    +0.000 C 
ENDBRANCH  10  14
ENDBRANCH   2   9
ENDBRANCH   1   3
BRANCH   1  16
ATOM     16  S   UNL     1       7.320   6.441  17.145  0.00  0.00    +0.000 S 
BRANCH  16  17
ATOM     17  C   UNL     1       5.654   6.283  17.593  0.00  0.00    +0.000 A 
ATOM     18  N   UNL     1       4.663   7.107  17.343  0.00  0.00    +0.000 NA
ATOM     19  N   UNL     1       3.523   6.566  17.903  0.00  0.00    +0.000 NA
ATOM     20  C   UNL     1       3.838   5.405  18.465  0.00  0.00    +0.000 A 
ATOM     21  N   UNL     1       5.193   5.206  18.313  0.00  0.00    +0.000 N 
BRANCH  20  22
ATOM     22  C   UNL     1       2.924   4.485  19.141  0.00  0.00    +0.000 A 
ATOM     23  C   UNL     1       1.973   4.938  20.051  0.00  0.00    +0.000 A 
ATOM     24  C   UNL     1       1.136   4.009  20.666  0.00  0.00    +0.000 A 
ATOM     25  C   UNL     1       1.258   2.662  20.347  0.00  0.00    +0.000 A 
ATOM     26  C   UNL     1       2.219   2.293  19.421  0.00  0.00    +0.000 A 
ATOM     27  N   UNL     1       3.055   3.169  18.816  0.00  0.00    +0.000 NA
ENDBRANCH  20  22
BRANCH  21  28
ATOM     28  N   UNL     1       5.985   4.112  18.832  0.00  0.00    +0.000 N 
ATOM     29  H   UNL     1       5.575   3.229  18.511  0.00  0.00    +0.000 HD
ATOM     30  H   UNL     1       6.927   4.145  18.450  0.00  0.00    +0.000 HD
ENDBRANCH  21  28
ENDBRANCH  16  17
ENDBRANCH   1  16
TORSDOF 8
ENDMDL
MODEL 4
REMARK VINA RESULT:      -7.0      5.898      7.571
REMARK  Name = 
REMARK  10 active torsions:
REMARK  status: ('A' for Active; 'I' for Inactive)
REMARK    1  A    between atoms: C_1  and  O_2
REMARK    2  A    between atoms: O_2  and  C_3
REMARK    3  A    between atoms: C_6  and  N_7
REMARK    4  A    between atoms: C_8  and  C_10
REMARK    5  A    between atoms: C_10  and  S_11
REMARK    6  A    between atoms: S_11  and  C_12
REMARK    7  A    between atoms: C_15  and  C_16
REMARK    8  A    between atoms: N_22  and  N_23
REMARK    9  A    between atoms: C_24  and  O_25
REMARK   10  A    between atoms: O_25  and  C_26
REMARK                            x       y       z     vdW  Elec       q    Type
REMARK                         _______ _______ _______ _____ _____    ______ ____
ROOT
ATOM      1  C   UNL     1       8.227   7.555  18.560  0.00  0.00    +0.000 C 
ENDROOT
BRANCH   1   3
ATOM      2  N   UNL     1       9.458   9.574  19.203  0.00  0.00    +0.000 N 
ATOM      3  C   UNL     1       8.456   9.056  18.382  0.00  0.00    +0.000 C 
ATOM      4  O   UNL     1       7.778   9.730  17.605  0.00  0.00    +0.000 OA
ATOM      5  H   UNL     1       9.507   9.130  20.111  0.00  0.00    +0.000 HD
BRANCH   2   9
ATOM      6  C   UNL     1      10.123  13.742  19.165  0.00  0.00    +0.000 A 
ATOM      7  C   UNL     1      10.370  12.964  18.031  0.00  0.00    +0.000 A 
ATOM      8  C   UNL     1      10.137  11.587  18.043  0.00  0.00    +0.000 A 
ATOM      9  C   UNL     1       9.683  10.973  19.211  0.00  0.00    +0.000 A 
ATOM     10  C   UNL     1       9.420  11.742  20.359  0.00  0.00    +0.000 A 
ATOM     11  C   UNL     1       9.640  13.129  20.324  0.00  0.00    +0.000 A 
BRANCH   6  13
ATOM     12  C   UNL     1      10.165  15.628  17.707  0.00  0.00    +0.000 C 
ATOM     13  O   UNL     1      10.371  15.079  19.003  0.00  0.00    +0.000 OA
ENDBRANCH   6  13
BRANCH  10  14
ATOM     14  O   UNL     1       8.867  11.076  21.426  0.00  0.00    +0.000 OA
ATOM     15  C   UNL     1       8.244  11.875  22.424  0.00  0.00    +0.000 C 
ENDBRANCH  10  14
ENDBRANCH   2   9
ENDBRANCH   1   3
BRANCH   1  16
ATOM     16  S   UNL     1       7.005   6.999  17.340  0.00  0.00    +0.000 S 
BRANCH  16  17
ATOM     17  C   UNL     1       6.204   5.707  18.173  0.00  0.00    +0.000 A 
ATOM     18  N   UNL     1       6.742   4.693  18.810  0.00  0.00    +0.000 NA
ATOM     19  N   UNL     1       5.711   3.920  19.304  0.00  0.00    +0.000 NA
ATOM     20  C   UNL     1       4.559   4.495  18.979  0.00  0.00    +0.000 A 
ATOM     21  N   UNL     1       4.834   5.619  18.232  0.00  0.00    +0.000 N 
BRANCH  20  22
ATOM     22  C   UNL     1       3.219   4.027  19.334  0.00  0.00    +0.000 A 
ATOM     23  C   UNL     1       2.499   4.600  20.379  0.00  0.00    +0.000 A 
ATOM     24  C   UNL     1       1.230   4.104  20.670  0.00  0.00    +0.000 A 
ATOM     25  C   UNL     1       0.709   3.066  19.908  0.00  0.00    +0.000 A 
ATOM     26  C   UNL     1       1.483   2.559  18.877  0.00  0.00    +0.000 A 
ATOM     27  N   UNL     1       2.723   3.011  18.576  0.00  0.00    +0.000 NA
ENDBRANCH  20  22
BRANCH  21  28
ATOM     28  N   UNL     1       3.883   6.511  17.603  0.00  0.00    +0.000 N 
ATOM     29  H   UNL     1       3.108   5.954  17.229  0.00  0.00    +0.000 HD
ATOM     30  H   UNL     1       3.476   7.138  18.293  0.00  0.00    +0.000 HD
ENDBRANCH  21  28
ENDBRANCH  16  17
ENDBRANCH   1  16
TORSDOF 8
ENDMDL
MODEL 5
REMARK VINA RESULT:      -6.9      0.942      1.745
REMARK  Name = 
REMARK  10 active torsions:
REMARK  status: ('A' for Active; 'I' for Inactive)
REMARK    1  A    between atoms: C_1  and  O_2
REMARK    2  A    between atoms: O_2  and  C_3
REMARK    3  A    between atoms: C_6  and  N_7
REMARK    4  A    between atoms: C_8  and  C_10
REMARK    5  A    between atoms: C_10  and  S_11
REMARK    6  A    between atoms: S_11  and  C_12
REMARK    7  A    between atoms: C_15  and  C_16
REMARK    8  A    between atoms: N_22  and  N_23
REMARK    9  A    between atoms: C_24  and  O_25
REMARK   10  A    between atoms: O_25  and  C_26
REMARK                            x       y       z     vdW  Elec       q    Type
REMARK                         _______ _______ _______ _____ _____    ______ ____
ROOT
ATOM      1  C   UNL     1       2.425   3.804  21.442  0.00  0.00    +0.000 C 
ENDROOT
BRANCH   1   3
ATOM      2  N   UNL     1       2.621   6.079  20.550  0.00  0.00    +0.000 N 
ATOM      3  C   UNL     1       1.778   4.979  20.707  0.00  0.00    +0.000 C 
ATOM      4  O   UNL     1       0.605   4.946  20.333  0.00  0.00    +0.000 OA
ATOM      5  H   UNL     1       3.255   6.218  21.327  0.00  0.00    +0.000 HD
BRANCH   2   9
ATOM      6  C   UNL     1       1.063   9.649  18.927  0.00  0.00    +0.000 A 
ATOM      7  C   UNL     1       0.874   9.330  20.274  0.00  0.00    +0.000 A 
ATOM      8  C   UNL     1       1.401   8.153  20.810  0.00  0.00    +0.000 A 
ATOM      9  C   UNL     1       2.099   7.269  19.987  0.00  0.00    +0.000 A 
ATOM     10  C   UNL     1       2.307   7.580  18.631  0.00  0.00    +0.000 A 
ATOM     11  C   UNL     1       1.788   8.777  18.111  0.00  0.00    +0.000 A 
BRANCH   6  13
ATOM     12  C   UNL     1      -0.904  10.914  18.461  0.00  0.00    +0.000 C 
ATOM     13  O   UNL     1       0.514  10.845  18.543  0.00  0.00    +0.000 OA
ENDBRANCH   6  13
BRANCH  10  14
ATOM     14  O   UNL     1       3.101   6.712  17.921  0.00  0.00    +0.000 OA
ATOM     15  C   UNL     1       4.311   7.240  17.393  0.00  0.00    +0.000 C 
ENDBRANCH  10  14
ENDBRANCH   2   9
ENDBRANCH   1   3
BRANCH   1  16
ATOM     16  S   UNL     1       2.864   2.526  20.232  0.00  0.00    +0.000 S 
BRANCH  16  17
ATOM     17  C   UNL     1       4.190   3.251  19.385  0.00  0.00    +0.000 A 
ATOM     18  N   UNL     1       5.277   3.791  19.885  0.00  0.00    +0.000 NA
ATOM     19  N   UNL     1       6.039   4.245  18.827  0.00  0.00    +0.000 NA
ATOM     20  C   UNL     1       5.410   3.949  17.696  0.00  0.00    +0.000 A 
ATOM     21  N   UNL     1       4.214   3.342  18.013  0.00  0.00    +0.000 N 
BRANCH  20  22
ATOM     22  C   UNL     1       5.882   4.219  16.337  0.00  0.00    +0.000 A 
ATOM     23  C   UNL     1       7.121   4.805  16.099  0.00  0.00    +0.000 A 
ATOM     24  C   UNL     1       7.510   5.042  14.782  0.00  0.00    +0.000 A 
ATOM     25  C   UNL     1       6.662   4.677  13.743  0.00  0.00    +0.000 A 
ATOM     26  C   UNL     1       5.451   4.086  14.063  0.00  0.00    +0.000 A 
ATOM     27  N   UNL     1       5.041   3.853  15.332  0.00  0.00    +0.000 NA
ENDBRANCH  20  22
BRANCH  21  28
ATOM     28  N   UNL     1       3.175   2.918  17.101  0.00  0.00    +0.000 N 
ATOM     29  H   UNL     1       3.226   1.900  16.995  0.00  0.00    +0.000 HD
ATOM     30  H   UNL     1       2.257   3.118  17.493  0.00  0.00    +0.000 HD
ENDBRANCH  21  28
ENDBRANCH  16  17
ENDBRANCH   1  16
TORSDOF 8
ENDMDL
MODEL 6
REMARK VINA RESULT:      -6.9      1.352      2.121
REMARK  Name = 
REMARK  10 active torsions:
REMARK  status: ('A' for Active; 'I' for Inactive)
REMARK    1  A    between atoms: C_1  and  O_2
REMARK    2  A    between atoms: O_2  and  C_3
REMARK    3  A    between atoms: C_6  and  N_7
REMARK    4  A    between atoms: C_8  and  C_10
REMARK    5  A    between atoms: C_10  and  S_11
REMARK    6  A    between atoms: S_11  and  C_12
REMARK    7  A    between atoms: C_15  and  C_16
REMARK    8  A    between atoms: N_22  and  N_23
REMARK    9  A    between atoms: C_24  and  O_25
REMARK   10  A    between atoms: O_25  and  C_26
REMARK                            x       y       z     vdW  Elec       q    Type
REMARK                         _______ _______ _______ _____ _____    ______ ____
ROOT
ATOM      1  C   UNL     1       1.712   3.453  21.471  0.00  0.00    +0.000 C 
ENDROOT
BRANCH   1   3
ATOM      2  N   UNL     1       2.363   5.714  20.784  0.00  0.00    +0.000 N 
ATOM      3  C   UNL     1       1.599   4.592  20.458  0.00  0.00    +0.000 C 
ATOM      4  O   UNL     1       0.865   4.517  19.472  0.00  0.00    +0.000 OA
ATOM      5  H   UNL     1       2.423   5.888  21.779  0.00  0.00    +0.000 HD
BRANCH   2   9
ATOM      6  C   UNL     1       2.042   9.143  18.344  0.00  0.00    +0.000 A 
ATOM      7  C   UNL     1       2.739   8.014  17.908  0.00  0.00    +0.000 A 
ATOM      8  C   UNL     1       2.834   6.877  18.714  0.00  0.00    +0.000 A 
ATOM      9  C   UNL     1       2.251   6.877  19.982  0.00  0.00    +0.000 A 
ATOM     10  C   UNL     1       1.537   8.001  20.433  0.00  0.00    +0.000 A 
ATOM     11  C   UNL     1       1.434   9.130  19.603  0.00  0.00    +0.000 A 
BRANCH   6  13
ATOM     12  C   UNL     1       2.169  11.492  17.954  0.00  0.00    +0.000 C 
ATOM     13  O   UNL     1       2.008  10.174  17.443  0.00  0.00    +0.000 OA
ENDBRANCH   6  13
BRANCH  10  14
ATOM     14  O   UNL     1       0.899   7.875  21.643  0.00  0.00    +0.000 OA
ATOM     15  C   UNL     1      -0.270   8.660  21.834  0.00  0.00    +0.000 C 
ENDBRANCH  10  14
ENDBRANCH   2   9
ENDBRANCH   1   3
BRANCH   1  16
ATOM     16  S   UNL     1       3.272   2.570  21.190  0.00  0.00    +0.000 S 
BRANCH  16  17
ATOM     17  C   UNL     1       3.432   2.631  19.466  0.00  0.00    +0.000 A 
ATOM     18  N   UNL     1       2.754   1.962  18.562  0.00  0.00    +0.000 NA
ATOM     19  N   UNL     1       3.239   2.332  17.324  0.00  0.00    +0.000 NA
ATOM     20  C   UNL     1       4.190   3.244  17.496  0.00  0.00    +0.000 A 
ATOM     21  N   UNL     1       4.361   3.436  18.850  0.00  0.00    +0.000 N 
BRANCH  20  22
ATOM     22  C   UNL     1       4.944   3.929  16.447  0.00  0.00    +0.000 A 
ATOM     23  C   UNL     1       5.578   3.227  15.426  0.00  0.00    +0.000 A 
ATOM     24  C   UNL     1       6.285   3.939  14.460  0.00  0.00    +0.000 A 
ATOM     25  C   UNL     1       6.329   5.326  14.528  0.00  0.00    +0.000 A 
ATOM     26  C   UNL     1       5.661   5.952  15.568  0.00  0.00    +0.000 A 
ATOM     27  N   UNL     1       4.975   5.288  16.528  0.00  0.00    +0.000 NA
ENDBRANCH  20  22
BRANCH  21  28
ATOM     28  N   UNL     1       5.338   4.282  19.501  0.00  0.00    +0.000 N 
ATOM     29  H   UNL     1       5.174   5.253  19.216  0.00  0.00    +0.000 HD
ATOM     30  H   UNL     1       5.212   4.256  20.510  0.00  0.00    +0.000 HD
ENDBRANCH  21  28
ENDBRANCH  16  17
ENDBRANCH   1  16
TORSDOF 8
ENDMDL
MODEL 7
REMARK VINA RESULT:      -6.7      4.502      6.464
REMARK  Name = 
REMARK  10 active torsions:
REMARK  status: ('A' for Active; 'I' for Inactive)
REMARK    1  A    between atoms: C_1  and  O_2
REMARK    2  A    between atoms: O_2  and  C_3
REMARK    3  A    between atoms: C_6  and  N_7
REMARK    4  A    between atoms: C_8  and  C_10
REMARK    5  A    between atoms: C_10  and  S_11
REMARK    6  A    between atoms: S_11  and  C_12
REMARK    7  A    between atoms: C_15  and  C_16
REMARK    8  A    between atoms: N_22  and  N_23
REMARK    9  A    between atoms: C_24  and  O_25
REMARK   10  A    between atoms: O_25  and  C_26
REMARK                            x       y       z     vdW  Elec       q    Type
REMARK                         _______ _______ _______ _____ _____    ______ ____
ROOT
ATOM      1  C   UNL     1       0.807  11.726  18.925  0.00  0.00    +0.000 C 
ENDROOT
BRANCH   1   3
ATOM      2  N   UNL     1      -1.555  11.153  18.608  0.00  0.00    +0.000 N 
ATOM      3  C   UNL     1      -0.627  12.193  18.675  0.00  0.00    +0.000 C 
ATOM      4  O   UNL     1      -0.906  13.382  18.513  0.00  0.00    +0.000 OA
ATOM      5  H   UNL     1      -1.187  10.309  18.189  0.00  0.00    +0.000 HD
BRANCH   2   9
ATOM      6  C   UNL     1      -5.556  12.082  17.639  0.00  0.00    +0.000 A 
ATOM      7  C   UNL     1      -5.072  12.259  18.938  0.00  0.00    +0.000 A 
ATOM      8  C   UNL     1      -3.744  11.962  19.252  0.00  0.00    +0.000 A 
ATOM      9  C   UNL     1      -2.897  11.453  18.266  0.00  0.00    +0.000 A 
ATOM     10  C   UNL     1      -3.365  11.278  16.951  0.00  0.00    +0.000 A 
ATOM     11  C   UNL     1      -4.698  11.601  16.647  0.00  0.00    +0.000 A 
BRANCH   6  13
ATOM     12  C   UNL     1      -7.128  13.701  16.868  0.00  0.00    +0.000 C 
ATOM     13  O   UNL     1      -6.868  12.438  17.468  0.00  0.00    +0.000 OA
ENDBRANCH   6  13
BRANCH  10  14
ATOM     14  O   UNL     1      -2.437  10.881  16.020  0.00  0.00    +0.000 OA
ATOM     15  C   UNL     1      -2.932  10.205  14.872  0.00  0.00    +0.000 C 
ENDBRANCH  10  14
ENDBRANCH   2   9
ENDBRANCH   1   3
BRANCH   1  16
ATOM     16  S   UNL     1       0.766  10.218  19.932  0.00  0.00    +0.000 S 
BRANCH  16  17
ATOM     17  C   UNL     1       1.600   9.076  18.931  0.00  0.00    +0.000 A 
ATOM     18  N   UNL     1       1.937   9.196  17.668  0.00  0.00    +0.000 NA
ATOM     19  N   UNL     1       2.576   8.029  17.297  0.00  0.00    +0.000 NA
ATOM     20  C   UNL     1       2.638   7.227  18.354  0.00  0.00    +0.000 A 
ATOM     21  N   UNL     1       2.000   7.849  19.405  0.00  0.00    +0.000 N 
BRANCH  20  22
ATOM     22  C   UNL     1       3.264   5.906  18.412  0.00  0.00    +0.000 A 
ATOM     23  C   UNL     1       2.745   4.822  17.709  0.00  0.00    +0.000 A 
ATOM     24  C   UNL     1       3.384   3.588  17.811  0.00  0.00    +0.000 A 
ATOM     25  C   UNL     1       4.526   3.472  18.595  0.00  0.00    +0.000 A 
ATOM     26  C   UNL     1       4.986   4.601  19.252  0.00  0.00    +0.000 A 
ATOM     27  N   UNL     1       4.382   5.810  19.182  0.00  0.00    +0.000 NA
ENDBRANCH  20  22
BRANCH  21  28
ATOM     28  N   UNL     1       1.761   7.314  20.728  0.00  0.00    +0.000 N 
ATOM     29  H   UNL     1       2.555   7.559  21.329  0.00  0.00    +0.000 HD
ATOM     30  H   UNL     1       0.943   7.752  21.144  0.00  0.00    +0.000 HD
ENDBRANCH  21  28
ENDBRANCH  16  17
ENDBRANCH   1  16
TORSDOF 8
ENDMDL
MODEL 8
REMARK VINA RESULT:      -6.7      1.314      2.433
REMARK  Name = 
REMARK  10 active torsions:
REMARK  status: ('A' for Active; 'I' for Inactive)
REMARK    1  A    between atoms: C_1  and  O_2
REMARK    2  A    between atoms: O_2  and  C_3
REMARK    3  A    between atoms: C_6  and  N_7
REMARK    4  A    between atoms: C_8  and  C_10
REMARK    5  A    between atoms: C_10  and  S_11
REMARK    6  A    between atoms: S_11  and  C_12
REMARK    7  A    between atoms: C_15  and  C_16
REMARK    8  A    between atoms: N_22  and  N_23
REMARK    9  A    between atoms: C_24  and  O_25
REMARK   10  A    between atoms: O_25  and  C_26
REMARK                            x       y       z     vdW  Elec       q    Type
REMARK                         _______ _______ _______ _____ _____    ______ ____
ROOT
ATOM      1  C   UNL     1       1.832   3.638  21.492  0.00  0.00    +0.000 C 
ENDROOT
BRANCH   1   3
ATOM      2  N   UNL     1       2.410   5.904  20.759  0.00  0.00    +0.000 N 
ATOM      3  C   UNL     1       1.628   4.778  20.495  0.00  0.00    +0.000 C 
ATOM      4  O   UNL     1       0.813   4.700  19.575  0.00  0.00    +0.000 OA
ATOM      5  H   UNL     1       2.553   6.076  21.745  0.00  0.00    +0.000 HD
BRANCH   2   9
ATOM      6  C   UNL     1       1.868   9.336  18.363  0.00  0.00    +0.000 A 
ATOM      7  C   UNL     1       2.584   8.234  17.888  0.00  0.00    +0.000 A 
ATOM      8  C   UNL     1       2.752   7.096  18.680  0.00  0.00    +0.000 A 
ATOM      9  C   UNL     1       2.225   7.067  19.971  0.00  0.00    +0.000 A 
ATOM     10  C   UNL     1       1.492   8.163  20.461  0.00  0.00    +0.000 A 
ATOM     11  C   UNL     1       1.315   9.293  19.646  0.00  0.00    +0.000 A 
BRANCH   6  13
ATOM     12  C   UNL     1       2.301  11.627  17.865  0.00  0.00    +0.000 C 
ATOM     13  O   UNL     1       1.761  10.371  17.472  0.00  0.00    +0.000 OA
ENDBRANCH   6  13
BRANCH  10  14
ATOM     14  O   UNL     1       0.911   8.007  21.697  0.00  0.00    +0.000 OA
ATOM     15  C   UNL     1       0.688   9.190  22.452  0.00  0.00    +0.000 C 
ENDBRANCH  10  14
ENDBRANCH   2   9
ENDBRANCH   1   3
BRANCH   1  16
ATOM     16  S   UNL     1       2.558   2.221  20.623  0.00  0.00    +0.000 S 
BRANCH  16  17
ATOM     17  C   UNL     1       3.866   2.948  19.749  0.00  0.00    +0.000 A 
ATOM     18  N   UNL     1       5.060   3.268  20.189  0.00  0.00    +0.000 NA
ATOM     19  N   UNL     1       5.754   3.829  19.136  0.00  0.00    +0.000 NA
ATOM     20  C   UNL     1       4.974   3.815  18.061  0.00  0.00    +0.000 A 
ATOM     21  N   UNL     1       3.753   3.289  18.421  0.00  0.00    +0.000 N 
BRANCH  20  22
ATOM     22  C   UNL     1       5.327   4.281  16.720  0.00  0.00    +0.000 A 
ATOM     23  C   UNL     1       5.824   3.413  15.753  0.00  0.00    +0.000 A 
ATOM     24  C   UNL     1       6.147   3.921  14.496  0.00  0.00    +0.000 A 
ATOM     25  C   UNL     1       5.952   5.272  14.234  0.00  0.00    +0.000 A 
ATOM     26  C   UNL     1       5.440   6.068  15.246  0.00  0.00    +0.000 A 
ATOM     27  N   UNL     1       5.128   5.606  16.480  0.00  0.00    +0.000 NA
ENDBRANCH  20  22
BRANCH  21  28
ATOM     28  N   UNL     1       2.576   3.152  17.592  0.00  0.00    +0.000 N 
ATOM     29  H   UNL     1       2.724   3.674  16.722  0.00  0.00    +0.000 HD
ATOM     30  H   UNL     1       2.444   2.180  17.322  0.00  0.00    +0.000 HD
ENDBRANCH  21  28
ENDBRANCH  16  17
ENDBRANCH   1  16
TORSDOF 8
ENDMDL
MODEL 9
REMARK VINA RESULT:      -6.7      4.362      9.587
REMARK  Name = 
REMARK  10 active torsions:
REMARK  status: ('A' for Active; 'I' for Inactive)
REMARK    1  A    between atoms: C_1  and  O_2
REMARK    2  A    between atoms: O_2  and  C_3
REMARK    3  A    between atoms: C_6  and  N_7
REMARK    4  A    between atoms: C_8  and  C_10
REMARK    5  A    between atoms: C_10  and  S_11
REMARK    6  A    between atoms: S_11  and  C_12
REMARK    7  A    between atoms: C_15  and  C_16
REMARK    8  A    between atoms: N_22  and  N_23
REMARK    9  A    between atoms: C_24  and  O_25
REMARK   10  A    between atoms: O_25  and  C_26
REMARK                            x       y       z     vdW  Elec       q    Type
REMARK                         _______ _______ _______ _____ _____    ______ ____
ROOT
ATOM      1  C   UNL     1       1.678   8.115  20.478  0.00  0.00    +0.000 C 
ENDROOT
BRANCH   1   3
ATOM      2  N   UNL     1       2.982   6.222  19.627  0.00  0.00    +0.000 N 
ATOM      3  C   UNL     1       2.265   7.368  19.280  0.00  0.00    +0.000 C 
ATOM      4  O   UNL     1       2.137   7.783  18.127  0.00  0.00    +0.000 OA
ATOM      5  H   UNL     1       3.482   6.306  20.502  0.00  0.00    +0.000 HD
BRANCH   2   9
ATOM      6  C   UNL     1       5.081   4.120  16.629  0.00  0.00    +0.000 A 
ATOM      7  C   UNL     1       5.661   5.211  17.282  0.00  0.00    +0.000 A 
ATOM      8  C   UNL     1       4.968   5.897  18.282  0.00  0.00    +0.000 A 
ATOM      9  C   UNL     1       3.669   5.510  18.613  0.00  0.00    +0.000 A 
ATOM     10  C   UNL     1       3.073   4.407  17.973  0.00  0.00    +0.000 A 
ATOM     11  C   UNL     1       3.791   3.716  16.984  0.00  0.00    +0.000 A 
BRANCH   6  13
ATOM     12  C   UNL     1       6.522   4.378  14.747  0.00  0.00    +0.000 C 
ATOM     13  O   UNL     1       5.883   3.527  15.691  0.00  0.00    +0.000 OA
ENDBRANCH   6  13
BRANCH  10  14
ATOM     14  O   UNL     1       1.839   4.024  18.439  0.00  0.00    +0.000 OA
ATOM     15  C   UNL     1       1.572   2.628  18.464  0.00  0.00    +0.000 C 
ENDBRANCH  10  14
ENDBRANCH   2   9
ENDBRANCH   1   3
BRANCH   1  16
ATOM     16  S   UNL     1       0.708   9.524  19.873  0.00  0.00    +0.000 S 
BRANCH  16  17
ATOM     17  C   UNL     1       0.062  10.190  21.336  0.00  0.00    +0.000 A 
ATOM     18  N   UNL     1       0.356   9.870  22.575  0.00  0.00    +0.000 NA
ATOM     19  N   UNL     1      -0.417  10.661  23.401  0.00  0.00    +0.000 NA
ATOM     20  C   UNL     1      -1.153  11.469  22.646  0.00  0.00    +0.000 A 
ATOM     21  N   UNL     1      -0.896  11.176  21.324  0.00  0.00    +0.000 N 
BRANCH  20  22
ATOM     22  C   UNL     1      -2.086  12.493  23.116  0.00  0.00    +0.000 A 
ATOM     23  C   UNL     1      -1.640  13.701  23.643  0.00  0.00    +0.000 A 
ATOM     24  C   UNL     1      -2.580  14.633  24.079  0.00  0.00    +0.000 A 
ATOM     25  C   UNL     1      -3.935  14.342  23.963  0.00  0.00    +0.000 A 
ATOM     26  C   UNL     1      -4.298  13.123  23.415  0.00  0.00    +0.000 A 
ATOM     27  N   UNL     1      -3.408  12.193  22.993  0.00  0.00    +0.000 NA
ENDBRANCH  20  22
BRANCH  21  28
ATOM     28  N   UNL     1      -1.526  11.756  20.158  0.00  0.00    +0.000 N 
ATOM     29  H   UNL     1      -1.701  12.749  20.339  0.00  0.00    +0.000 HD
ATOM     30  H   UNL     1      -0.896  11.718  19.360  0.00  0.00    +0.000 HD
ENDBRANCH  21  28
ENDBRANCH  16  17
ENDBRANCH   1  16
TORSDOF 8
ENDMDL
