MODEL 1
REMARK VINA RESULT:      -7.9      0.000      0.000
REMARK  Name = 
REMARK  4 active torsions:
REMARK  status: ('A' for Active; 'I' for Inactive)
REMARK    1  A    between atoms: C_1  and  C_2
REMARK    2  A    between atoms: N_4  and  C_5
REMARK    3  A    between atoms: N_11  and  S_12
REMARK    4  A    between atoms: S_12  and  C_15
REMARK                            x       y       z     vdW  Elec       q    Type
REMARK                         _______ _______ _______ _____ _____    ______ ____
ROOT
ATOM      1  C   UNL     1       2.431   7.065  18.887  0.00  0.00    +0.000 A 
ATOM      2  C   UNL     1       2.057   6.619  20.149  0.00  0.00    +0.000 A 
ATOM      3  C   UNL     1       2.266   5.290  20.511  0.00  0.00    +0.000 A 
ATOM      4  C   UNL     1       2.889   4.394  19.629  0.00  0.00    +0.000 A 
ATOM      5  C   UNL     1       3.305   4.835  18.360  0.00  0.00    +0.000 A 
ATOM      6  C   UNL     1       3.018   6.158  17.991  0.00  0.00    +0.000 A 
ATOM      7  N   UNL     1       3.905   3.893  17.434  0.00  0.00    +0.000 N 
ATOM      8  C   UNL     1       3.788   2.446  17.751  0.00  0.00    +0.000 C 
ATOM      9  C   UNL     1       4.001   2.179  19.228  0.00  0.00    +0.000 C 
ATOM     10  C   UNL     1       2.997   2.956  20.055  0.00  0.00    +0.000 C 
ENDROOT
BRANCH   1  14
ATOM     11  C   UNL     1       1.353  10.622  18.248  0.00  0.00    +0.000 C 
ATOM     12  C   UNL     1       1.405   9.335  19.031  0.00  0.00    +0.000 C 
ATOM     13  O   UNL     1       0.771   9.211  20.073  0.00  0.00    +0.000 OA
ATOM     14  N   UNL     1       2.224   8.390  18.441  0.00  0.00    +0.000 N 
ATOM     15  H   UNL     1       2.792   8.695  17.660  0.00  0.00    +0.000 HD
ENDBRANCH   1  14
BRANCH   7  16
ATOM     16  S   UNL     1       5.144   4.353  16.352  0.00  0.00    +0.000 S 
ATOM     17  O   UNL     1       5.961   3.189  16.071  0.00  0.00    +0.000 OA
ATOM     18  O   UNL     1       4.600   5.116  15.244  0.00  0.00    +0.000 OA
BRANCH  16  19
ATOM     19  C   UNL     1       6.170   5.484  17.288  0.00  0.00    +0.000 A 
ATOM     20  C   UNL     1       6.915   5.004  18.373  0.00  0.00    +0.000 A 
ATOM     21  C   UNL     1       7.848   5.839  18.992  0.00  0.00    +0.000 A 
ATOM     22  C   UNL     1       8.038   7.135  18.519  0.00  0.00    +0.000 A 
ATOM     23  F   UNL     1       8.953   7.922  19.100  0.00  0.00    +0.000 F 
ATOM     24  C   UNL     1       7.308   7.616  17.436  0.00  0.00    +0.000 A 
ATOM     25  C   UNL     1       6.374   6.787  16.811  0.00  0.00    +0.000 A 
ENDBRANCH  16  19
ENDBRANCH   7  16
TORSDOF 3
ENDMDL
MODEL 2
REMARK VINA RESULT:      -7.6      3.606      6.821
REMARK  Name = 
REMARK  4 active torsions:
REMARK  status: ('A' for Active; 'I' for Inactive)
REMARK    1  A    between atoms: C_1  and  C_2
REMARK    2  A    between atoms: N_4  and  C_5
REMARK    3  A    between atoms: N_11  and  S_12
REMARK    4  A    between atoms: S_12  and  C_15
REMARK                            x       y       z     vdW  Elec       q    Type
REMARK                         _______ _______ _______ _____ _____    ______ ____
ROOT
ATOM      1  C   UNL     1       6.414   4.015  14.371  0.00  0.00    +0.000 A 
ATOM      2  C   UNL     1       7.379   4.947  14.735  0.00  0.00    +0.000 A 
ATOM      3  C   UNL     1       7.220   5.704  15.893  0.00  0.00    +0.000 A 
ATOM      4  C   UNL     1       6.110   5.512  16.730  0.00  0.00    +0.000 A 
ATOM      5  C   UNL     1       5.139   4.549  16.398  0.00  0.00    +0.000 A 
ATOM      6  C   UNL     1       5.285   3.851  15.189  0.00  0.00    +0.000 A 
ATOM      7  N   UNL     1       3.970   4.388  17.241  0.00  0.00    +0.000 N 
ATOM      8  C   UNL     1       3.700   5.442  18.254  0.00  0.00    +0.000 C 
ATOM      9  C   UNL     1       4.975   5.899  18.936  0.00  0.00    +0.000 C 
ATOM     10  C   UNL     1       5.961   6.428  17.913  0.00  0.00    +0.000 C 
ENDROOT
BRANCH   1  14
ATOM     11  C   UNL     1       5.904   2.141  11.139  0.00  0.00    +0.000 C 
ATOM     12  C   UNL     1       5.525   3.124  12.217  0.00  0.00    +0.000 C 
ATOM     13  O   UNL     1       4.462   3.732  12.164  0.00  0.00    +0.000 OA
ATOM     14  N   UNL     1       6.495   3.234  13.197  0.00  0.00    +0.000 N 
ATOM     15  H   UNL     1       7.381   2.774  13.023  0.00  0.00    +0.000 HD
ENDBRANCH   1  14
BRANCH   7  16
ATOM     16  S   UNL     1       3.239   2.864  17.493  0.00  0.00    +0.000 S 
ATOM     17  O   UNL     1       2.125   2.735  16.574  0.00  0.00    +0.000 OA
ATOM     18  O   UNL     1       4.241   1.816  17.537  0.00  0.00    +0.000 OA
BRANCH  16  19
ATOM     19  C   UNL     1       2.537   2.962  19.137  0.00  0.00    +0.000 A 
ATOM     20  C   UNL     1       1.163   3.193  19.291  0.00  0.00    +0.000 A 
ATOM     21  C   UNL     1       0.584   3.093  20.557  0.00  0.00    +0.000 A 
ATOM     22  C   UNL     1       1.373   2.753  21.654  0.00  0.00    +0.000 A 
ATOM     23  F   UNL     1       0.807   2.633  22.862  0.00  0.00    +0.000 F 
ATOM     24  C   UNL     1       2.736   2.514  21.509  0.00  0.00    +0.000 A 
ATOM     25  C   UNL     1       3.322   2.611  20.245  0.00  0.00    +0.000 A 
ENDBRANCH  16  19
ENDBRANCH   7  16
TORSDOF 3
ENDMDL
MODEL 3
REMARK VINA RESULT:      -7.4      0.313      1.038
REMARK  Name = 
REMARK  4 active torsions:
REMARK  status: ('A' for Active; 'I' for Inactive)
REMARK    1  A    between atoms: C_1  and  C_2
REMARK    2  A    between atoms: N_4  and  C_5
REMARK    3  A    between atoms: N_11  and  S_12
REMARK    4  A    between atoms: S_12  and  C_15
REMARK                            x       y       z     vdW  Elec       q    Type
REMARK                         _______ _______ _______ _____ _____    ______ ____
ROOT
ATOM      1  C   UNL     1       2.662   7.116  18.690  0.00  0.00    +0.000 A 
ATOM      2  C   UNL     1       2.370   6.722  19.991  0.00  0.00    +0.000 A 
ATOM      3  C   UNL     1       2.602   5.409  20.393  0.00  0.00    +0.000 A 
ATOM      4  C   UNL     1       3.168   4.477  19.510  0.00  0.00    +0.000 A 
ATOM      5  C   UNL     1       3.503   4.864  18.200  0.00  0.00    +0.000 A 
ATOM      6  C   UNL     1       3.193   6.172  17.797  0.00  0.00    +0.000 A 
ATOM      7  N   UNL     1       4.043   3.884  17.278  0.00  0.00    +0.000 N 
ATOM      8  C   UNL     1       3.948   2.451  17.660  0.00  0.00    +0.000 C 
ATOM      9  C   UNL     1       4.254   2.245  19.131  0.00  0.00    +0.000 C 
ATOM     10  C   UNL     1       3.304   3.056  19.988  0.00  0.00    +0.000 C 
ENDROOT
BRANCH   1  14
ATOM     11  C   UNL     1       1.484  10.614  17.921  0.00  0.00    +0.000 C 
ATOM     12  C   UNL     1       1.549   9.348  18.736  0.00  0.00    +0.000 C 
ATOM     13  O   UNL     1       0.876   9.223  19.753  0.00  0.00    +0.000 OA
ATOM     14  N   UNL     1       2.427   8.421  18.205  0.00  0.00    +0.000 N 
ATOM     15  H   UNL     1       3.017   8.731  17.441  0.00  0.00    +0.000 HD
ENDBRANCH   1  14
BRANCH   7  16
ATOM     16  S   UNL     1       5.211   4.297  16.101  0.00  0.00    +0.000 S 
ATOM     17  O   UNL     1       5.885   3.083  15.681  0.00  0.00    +0.000 OA
ATOM     18  O   UNL     1       4.638   5.170  15.094  0.00  0.00    +0.000 OA
BRANCH  16  19
ATOM     19  C   UNL     1       6.423   5.274  16.986  0.00  0.00    +0.000 A 
ATOM     20  C   UNL     1       6.630   6.612  16.626  0.00  0.00    +0.000 A 
ATOM     21  C   UNL     1       7.440   7.424  17.422  0.00  0.00    +0.000 A 
ATOM     22  C   UNL     1       8.024   6.901  18.574  0.00  0.00    +0.000 A 
ATOM     23  F   UNL     1       8.778   7.692  19.348  0.00  0.00    +0.000 F 
ATOM     24  C   UNL     1       7.817   5.576  18.943  0.00  0.00    +0.000 A 
ATOM     25  C   UNL     1       7.007   4.758  18.153  0.00  0.00    +0.000 A 
ENDBRANCH  16  19
ENDBRANCH   7  16
TORSDOF 3
ENDMDL
MODEL 4
REMARK VINA RESULT:      -7.4      4.733      8.494
REMARK  Name = 
REMARK  4 active torsions:
REMARK  status: ('A' for Active; 'I' for Inactive)
REMARK    1  A    between atoms: C_1  and  C_2
REMARK    2  A    between atoms: N_4  and  C_5
REMARK    3  A    between atoms: N_11  and  S_12
REMARK    4  A    between atoms: S_12  and  C_15
REMARK                            x       y       z     vdW  Elec       q    Type
REMARK                         _______ _______ _______ _____ _____    ______ ____
ROOT
ATOM      1  C   UNL     1       2.386   6.149  20.069  0.00  0.00    +0.000 A 
ATOM      2  C   UNL     1       3.053   6.380  18.872  0.00  0.00    +0.000 A 
ATOM      3  C   UNL     1       2.840   7.562  18.168  0.00  0.00    +0.000 A 
ATOM      4  C   UNL     1       1.982   8.553  18.671  0.00  0.00    +0.000 A 
ATOM      5  C   UNL     1       1.324   8.354  19.898  0.00  0.00    +0.000 A 
ATOM      6  C   UNL     1       1.499   7.125  20.552  0.00  0.00    +0.000 A 
ATOM      7  N   UNL     1       0.402   9.361  20.389  0.00  0.00    +0.000 N 
ATOM      8  C   UNL     1      -0.030  10.421  19.442  0.00  0.00    +0.000 C 
ATOM      9  C   UNL     1       1.124  10.911  18.589  0.00  0.00    +0.000 C 
ATOM     10  C   UNL     1       1.732   9.761  17.811  0.00  0.00    +0.000 C 
ENDROOT
BRANCH   1  14
ATOM     11  C   UNL     1       2.099   2.799  21.776  0.00  0.00    +0.000 C 
ATOM     12  C   UNL     1       1.698   3.860  20.783  0.00  0.00    +0.000 C 
ATOM     13  O   UNL     1       0.733   3.694  20.046  0.00  0.00    +0.000 OA
ATOM     14  N   UNL     1       2.531   4.963  20.821  0.00  0.00    +0.000 N 
ATOM     15  H   UNL     1       3.371   4.886  21.383  0.00  0.00    +0.000 HD
ENDBRANCH   1  14
BRANCH   7  16
ATOM     16  S   UNL     1       0.230   9.692  22.056  0.00  0.00    +0.000 S 
ATOM     17  O   UNL     1      -0.742   8.769  22.607  0.00  0.00    +0.000 OA
ATOM     18  O   UNL     1       1.529   9.811  22.692  0.00  0.00    +0.000 OA
BRANCH  16  19
ATOM     19  C   UNL     1      -0.515  11.319  22.122  0.00  0.00    +0.000 A 
ATOM     20  C   UNL     1      -1.775  11.480  22.714  0.00  0.00    +0.000 A 
ATOM     21  C   UNL     1      -2.279  12.764  22.927  0.00  0.00    +0.000 A 
ATOM     22  C   UNL     1      -1.521  13.874  22.561  0.00  0.00    +0.000 A 
ATOM     23  F   UNL     1      -1.998  15.104  22.792  0.00  0.00    +0.000 F 
ATOM     24  C   UNL     1      -0.265  13.724  21.981  0.00  0.00    +0.000 A 
ATOM     25  C   UNL     1       0.246  12.442  21.766  0.00  0.00    +0.000 A 
ENDBRANCH  16  19
ENDBRANCH   7  16
TORSDOF 3
ENDMDL
MODEL 5
REMARK VINA RESULT:      -7.3      2.645      3.145
REMARK  Name = 
REMARK  4 active torsions:
REMARK  status: ('A' for Active; 'I' for Inactive)
REMARK    1  A    between atoms: C_1  and  C_2
REMARK    2  A    between atoms: N_4  and  C_5
REMARK    3  A    between atoms: N_11  and  S_12
REMARK    4  A    between atoms: S_12  and  C_15
REMARK                            x       y       z     vdW  Elec       q    Type
REMARK                         _______ _______ _______ _____ _____    ______ ____
ROOT
ATOM      1  C   UNL     1       2.201   6.984  19.716  0.00  0.00    +0.000 A 
ATOM      2  C   UNL     1       1.478   6.292  20.681  0.00  0.00    +0.000 A 
ATOM      3  C   UNL     1       1.756   4.952  20.936  0.00  0.00    +0.000 A 
ATOM      4  C   UNL     1       2.791   4.290  20.256  0.00  0.00    +0.000 A 
ATOM      5  C   UNL     1       3.556   4.982  19.300  0.00  0.00    +0.000 A 
ATOM      6  C   UNL     1       3.209   6.311  19.009  0.00  0.00    +0.000 A 
ATOM      7  N   UNL     1       4.592   4.281  18.566  0.00  0.00    +0.000 N 
ATOM      8  C   UNL     1       4.607   2.797  18.642  0.00  0.00    +0.000 C 
ATOM      9  C   UNL     1       4.317   2.308  20.048  0.00  0.00    +0.000 C 
ATOM     10  C   UNL     1       2.971   2.820  20.519  0.00  0.00    +0.000 C 
ENDROOT
BRANCH   1  14
ATOM     11  C   UNL     1       1.839  10.398  18.156  0.00  0.00    +0.000 C 
ATOM     12  C   UNL     1       2.111   8.915  18.140  0.00  0.00    +0.000 C 
ATOM     13  O   UNL     1       2.425   8.348  17.099  0.00  0.00    +0.000 OA
ATOM     14  N   UNL     1       1.954   8.335  19.385  0.00  0.00    +0.000 N 
ATOM     15  H   UNL     1       1.551   8.911  20.114  0.00  0.00    +0.000 HD
ENDBRANCH   1  14
BRANCH   7  16
ATOM     16  S   UNL     1       6.044   5.048  18.095  0.00  0.00    +0.000 S 
ATOM     17  O   UNL     1       5.914   6.469  18.354  0.00  0.00    +0.000 OA
ATOM     18  O   UNL     1       7.194   4.338  18.623  0.00  0.00    +0.000 OA
BRANCH  16  19
ATOM     19  C   UNL     1       6.105   4.856  16.316  0.00  0.00    +0.000 A 
ATOM     20  C   UNL     1       7.291   5.149  15.629  0.00  0.00    +0.000 A 
ATOM     21  C   UNL     1       7.398   4.833  14.273  0.00  0.00    +0.000 A 
ATOM     22  C   UNL     1       6.331   4.219  13.619  0.00  0.00    +0.000 A 
ATOM     23  F   UNL     1       6.450   3.894  12.325  0.00  0.00    +0.000 F 
ATOM     24  C   UNL     1       5.154   3.917  14.296  0.00  0.00    +0.000 A 
ATOM     25  C   UNL     1       5.040   4.229  15.653  0.00  0.00    +0.000 A 
ENDBRANCH  16  19
ENDBRANCH   7  16
TORSDOF 3
ENDMDL
MODEL 6
REMARK VINA RESULT:      -7.3      2.658      3.154
REMARK  Name = 
REMARK  4 active torsions:
REMARK  status: ('A' for Active; 'I' for Inactive)
REMARK    1  A    between atoms: C_1  and  C_2
REMARK    2  A    between atoms: N_4  and  C_5
REMARK    3  A    between atoms: N_11  and  S_12
REMARK    4  A    between atoms: S_12  and  C_15
REMARK                            x       y       z     vdW  Elec       q    Type
REMARK                         _______ _______ _______ _____ _____    ______ ____
ROOT
ATOM      1  C   UNL     1       2.166   6.897  19.700  0.00  0.00    +0.000 A 
ATOM      2  C   UNL     1       1.469   6.211  20.687  0.00  0.00    +0.000 A 
ATOM      3  C   UNL     1       1.772   4.880  20.962  0.00  0.00    +0.000 A 
ATOM      4  C   UNL     1       2.807   4.224  20.279  0.00  0.00    +0.000 A 
ATOM      5  C   UNL     1       3.548   4.910  19.300  0.00  0.00    +0.000 A 
ATOM      6  C   UNL     1       3.176   6.227  18.990  0.00  0.00    +0.000 A 
ATOM      7  N   UNL     1       4.585   4.212  18.564  0.00  0.00    +0.000 N 
ATOM      8  C   UNL     1       4.625   2.730  18.667  0.00  0.00    +0.000 C 
ATOM      9  C   UNL     1       4.363   2.262  20.086  0.00  0.00    +0.000 C 
ATOM     10  C   UNL     1       3.016   2.762  20.566  0.00  0.00    +0.000 C 
ENDROOT
BRANCH   1  14
ATOM     11  C   UNL     1       1.817  10.304  18.121  0.00  0.00    +0.000 C 
ATOM     12  C   UNL     1       2.162   8.836  18.130  0.00  0.00    +0.000 C 
ATOM     13  O   UNL     1       2.618   8.295  17.130  0.00  0.00    +0.000 OA
ATOM     14  N   UNL     1       1.894   8.238  19.347  0.00  0.00    +0.000 N 
ATOM     15  H   UNL     1       1.382   8.787  20.028  0.00  0.00    +0.000 HD
ENDBRANCH   1  14
BRANCH   7  16
ATOM     16  S   UNL     1       6.018   4.994  18.059  0.00  0.00    +0.000 S 
ATOM     17  O   UNL     1       5.795   6.426  18.099  0.00  0.00    +0.000 OA
ATOM     18  O   UNL     1       7.172   4.442  18.743  0.00  0.00    +0.000 OA
BRANCH  16  19
ATOM     19  C   UNL     1       6.194   4.551  16.333  0.00  0.00    +0.000 A 
ATOM     20  C   UNL     1       5.089   4.050  15.631  0.00  0.00    +0.000 A 
ATOM     21  C   UNL     1       5.173   3.873  14.249  0.00  0.00    +0.000 A 
ATOM     22  C   UNL     1       6.348   4.206  13.578  0.00  0.00    +0.000 A 
ATOM     23  F   UNL     1       6.413   4.058  12.249  0.00  0.00    +0.000 F 
ATOM     24  C   UNL     1       7.446   4.712  14.267  0.00  0.00    +0.000 A 
ATOM     25  C   UNL     1       7.370   4.894  15.649  0.00  0.00    +0.000 A 
ENDBRANCH  16  19
ENDBRANCH   7  16
TORSDOF 3
ENDMDL
MODEL 7
REMARK VINA RESULT:      -7.1      4.753      8.523
REMARK  Name = 
REMARK  4 active torsions:
REMARK  status: ('A' for Active; 'I' for Inactive)
REMARK    1  A    between atoms: C_1  and  C_2
REMARK    2  A    between atoms: N_4  and  C_5
REMARK    3  A    between atoms: N_11  and  S_12
REMARK    4  A    between atoms: S_12  and  C_15
REMARK                            x       y       z     vdW  Elec       q    Type
REMARK                         _______ _______ _______ _____ _____    ______ ____
ROOT
ATOM      1  C   UNL     1       2.394   6.250  20.000  0.00  0.00    +0.000 A 
ATOM      2  C   UNL     1       2.996   6.517  18.776  0.00  0.00    +0.000 A 
ATOM      3  C   UNL     1       2.720   7.705  18.104  0.00  0.00    +0.000 A 
ATOM      4  C   UNL     1       1.865   8.666  18.666  0.00  0.00    +0.000 A 
ATOM      5  C   UNL     1       1.272   8.430  19.920  0.00  0.00    +0.000 A 
ATOM      6  C   UNL     1       1.508   7.194  20.542  0.00  0.00    +0.000 A 
ATOM      7  N   UNL     1       0.351   9.405  20.473  0.00  0.00    +0.000 N 
ATOM      8  C   UNL     1      -0.152  10.469  19.567  0.00  0.00    +0.000 C 
ATOM      9  C   UNL     1       0.947  11.003  18.668  0.00  0.00    +0.000 C 
ATOM     10  C   UNL     1       1.543   9.882  17.841  0.00  0.00    +0.000 C 
ENDROOT
BRANCH   1  14
ATOM     11  C   UNL     1       2.250   2.887  21.700  0.00  0.00    +0.000 C 
ATOM     12  C   UNL     1       1.758   3.962  20.764  0.00  0.00    +0.000 C 
ATOM     13  O   UNL     1       0.718   3.813  20.133  0.00  0.00    +0.000 OA
ATOM     14  N   UNL     1       2.604   5.054  20.722  0.00  0.00    +0.000 N 
ATOM     15  H   UNL     1       3.498   4.963  21.191  0.00  0.00    +0.000 HD
ENDBRANCH   1  14
BRANCH   7  16
ATOM     16  S   UNL     1       0.253   9.704  22.152  0.00  0.00    +0.000 S 
ATOM     17  O   UNL     1      -0.737   8.809  22.718  0.00  0.00    +0.000 OA
ATOM     18  O   UNL     1       1.577   9.754  22.743  0.00  0.00    +0.000 OA
BRANCH  16  19
ATOM     19  C   UNL     1      -0.420  11.358  22.281  0.00  0.00    +0.000 A 
ATOM     20  C   UNL     1       0.284  12.437  21.729  0.00  0.00    +0.000 A 
ATOM     21  C   UNL     1      -0.318  13.696  21.670  0.00  0.00    +0.000 A 
ATOM     22  C   UNL     1      -1.615  13.866  22.149  0.00  0.00    +0.000 A 
ATOM     23  F   UNL     1      -2.196  15.070  22.065  0.00  0.00    +0.000 F 
ATOM     24  C   UNL     1      -2.324  12.798  22.690  0.00  0.00    +0.000 A 
ATOM     25  C   UNL     1      -1.730  11.536  22.751  0.00  0.00    +0.000 A 
ENDBRANCH  16  19
ENDBRANCH   7  16
TORSDOF 3
ENDMDL
MODEL 8
REMARK VINA RESULT:      -7.0      2.695      3.221
REMARK  Name = 
REMARK  4 active torsions:
REMARK  status: ('A' for Active; 'I' for Inactive)
REMARK    1  A    between atoms: C_1  and  C_2
REMARK    2  A    between atoms: N_4  and  C_5
REMARK    3  A    between atoms: N_11  and  S_12
REMARK    4  A    between atoms: S_12  and  C_15
REMARK                            x       y       z     vdW  Elec       q    Type
REMARK                         _______ _______ _______ _____ _____    ______ ____
ROOT
ATOM      1  C   UNL     1       2.009   6.341  20.394  0.00  0.00    +0.000 A 
ATOM      2  C   UNL     1       1.208   5.371  20.984  0.00  0.00    +0.000 A 
ATOM      3  C   UNL     1       1.315   4.040  20.591  0.00  0.00    +0.000 A 
ATOM      4  C   UNL     1       2.256   3.650  19.624  0.00  0.00    +0.000 A 
ATOM      5  C   UNL     1       3.099   4.612  19.039  0.00  0.00    +0.000 A 
ATOM      6  C   UNL     1       2.922   5.956  19.400  0.00  0.00    +0.000 A 
ATOM      7  N   UNL     1       4.036   4.211  18.007  0.00  0.00    +0.000 N 
ATOM      8  C   UNL     1       3.864   2.863  17.404  0.00  0.00    +0.000 C 
ATOM      9  C   UNL     1       3.520   1.824  18.453  0.00  0.00    +0.000 C 
ATOM     10  C   UNL     1       2.250   2.211  19.185  0.00  0.00    +0.000 C 
ENDROOT
BRANCH   1  14
ATOM     11  C   UNL     1       1.062   9.868  21.336  0.00  0.00    +0.000 C 
ATOM     12  C   UNL     1       0.810   8.393  21.153  0.00  0.00    +0.000 C 
ATOM     13  O   UNL     1      -0.294   7.914  21.388  0.00  0.00    +0.000 OA
ATOM     14  N   UNL     1       1.934   7.713  20.722  0.00  0.00    +0.000 N 
ATOM     15  H   UNL     1       2.808   8.226  20.714  0.00  0.00    +0.000 HD
ENDBRANCH   1  14
BRANCH   7  16
ATOM     16  S   UNL     1       5.572   4.942  17.846  0.00  0.00    +0.000 S 
ATOM     17  O   UNL     1       5.441   6.351  18.160  0.00  0.00    +0.000 OA
ATOM     18  O   UNL     1       6.586   4.160  18.527  0.00  0.00    +0.000 OA
BRANCH  16  19
ATOM     19  C   UNL     1       5.945   4.839  16.097  0.00  0.00    +0.000 A 
ATOM     20  C   UNL     1       7.231   5.163  15.644  0.00  0.00    +0.000 A 
ATOM     21  C   UNL     1       7.576   4.915  14.314  0.00  0.00    +0.000 A 
ATOM     22  C   UNL     1       6.644   4.338  13.453  0.00  0.00    +0.000 A 
ATOM     23  F   UNL     1       6.990   4.079  12.185  0.00  0.00    +0.000 F 
ATOM     24  C   UNL     1       5.368   4.006  13.898  0.00  0.00    +0.000 A 
ATOM     25  C   UNL     1       5.016   4.249  15.227  0.00  0.00    +0.000 A 
ENDBRANCH  16  19
ENDBRANCH   7  16
TORSDOF 3
ENDMDL
MODEL 9
REMARK VINA RESULT:      -7.0      3.656      5.282
REMARK  Name = 
REMARK  4 active torsions:
REMARK  status: ('A' for Active; 'I' for Inactive)
REMARK    1  A    between atoms: C_1  and  C_2
REMARK    2  A    between atoms: N_4  and  C_5
REMARK    3  A    between atoms: N_11  and  S_12
REMARK    4  A    between atoms: S_12  and  C_15
REMARK                            x       y       z     vdW  Elec       q    Type
REMARK                         _______ _______ _______ _____ _____    ______ ____
ROOT
ATOM      1  C   UNL     1       0.526   9.310  20.410  0.00  0.00    +0.000 A 
ATOM      2  C   UNL     1       0.789  10.022  19.245  0.00  0.00    +0.000 A 
ATOM      3  C   UNL     1       1.687   9.522  18.306  0.00  0.00    +0.000 A 
ATOM      4  C   UNL     1       2.309   8.279  18.499  0.00  0.00    +0.000 A 
ATOM      5  C   UNL     1       2.031   7.526  19.654  0.00  0.00    +0.000 A 
ATOM      6  C   UNL     1       1.179   8.085  20.619  0.00  0.00    +0.000 A 
ATOM      7  N   UNL     1       2.713   6.265  19.870  0.00  0.00    +0.000 N 
ATOM      8  C   UNL     1       3.888   5.960  19.013  0.00  0.00    +0.000 C 
ATOM      9  C   UNL     1       3.648   6.367  17.572  0.00  0.00    +0.000 C 
ATOM     10  C   UNL     1       3.334   7.847  17.486  0.00  0.00    +0.000 C 
ENDROOT
BRANCH   1  14
ATOM     11  C   UNL     1      -1.331  11.126  23.144  0.00  0.00    +0.000 C 
ATOM     12  C   UNL     1      -0.291  10.993  22.060  0.00  0.00    +0.000 C 
ATOM     13  O   UNL     1       0.484  11.912  21.821  0.00  0.00    +0.000 OA
ATOM     14  N   UNL     1      -0.350   9.770  21.418  0.00  0.00    +0.000 N 
ATOM     15  H   UNL     1      -1.141   9.174  21.633  0.00  0.00    +0.000 HD
ENDBRANCH   1  14
BRANCH   7  16
ATOM     16  S   UNL     1       1.948   4.943  20.637  0.00  0.00    +0.000 S 
ATOM     17  O   UNL     1       2.462   4.839  21.989  0.00  0.00    +0.000 OA
ATOM     18  O   UNL     1       0.513   4.991  20.430  0.00  0.00    +0.000 OA
BRANCH  16  19
ATOM     19  C   UNL     1       2.538   3.501  19.754  0.00  0.00    +0.000 A 
ATOM     20  C   UNL     1       1.981   3.176  18.510  0.00  0.00    +0.000 A 
ATOM     21  C   UNL     1       2.556   2.163  17.740  0.00  0.00    +0.000 A 
ATOM     22  C   UNL     1       3.685   1.493  18.209  0.00  0.00    +0.000 A 
ATOM     23  F   UNL     1       4.248   0.541  17.454  0.00  0.00    +0.000 F 
ATOM     24  C   UNL     1       4.249   1.816  19.439  0.00  0.00    +0.000 A 
ATOM     25  C   UNL     1       3.680   2.829  20.214  0.00  0.00    +0.000 A 
ENDBRANCH  16  19
ENDBRANCH   7  16
TORSDOF 3
ENDMDL
