MODEL 1
REMARK VINA RESULT:      -7.3      0.000      0.000
REMARK  Name = 
REMARK  9 active torsions:
REMARK  status: ('A' for Active; 'I' for Inactive)
REMARK    1  A    between atoms: C_1  and  C_2
REMARK    2  A    between atoms: C_2  and  N_3
REMARK    3  A    between atoms: C_5  and  C_6
REMARK    4  A    between atoms: C_7  and  C_8
REMARK    5  A    between atoms: N_10  and  C_11
REMARK    6  A    between atoms: C_11  and  C_12
REMARK    7  A    between atoms: C_13  and  C_14
REMARK    8  A    between atoms: N_16  and  C_17
REMARK    9  A    between atoms: C_18  and  C_19
REMARK                            x       y       z     vdW  Elec       q    Type
REMARK                         _______ _______ _______ _____ _____    ______ ____
ROOT
ATOM      1  C   UNL     1       7.496   6.676  17.669  0.00  0.00    +0.000 C 
ATOM      2  O   UNL     1       7.567   6.489  16.463  0.00  0.00    +0.000 OA
ATOM      3  N   UNL     1       6.792   5.894  18.551  0.00  0.00    +0.000 N 
ATOM      4  H   UNL     1       6.709   6.170  19.518  0.00  0.00    +0.000 HD
ENDROOT
BRANCH   1   6
ATOM      5  C   UNL     1       8.130   9.041  17.810  0.00  0.00    +0.000 C 
ATOM      6  C   UNL     1       8.181   7.807  18.341  0.00  0.00    +0.000 C 
BRANCH   5   9
ATOM      7  N   UNL     1       9.773  11.542  19.765  0.00  0.00    +0.000 N 
ATOM      8  C   UNL     1       9.326  10.258  19.619  0.00  0.00    +0.000 A 
ATOM      9  C   UNL     1       8.755  10.195  18.367  0.00  0.00    +0.000 A 
ATOM     10  C   UNL     1       8.936  11.486  17.832  0.00  0.00    +0.000 A 
ATOM     11  N   UNL     1       9.563  12.308  18.678  0.00  0.00    +0.000 NA
BRANCH   7  13
ATOM     12  C   UNL     1       9.333  12.429  22.012  0.00  0.00    +0.000 C 
ATOM     13  C   UNL     1      10.374  12.125  20.949  0.00  0.00    +0.000 C 
ENDBRANCH   7  13
ENDBRANCH   5   9
ENDBRANCH   1   6
BRANCH   3  14
ATOM     14  C   UNL     1       6.069   4.717  18.128  0.00  0.00    +0.000 C 
BRANCH  14  15
ATOM     15  C   UNL     1       4.645   4.812  18.560  0.00  0.00    +0.000 A 
ATOM     16  C   UNL     1       3.703   5.855  18.317  0.00  0.00    +0.000 A 
ATOM     17  C   UNL     1       3.847   7.097  17.516  0.00  0.00    +0.000 C 
ATOM     18  N   UNL     1       2.541   5.631  18.937  0.00  0.00    +0.000 NA
ATOM     19  N   UNL     1       2.719   4.462  19.572  0.00  0.00    +0.000 N 
ATOM     20  C   UNL     1       1.659   3.949  20.408  0.00  0.00    +0.000 C 
ATOM     21  C   UNL     1       3.949   3.905  19.347  0.00  0.00    +0.000 A 
ATOM     22  C   UNL     1       4.380   2.590  19.891  0.00  0.00    +0.000 C 
ENDBRANCH  14  15
ENDBRANCH   3  14
TORSDOF 5
ENDMDL
MODEL 2
REMARK VINA RESULT:      -7.2      0.966      1.160
REMARK  Name = 
REMARK  9 active torsions:
REMARK  status: ('A' for Active; 'I' for Inactive)
REMARK    1  A    between atoms: C_1  and  C_2
REMARK    2  A    between atoms: C_2  and  N_3
REMARK    3  A    between atoms: C_5  and  C_6
REMARK    4  A    between atoms: C_7  and  C_8
REMARK    5  A    between atoms: N_10  and  C_11
REMARK    6  A    between atoms: C_11  and  C_12
REMARK    7  A    between atoms: C_13  and  C_14
REMARK    8  A    between atoms: N_16  and  C_17
REMARK    9  A    between atoms: C_18  and  C_19
REMARK                            x       y       z     vdW  Elec       q    Type
REMARK                         _______ _______ _______ _____ _____    ______ ____
ROOT
ATOM      1  C   UNL     1       7.158   6.796  17.259  0.00  0.00    +0.000 C 
ATOM      2  O   UNL     1       7.552   6.112  16.327  0.00  0.00    +0.000 OA
ATOM      3  N   UNL     1       5.910   6.716  17.827  0.00  0.00    +0.000 N 
ATOM      4  H   UNL     1       5.631   7.381  18.533  0.00  0.00    +0.000 HD
ENDROOT
BRANCH   1   6
ATOM      5  C   UNL     1       7.820   9.131  17.619  0.00  0.00    +0.000 C 
ATOM      6  C   UNL     1       8.005   7.829  17.903  0.00  0.00    +0.000 C 
BRANCH   5   9
ATOM      7  N   UNL     1       9.917  11.352  19.474  0.00  0.00    +0.000 N 
ATOM      8  C   UNL     1       9.424  10.096  19.256  0.00  0.00    +0.000 A 
ATOM      9  C   UNL     1       8.579  10.202  18.173  0.00  0.00    +0.000 A 
ATOM     10  C   UNL     1       8.657  11.559  17.797  0.00  0.00    +0.000 A 
ATOM     11  N   UNL     1       9.478  12.261  18.584  0.00  0.00    +0.000 NA
BRANCH   7  13
ATOM     12  C   UNL     1      12.183  12.096  20.058  0.00  0.00    +0.000 C 
ATOM     13  C   UNL     1      10.786  11.769  20.557  0.00  0.00    +0.000 C 
ENDBRANCH   7  13
ENDBRANCH   5   9
ENDBRANCH   1   6
BRANCH   3  14
ATOM     14  C   UNL     1       4.923   5.760  17.384  0.00  0.00    +0.000 C 
BRANCH  14  15
ATOM     15  C   UNL     1       3.867   5.600  18.424  0.00  0.00    +0.000 A 
ATOM     16  C   UNL     1       2.813   6.495  18.776  0.00  0.00    +0.000 A 
ATOM     17  C   UNL     1       2.429   7.794  18.169  0.00  0.00    +0.000 C 
ATOM     18  N   UNL     1       2.109   6.050  19.821  0.00  0.00    +0.000 NA
ATOM     19  N   UNL     1       2.691   4.884  20.145  0.00  0.00    +0.000 N 
ATOM     20  C   UNL     1       2.209   4.157  21.296  0.00  0.00    +0.000 C 
ATOM     21  C   UNL     1       3.724   4.545  19.314  0.00  0.00    +0.000 A 
ATOM     22  C   UNL     1       4.500   3.281  19.425  0.00  0.00    +0.000 C 
ENDBRANCH  14  15
ENDBRANCH   3  14
TORSDOF 5
ENDMDL
MODEL 3
REMARK VINA RESULT:      -7.2      0.914      1.414
REMARK  Name = 
REMARK  9 active torsions:
REMARK  status: ('A' for Active; 'I' for Inactive)
REMARK    1  A    between atoms: C_1  and  C_2
REMARK    2  A    between atoms: C_2  and  N_3
REMARK    3  A    between atoms: C_5  and  C_6
REMARK    4  A    between atoms: C_7  and  C_8
REMARK    5  A    between atoms: N_10  and  C_11
REMARK    6  A    between atoms: C_11  and  C_12
REMARK    7  A    between atoms: C_13  and  C_14
REMARK    8  A    between atoms: N_16  and  C_17
REMARK    9  A    between atoms: C_18  and  C_19
REMARK                            x       y       z     vdW  Elec       q    Type
REMARK                         _______ _______ _______ _____ _____    ______ ____
ROOT
ATOM      1  C   UNL     1       7.433   6.759  17.615  0.00  0.00    +0.000 C 
ATOM      2  O   UNL     1       7.510   6.624  16.403  0.00  0.00    +0.000 OA
ATOM      3  N   UNL     1       6.629   6.016  18.444  0.00  0.00    +0.000 N 
ATOM      4  H   UNL     1       6.555   6.252  19.423  0.00  0.00    +0.000 HD
ENDROOT
BRANCH   1   6
ATOM      5  C   UNL     1       8.213   9.060  17.955  0.00  0.00    +0.000 C 
ATOM      6  C   UNL     1       8.221   7.775  18.354  0.00  0.00    +0.000 C 
BRANCH   5   9
ATOM      7  N   UNL     1      10.102  11.943  18.899  0.00  0.00    +0.000 N 
ATOM      8  C   UNL     1       9.468  11.206  17.937  0.00  0.00    +0.000 A 
ATOM      9  C   UNL     1       8.936  10.114  18.586  0.00  0.00    +0.000 A 
ATOM     10  C   UNL     1       9.283  10.304  19.939  0.00  0.00    +0.000 A 
ATOM     11  N   UNL     1       9.987  11.422  20.135  0.00  0.00    +0.000 NA
BRANCH   7  13
ATOM     12  C   UNL     1      10.112  14.192  17.914  0.00  0.00    +0.000 C 
ATOM     13  C   UNL     1      10.886  13.146  18.697  0.00  0.00    +0.000 C 
ENDBRANCH   7  13
ENDBRANCH   5   9
ENDBRANCH   1   6
BRANCH   3  14
ATOM     14  C   UNL     1       5.794   4.946  17.951  0.00  0.00    +0.000 C 
BRANCH  14  15
ATOM     15  C   UNL     1       4.439   5.035  18.565  0.00  0.00    +0.000 A 
ATOM     16  C   UNL     1       3.484   6.092  18.479  0.00  0.00    +0.000 A 
ATOM     17  C   UNL     1       3.538   7.359  17.708  0.00  0.00    +0.000 C 
ATOM     18  N   UNL     1       2.408   5.854  19.235  0.00  0.00    +0.000 NA
ATOM     19  N   UNL     1       2.654   4.662  19.803  0.00  0.00    +0.000 N 
ATOM     20  C   UNL     1       1.704   4.129  20.752  0.00  0.00    +0.000 C 
ATOM     21  C   UNL     1       3.839   4.106  19.404  0.00  0.00    +0.000 A 
ATOM     22  C   UNL     1       4.323   2.771  19.845  0.00  0.00    +0.000 C 
ENDBRANCH  14  15
ENDBRANCH   3  14
TORSDOF 5
ENDMDL
MODEL 4
REMARK VINA RESULT:      -7.2      1.268      1.770
REMARK  Name = 
REMARK  9 active torsions:
REMARK  status: ('A' for Active; 'I' for Inactive)
REMARK    1  A    between atoms: C_1  and  C_2
REMARK    2  A    between atoms: C_2  and  N_3
REMARK    3  A    between atoms: C_5  and  C_6
REMARK    4  A    between atoms: C_7  and  C_8
REMARK    5  A    between atoms: N_10  and  C_11
REMARK    6  A    between atoms: C_11  and  C_12
REMARK    7  A    between atoms: C_13  and  C_14
REMARK    8  A    between atoms: N_16  and  C_17
REMARK    9  A    between atoms: C_18  and  C_19
REMARK                            x       y       z     vdW  Elec       q    Type
REMARK                         _______ _______ _______ _____ _____    ______ ____
ROOT
ATOM      1  C   UNL     1       7.326   6.968  17.493  0.00  0.00    +0.000 C 
ATOM      2  O   UNL     1       7.681   5.903  17.008  0.00  0.00    +0.000 OA
ATOM      3  N   UNL     1       6.044   7.458  17.473  0.00  0.00    +0.000 N 
ATOM      4  H   UNL     1       5.852   8.388  17.815  0.00  0.00    +0.000 HD
ENDROOT
BRANCH   1   6
ATOM      5  C   UNL     1       8.186   9.212  17.983  0.00  0.00    +0.000 C 
ATOM      6  C   UNL     1       8.270   7.884  18.177  0.00  0.00    +0.000 C 
BRANCH   5   9
ATOM      7  N   UNL     1      10.528  11.771  18.843  0.00  0.00    +0.000 N 
ATOM      8  C   UNL     1       9.860  11.049  17.894  0.00  0.00    +0.000 A 
ATOM      9  C   UNL     1       9.043  10.180  18.583  0.00  0.00    +0.000 A 
ATOM     10  C   UNL     1       9.274  10.481  19.941  0.00  0.00    +0.000 A 
ATOM     11  N   UNL     1      10.174  11.456  20.103  0.00  0.00    +0.000 NA
BRANCH   7  13
ATOM     12  C   UNL     1      11.602  13.797  19.721  0.00  0.00    +0.000 C 
ATOM     13  C   UNL     1      11.566  12.758  18.614  0.00  0.00    +0.000 C 
ENDBRANCH   7  13
ENDBRANCH   5   9
ENDBRANCH   1   6
BRANCH   3  14
ATOM     14  C   UNL     1       4.947   6.723  16.887  0.00  0.00    +0.000 C 
BRANCH  14  15
ATOM     15  C   UNL     1       3.927   6.415  17.929  0.00  0.00    +0.000 A 
ATOM     16  C   UNL     1       2.802   7.190  18.339  0.00  0.00    +0.000 A 
ATOM     17  C   UNL     1       2.293   8.479  17.806  0.00  0.00    +0.000 C 
ATOM     18  N   UNL     1       2.158   6.629  19.366  0.00  0.00    +0.000 NA
ATOM     19  N   UNL     1       2.848   5.506  19.622  0.00  0.00    +0.000 N 
ATOM     20  C   UNL     1       2.452   4.680  20.738  0.00  0.00    +0.000 C 
ATOM     21  C   UNL     1       3.894   5.306  18.763  0.00  0.00    +0.000 A 
ATOM     22  C   UNL     1       4.783   4.115  18.798  0.00  0.00    +0.000 C 
ENDBRANCH  14  15
ENDBRANCH   3  14
TORSDOF 5
ENDMDL
MODEL 5
REMARK VINA RESULT:      -7.1      1.594      2.400
REMARK  Name = 
REMARK  9 active torsions:
REMARK  status: ('A' for Active; 'I' for Inactive)
REMARK    1  A    between atoms: C_1  and  C_2
REMARK    2  A    between atoms: C_2  and  N_3
REMARK    3  A    between atoms: C_5  and  C_6
REMARK    4  A    between atoms: C_7  and  C_8
REMARK    5  A    between atoms: N_10  and  C_11
REMARK    6  A    between atoms: C_11  and  C_12
REMARK    7  A    between atoms: C_13  and  C_14
REMARK    8  A    between atoms: N_16  and  C_17
REMARK    9  A    between atoms: C_18  and  C_19
REMARK                            x       y       z     vdW  Elec       q    Type
REMARK                         _______ _______ _______ _____ _____    ______ ____
ROOT
ATOM      1  C   UNL     1       7.171   7.209  17.104  0.00  0.00    +0.000 C 
ATOM      2  O   UNL     1       7.683   6.423  16.321  0.00  0.00    +0.000 OA
ATOM      3  N   UNL     1       5.821   7.418  17.248  0.00  0.00    +0.000 N 
ATOM      4  H   UNL     1       5.484   8.152  17.853  0.00  0.00    +0.000 HD
ENDROOT
BRANCH   1   6
ATOM      5  C   UNL     1       8.223   9.343  17.704  0.00  0.00    +0.000 C 
ATOM      6  C   UNL     1       7.974   8.059  18.017  0.00  0.00    +0.000 C 
BRANCH   5   9
ATOM      7  N   UNL     1      10.293  11.897  19.107  0.00  0.00    +0.000 N 
ATOM      8  C   UNL     1       9.680  11.333  18.022  0.00  0.00    +0.000 A 
ATOM      9  C   UNL     1       8.985  10.244  18.502  0.00  0.00    +0.000 A 
ATOM     10  C   UNL     1       9.223  10.259  19.892  0.00  0.00    +0.000 A 
ATOM     11  N   UNL     1      10.013  11.270  20.265  0.00  0.00    +0.000 NA
BRANCH   7  13
ATOM     12  C   UNL     1      12.150  12.968  17.912  0.00  0.00    +0.000 C 
ATOM     13  C   UNL     1      11.207  13.021  19.101  0.00  0.00    +0.000 C 
ENDBRANCH   7  13
ENDBRANCH   5   9
ENDBRANCH   1   6
BRANCH   3  14
ATOM     14  C   UNL     1       4.843   6.680  16.484  0.00  0.00    +0.000 C 
BRANCH  14  15
ATOM     15  C   UNL     1       4.495   5.414  17.191  0.00  0.00    +0.000 A 
ATOM     16  C   UNL     1       4.874   4.076  16.871  0.00  0.00    +0.000 A 
ATOM     17  C   UNL     1       5.766   3.574  15.796  0.00  0.00    +0.000 C 
ATOM     18  N   UNL     1       4.299   3.188  17.686  0.00  0.00    +0.000 NA
ATOM     19  N   UNL     1       3.560   3.931  18.525  0.00  0.00    +0.000 N 
ATOM     20  C   UNL     1       2.740   3.267  19.512  0.00  0.00    +0.000 C 
ATOM     21  C   UNL     1       3.674   5.276  18.301  0.00  0.00    +0.000 A 
ATOM     22  C   UNL     1       2.999   6.317  19.122  0.00  0.00    +0.000 C 
ENDBRANCH  14  15
ENDBRANCH   3  14
TORSDOF 5
ENDMDL
MODEL 6
REMARK VINA RESULT:      -7.0      1.452      2.160
REMARK  Name = 
REMARK  9 active torsions:
REMARK  status: ('A' for Active; 'I' for Inactive)
REMARK    1  A    between atoms: C_1  and  C_2
REMARK    2  A    between atoms: C_2  and  N_3
REMARK    3  A    between atoms: C_5  and  C_6
REMARK    4  A    between atoms: C_7  and  C_8
REMARK    5  A    between atoms: N_10  and  C_11
REMARK    6  A    between atoms: C_11  and  C_12
REMARK    7  A    between atoms: C_13  and  C_14
REMARK    8  A    between atoms: N_16  and  C_17
REMARK    9  A    between atoms: C_18  and  C_19
REMARK                            x       y       z     vdW  Elec       q    Type
REMARK                         _______ _______ _______ _____ _____    ______ ____
ROOT
ATOM      1  C   UNL     1       7.139   7.118  17.134  0.00  0.00    +0.000 C 
ATOM      2  O   UNL     1       7.574   6.239  16.404  0.00  0.00    +0.000 OA
ATOM      3  N   UNL     1       5.813   7.447  17.273  0.00  0.00    +0.000 N 
ATOM      4  H   UNL     1       5.546   8.247  17.827  0.00  0.00    +0.000 HD
ENDROOT
BRANCH   1   6
ATOM      5  C   UNL     1       8.109   9.283  17.758  0.00  0.00    +0.000 C 
ATOM      6  C   UNL     1       8.021   7.959  17.979  0.00  0.00    +0.000 C 
BRANCH   5   9
ATOM      7  N   UNL     1      10.315  11.801  19.010  0.00  0.00    +0.000 N 
ATOM      8  C   UNL     1       9.653  11.222  17.963  0.00  0.00    +0.000 A 
ATOM      9  C   UNL     1       8.927  10.182  18.502  0.00  0.00    +0.000 A 
ATOM     10  C   UNL     1       9.201  10.240  19.884  0.00  0.00    +0.000 A 
ATOM     11  N   UNL     1      10.041  11.230  20.198  0.00  0.00    +0.000 NA
BRANCH   7  13
ATOM     12  C   UNL     1      12.021  12.885  17.617  0.00  0.00    +0.000 C 
ATOM     13  C   UNL     1      11.274  12.886  18.939  0.00  0.00    +0.000 C 
ENDBRANCH   7  13
ENDBRANCH   5   9
ENDBRANCH   1   6
BRANCH   3  14
ATOM     14  C   UNL     1       4.767   6.742  16.571  0.00  0.00    +0.000 C 
BRANCH  14  15
ATOM     15  C   UNL     1       4.187   5.686  17.450  0.00  0.00    +0.000 A 
ATOM     16  C   UNL     1       3.278   5.828  18.540  0.00  0.00    +0.000 A 
ATOM     17  C   UNL     1       2.605   7.044  19.062  0.00  0.00    +0.000 C 
ATOM     18  N   UNL     1       3.046   4.662  19.150  0.00  0.00    +0.000 NA
ATOM     19  N   UNL     1       3.788   3.774  18.469  0.00  0.00    +0.000 N 
ATOM     20  C   UNL     1       3.821   2.401  18.915  0.00  0.00    +0.000 C 
ATOM     21  C   UNL     1       4.460   4.326  17.413  0.00  0.00    +0.000 A 
ATOM     22  C   UNL     1       5.310   3.551  16.470  0.00  0.00    +0.000 C 
ENDBRANCH  14  15
ENDBRANCH   3  14
TORSDOF 5
ENDMDL
MODEL 7
REMARK VINA RESULT:      -6.8      4.837      6.886
REMARK  Name = 
REMARK  9 active torsions:
REMARK  status: ('A' for Active; 'I' for Inactive)
REMARK    1  A    between atoms: C_1  and  C_2
REMARK    2  A    between atoms: C_2  and  N_3
REMARK    3  A    between atoms: C_5  and  C_6
REMARK    4  A    between atoms: C_7  and  C_8
REMARK    5  A    between atoms: N_10  and  C_11
REMARK    6  A    between atoms: C_11  and  C_12
REMARK    7  A    between atoms: C_13  and  C_14
REMARK    8  A    between atoms: N_16  and  C_17
REMARK    9  A    between atoms: C_18  and  C_19
REMARK                            x       y       z     vdW  Elec       q    Type
REMARK                         _______ _______ _______ _____ _____    ______ ____
ROOT
ATOM      1  C   UNL     1       2.736   4.264  17.438  0.00  0.00    +0.000 C 
ATOM      2  O   UNL     1       2.122   3.223  17.254  0.00  0.00    +0.000 OA
ATOM      3  N   UNL     1       4.034   4.495  17.054  0.00  0.00    +0.000 N 
ATOM      4  H   UNL     1       4.498   5.349  17.326  0.00  0.00    +0.000 HD
ENDROOT
BRANCH   1   6
ATOM      5  C   UNL     1       2.598   6.673  17.880  0.00  0.00    +0.000 C 
ATOM      6  C   UNL     1       2.133   5.434  18.121  0.00  0.00    +0.000 C 
BRANCH   5   9
ATOM      7  N   UNL     1       1.298   9.272  19.961  0.00  0.00    +0.000 N 
ATOM      8  C   UNL     1       1.762   7.994  19.814  0.00  0.00    +0.000 A 
ATOM      9  C   UNL     1       2.098   7.863  18.484  0.00  0.00    +0.000 A 
ATOM     10  C   UNL     1       1.824   9.128  17.925  0.00  0.00    +0.000 A 
ATOM     11  N   UNL     1       1.343   9.992  18.824  0.00  0.00    +0.000 NA
BRANCH   7  13
ATOM     12  C   UNL     1      -0.167   8.894  21.894  0.00  0.00    +0.000 C 
ATOM     13  C   UNL     1       0.745   9.863  21.164  0.00  0.00    +0.000 C 
ENDBRANCH   7  13
ENDBRANCH   5   9
ENDBRANCH   1   6
BRANCH   3  14
ATOM     14  C   UNL     1       4.815   3.509  16.344  0.00  0.00    +0.000 C 
BRANCH  14  15
ATOM     15  C   UNL     1       5.929   4.174  15.611  0.00  0.00    +0.000 A 
ATOM     16  C   UNL     1       6.974   4.998  16.125  0.00  0.00    +0.000 A 
ATOM     17  C   UNL     1       7.286   5.370  17.528  0.00  0.00    +0.000 C 
ATOM     18  N   UNL     1       7.745   5.490  15.151  0.00  0.00    +0.000 NA
ATOM     19  N   UNL     1       7.216   4.994  14.021  0.00  0.00    +0.000 N 
ATOM     20  C   UNL     1       7.780   5.388  12.751  0.00  0.00    +0.000 C 
ATOM     21  C   UNL     1       6.151   4.164  14.241  0.00  0.00    +0.000 A 
ATOM     22  C   UNL     1       5.418   3.446  13.164  0.00  0.00    +0.000 C 
ENDBRANCH  14  15
ENDBRANCH   3  14
TORSDOF 5
ENDMDL
MODEL 8
REMARK VINA RESULT:      -6.8      4.419      7.027
REMARK  Name = 
REMARK  9 active torsions:
REMARK  status: ('A' for Active; 'I' for Inactive)
REMARK    1  A    between atoms: C_1  and  C_2
REMARK    2  A    between atoms: C_2  and  N_3
REMARK    3  A    between atoms: C_5  and  C_6
REMARK    4  A    between atoms: C_7  and  C_8
REMARK    5  A    between atoms: N_10  and  C_11
REMARK    6  A    between atoms: C_11  and  C_12
REMARK    7  A    between atoms: C_13  and  C_14
REMARK    8  A    between atoms: N_16  and  C_17
REMARK    9  A    between atoms: C_18  and  C_19
REMARK                            x       y       z     vdW  Elec       q    Type
REMARK                         _______ _______ _______ _____ _____    ______ ____
ROOT
ATOM      1  C   UNL     1       2.580   5.815  19.618  0.00  0.00    +0.000 C 
ATOM      2  O   UNL     1       1.722   4.948  19.689  0.00  0.00    +0.000 OA
ATOM      3  N   UNL     1       2.494   7.062  20.186  0.00  0.00    +0.000 N 
ATOM      4  H   UNL     1       3.207   7.753  20.002  0.00  0.00    +0.000 HD
ENDROOT
BRANCH   1   6
ATOM      5  C   UNL     1       4.027   6.169  17.669  0.00  0.00    +0.000 C 
ATOM      6  C   UNL     1       3.853   5.616  18.883  0.00  0.00    +0.000 C 
BRANCH   5   9
ATOM      7  N   UNL     1       6.589   5.426  15.290  0.00  0.00    +0.000 N 
ATOM      8  C   UNL     1       5.290   5.319  15.703  0.00  0.00    +0.000 A 
ATOM      9  C   UNL     1       5.203   6.038  16.874  0.00  0.00    +0.000 A 
ATOM     10  C   UNL     1       6.498   6.561  17.064  0.00  0.00    +0.000 A 
ATOM     11  N   UNL     1       7.344   6.197  16.096  0.00  0.00    +0.000 NA
BRANCH   7  13
ATOM     12  C   UNL     1       6.218   3.839  13.455  0.00  0.00    +0.000 C 
ATOM     13  C   UNL     1       7.195   4.772  14.147  0.00  0.00    +0.000 C 
ENDBRANCH   7  13
ENDBRANCH   5   9
ENDBRANCH   1   6
BRANCH   3  14
ATOM     14  C   UNL     1       1.357   7.471  20.977  0.00  0.00    +0.000 C 
BRANCH  14  15
ATOM     15  C   UNL     1       0.993   8.880  20.653  0.00  0.00    +0.000 A 
ATOM     16  C   UNL     1       1.109   9.573  19.412  0.00  0.00    +0.000 A 
ATOM     17  C   UNL     1       1.557   9.077  18.086  0.00  0.00    +0.000 C 
ATOM     18  N   UNL     1       0.761  10.858  19.524  0.00  0.00    +0.000 NA
ATOM     19  N   UNL     1       0.421  11.002  20.815  0.00  0.00    +0.000 N 
ATOM     20  C   UNL     1       0.051  12.311  21.300  0.00  0.00    +0.000 C 
ATOM     21  C   UNL     1       0.501   9.838  21.529  0.00  0.00    +0.000 A 
ATOM     22  C   UNL     1       0.131   9.714  22.964  0.00  0.00    +0.000 C 
ENDBRANCH  14  15
ENDBRANCH   3  14
TORSDOF 5
ENDMDL
MODEL 9
REMARK VINA RESULT:      -6.8      1.465      1.891
REMARK  Name = 
REMARK  9 active torsions:
REMARK  status: ('A' for Active; 'I' for Inactive)
REMARK    1  A    between atoms: C_1  and  C_2
REMARK    2  A    between atoms: C_2  and  N_3
REMARK    3  A    between atoms: C_5  and  C_6
REMARK    4  A    between atoms: C_7  and  C_8
REMARK    5  A    between atoms: N_10  and  C_11
REMARK    6  A    between atoms: C_11  and  C_12
REMARK    7  A    between atoms: C_13  and  C_14
REMARK    8  A    between atoms: N_16  and  C_17
REMARK    9  A    between atoms: C_18  and  C_19
REMARK                            x       y       z     vdW  Elec       q    Type
REMARK                         _______ _______ _______ _____ _____    ______ ____
ROOT
ATOM      1  C   UNL     1       7.557   7.061  17.380  0.00  0.00    +0.000 C 
ATOM      2  O   UNL     1       7.718   6.655  16.239  0.00  0.00    +0.000 OA
ATOM      3  N   UNL     1       7.204   6.281  18.454  0.00  0.00    +0.000 N 
ATOM      4  H   UNL     1       7.001   6.709  19.346  0.00  0.00    +0.000 HD
ENDROOT
BRANCH   1   6
ATOM      5  C   UNL     1       8.783   8.876  18.483  0.00  0.00    +0.000 C 
ATOM      6  C   UNL     1       7.725   8.487  17.749  0.00  0.00    +0.000 C 
BRANCH   5   9
ATOM      7  N   UNL     1       9.469  11.962  20.152  0.00  0.00    +0.000 N 
ATOM      8  C   UNL     1       9.331  10.602  20.188  0.00  0.00    +0.000 A 
ATOM      9  C   UNL     1       9.039  10.216  18.898  0.00  0.00    +0.000 A 
ATOM     10  C   UNL     1       9.053  11.416  18.159  0.00  0.00    +0.000 A 
ATOM     11  N   UNL     1       9.322  12.482  18.919  0.00  0.00    +0.000 NA
BRANCH   7  13
ATOM     12  C   UNL     1       9.911  14.278  20.834  0.00  0.00    +0.000 C 
ATOM     13  C   UNL     1       9.697  12.843  21.280  0.00  0.00    +0.000 C 
ENDBRANCH   7  13
ENDBRANCH   5   9
ENDBRANCH   1   6
BRANCH   3  14
ATOM     14  C   UNL     1       7.014   4.854  18.341  0.00  0.00    +0.000 C 
BRANCH  14  15
ATOM     15  C   UNL     1       5.656   4.563  17.801  0.00  0.00    +0.000 A 
ATOM     16  C   UNL     1       5.288   4.109  16.499  0.00  0.00    +0.000 A 
ATOM     17  C   UNL     1       6.145   3.737  15.346  0.00  0.00    +0.000 C 
ATOM     18  N   UNL     1       3.961   4.041  16.352  0.00  0.00    +0.000 NA
ATOM     19  N   UNL     1       3.471   4.441  17.537  0.00  0.00    +0.000 N 
ATOM     20  C   UNL     1       2.041   4.550  17.703  0.00  0.00    +0.000 C 
ATOM     21  C   UNL     1       4.444   4.725  18.457  0.00  0.00    +0.000 A 
ATOM     22  C   UNL     1       4.168   5.140  19.858  0.00  0.00    +0.000 C 
ENDBRANCH  14  15
ENDBRANCH   3  14
TORSDOF 5
ENDMDL
