MODEL 1
REMARK VINA RESULT:      -8.1      0.000      0.000
REMARK  Name = 
REMARK  9 active torsions:
REMARK  status: ('A' for Active; 'I' for Inactive)
REMARK    1  A    between atoms: C_2  and  C_3
REMARK    2  A    between atoms: N_7  and  C_8
REMARK    3  A    between atoms: C_8  and  C_9
REMARK    4  A    between atoms: C_9  and  C_10
REMARK    5  A    between atoms: C_10  and  N_11
REMARK    6  A    between atoms: C_10  and  C_24
REMARK    7  A    between atoms: N_11  and  S_12
REMARK    8  A    between atoms: S_12  and  C_15
REMARK    9  A    between atoms: C_29  and  O_30
REMARK                            x       y       z     vdW  Elec       q    Type
REMARK                         _______ _______ _______ _____ _____    ______ ____
ROOT
ATOM      1  C   UNL     1       2.416   6.632  18.330  0.00  0.00    +0.000 C 
ENDROOT
BRANCH   1   2
ATOM      2  C   UNL     1       1.834   5.206  18.309  0.00  0.00    +0.000 C 
ATOM      3  O   UNL     1       1.742   4.606  17.230  0.00  0.00    +0.000 OA
ATOM      4  N   UNL     1       1.470   4.566  19.483  0.00  0.00    +0.000 N 
ATOM      5  C   UNL     1       1.019   3.175  19.388  0.00  0.00    +0.000 C 
ATOM      6  C   UNL     1       2.045   2.249  20.031  0.00  0.00    +0.000 C 
ATOM      7  C   UNL     1       2.293   2.648  21.484  0.00  0.00    +0.000 C 
ATOM      8  C   UNL     1       2.660   4.132  21.605  0.00  0.00    +0.000 C 
ATOM      9  C   UNL     1       1.696   5.051  20.844  0.00  0.00    +0.000 C 
BRANCH   7  10
ATOM     10  O   UNL     1       1.156   2.340  22.287  0.00  0.00    +0.000 OA
ATOM     11  H   UNL     1       1.363   1.594  22.874  0.00  0.00    +0.000 HD
ENDBRANCH   7  10
ENDBRANCH   1   2
BRANCH   1  12
ATOM     12  N   UNL     1       1.464   7.710  17.875  0.00  0.00    +0.000 NA
ATOM     13  H   UNL     1       0.510   7.327  17.906  0.00  0.00    +0.000 HD
BRANCH  12  14
ATOM     14  S   UNL     1       1.254   9.280  18.493  0.00  0.00    +0.000 S 
ATOM     15  O   UNL     1       1.744   9.266  19.854  0.00  0.00    +0.000 OA
ATOM     16  O   UNL     1       2.027  10.056  17.527  0.00  0.00    +0.000 OA
BRANCH  14  17
ATOM     17  C   UNL     1      -0.495   9.941  18.434  0.00  0.00    +0.000 A 
ATOM     18  C   UNL     1      -0.464  10.875  19.477  0.00  0.00    +0.000 A 
ATOM     19  C   UNL     1      -1.605  11.507  19.848  0.00  0.00    +0.000 A 
ATOM     20  C   UNL     1      -1.942  12.335  18.823  0.00  0.00    +0.000 A 
ATOM     21  C   UNL     1      -2.162  11.577  17.679  0.00  0.00    +0.000 A 
ATOM     22  N   UNL     1      -3.032  11.866  16.666  0.00  0.00    +0.000 N 
ATOM     23  C   UNL     1      -3.569  10.671  16.284  0.00  0.00    +0.000 A 
ATOM     24  C   UNL     1      -2.662   9.678  16.692  0.00  0.00    +0.000 A 
ATOM     25  C   UNL     1      -1.580  10.283  17.487  0.00  0.00    +0.000 A 
ATOM     26  H   UNL     1      -3.531  12.761  16.618  0.00  0.00    +0.000 HD
ENDBRANCH  14  17
ENDBRANCH  12  14
ENDBRANCH   1  12
BRANCH   1  27
ATOM     27  C   UNL     1       3.847   6.561  17.709  0.00  0.00    +0.000 C 
BRANCH  27  28
ATOM     28  C   UNL     1       4.756   5.380  18.057  0.00  0.00    +0.000 C 
BRANCH  28  33
ATOM     29  C   UNL     1       6.710   5.635  16.424  0.00  0.00    +0.000 A 
ATOM     30  C   UNL     1       7.171   4.889  15.304  0.00  0.00    +0.000 A 
ATOM     31  C   UNL     1       6.296   3.761  15.157  0.00  0.00    +0.000 A 
ATOM     32  C   UNL     1       5.356   3.860  16.173  0.00  0.00    +0.000 A 
ATOM     33  N   UNL     1       5.608   4.967  16.918  0.00  0.00    +0.000 N 
BRANCH  29  35
ATOM     34  N   UNL     1       7.764   7.818  17.329  0.00  0.00    +0.000 NA
ATOM     35  C   UNL     1       7.299   6.846  16.898  0.00  0.00    +0.000 C 
ENDBRANCH  29  35
ENDBRANCH  28  33
ENDBRANCH  27  28
ENDBRANCH   1  27
TORSDOF 9
ENDMDL
MODEL 2
REMARK VINA RESULT:      -8.0      2.472      5.157
REMARK  Name = 
REMARK  9 active torsions:
REMARK  status: ('A' for Active; 'I' for Inactive)
REMARK    1  A    between atoms: C_2  and  C_3
REMARK    2  A    between atoms: N_7  and  C_8
REMARK    3  A    between atoms: C_8  and  C_9
REMARK    4  A    between atoms: C_9  and  C_10
REMARK    5  A    between atoms: C_10  and  N_11
REMARK    6  A    between atoms: C_10  and  C_24
REMARK    7  A    between atoms: N_11  and  S_12
REMARK    8  A    between atoms: S_12  and  C_15
REMARK    9  A    between atoms: C_29  and  O_30
REMARK                            x       y       z     vdW  Elec       q    Type
REMARK                         _______ _______ _______ _____ _____    ______ ____
ROOT
ATOM      1  C   UNL     1       2.909   6.929  17.989  0.00  0.00    +0.000 C 
ENDROOT
BRANCH   1   2
ATOM      2  C   UNL     1       4.320   6.396  18.300  0.00  0.00    +0.000 C 
ATOM      3  O   UNL     1       4.565   5.954  19.431  0.00  0.00    +0.000 OA
ATOM      4  N   UNL     1       5.298   6.348  17.319  0.00  0.00    +0.000 N 
ATOM      5  C   UNL     1       6.582   5.735  17.667  0.00  0.00    +0.000 C 
ATOM      6  C   UNL     1       6.756   4.423  16.911  0.00  0.00    +0.000 C 
ATOM      7  C   UNL     1       6.647   4.653  15.405  0.00  0.00    +0.000 C 
ATOM      8  C   UNL     1       5.355   5.392  15.041  0.00  0.00    +0.000 C 
ATOM      9  C   UNL     1       5.118   6.642  15.897  0.00  0.00    +0.000 C 
BRANCH   7  10
ATOM     10  O   UNL     1       7.789   5.359  14.925  0.00  0.00    +0.000 OA
ATOM     11  H   UNL     1       7.758   5.409  13.955  0.00  0.00    +0.000 HD
ENDBRANCH   7  10
ENDBRANCH   1   2
BRANCH   1  12
ATOM     12  N   UNL     1       2.421   8.009  18.923  0.00  0.00    +0.000 NA
ATOM     13  H   UNL     1       3.241   8.447  19.360  0.00  0.00    +0.000 HD
BRANCH  12  14
ATOM     14  S   UNL     1       1.422   9.343  18.585  0.00  0.00    +0.000 S 
ATOM     15  O   UNL     1       2.296  10.457  18.287  0.00  0.00    +0.000 OA
ATOM     16  O   UNL     1       0.633   8.815  17.477  0.00  0.00    +0.000 OA
BRANCH  14  17
ATOM     17  C   UNL     1       0.211   9.804  19.934  0.00  0.00    +0.000 A 
ATOM     18  C   UNL     1       0.486   8.818  20.890  0.00  0.00    +0.000 A 
ATOM     19  C   UNL     1      -0.283   8.728  22.002  0.00  0.00    +0.000 A 
ATOM     20  C   UNL     1      -0.020   9.834  22.748  0.00  0.00    +0.000 A 
ATOM     21  C   UNL     1      -0.362  10.967  22.018  0.00  0.00    +0.000 A 
ATOM     22  N   UNL     1      -0.812  12.155  22.521  0.00  0.00    +0.000 N 
ATOM     23  C   UNL     1      -1.762  12.595  21.645  0.00  0.00    +0.000 A 
ATOM     24  C   UNL     1      -1.497  11.960  20.420  0.00  0.00    +0.000 A 
ATOM     25  C   UNL     1      -0.414  10.976  20.587  0.00  0.00    +0.000 A 
ATOM     26  H   UNL     1      -0.828  12.346  23.528  0.00  0.00    +0.000 HD
ENDBRANCH  14  17
ENDBRANCH  12  14
ENDBRANCH   1  12
BRANCH   1  27
ATOM     27  C   UNL     1       1.997   5.695  17.701  0.00  0.00    +0.000 C 
BRANCH  27  28
ATOM     28  C   UNL     1       1.664   4.728  18.841  0.00  0.00    +0.000 C 
BRANCH  28  33
ATOM     29  C   UNL     1       2.613   2.521  19.722  0.00  0.00    +0.000 A 
ATOM     30  C   UNL     1       3.379   1.470  19.147  0.00  0.00    +0.000 A 
ATOM     31  C   UNL     1       3.593   1.808  17.769  0.00  0.00    +0.000 A 
ATOM     32  C   UNL     1       2.962   3.026  17.562  0.00  0.00    +0.000 A 
ATOM     33  N   UNL     1       2.383   3.439  18.718  0.00  0.00    +0.000 N 
BRANCH  29  35
ATOM     34  N   UNL     1       1.831   2.661  22.185  0.00  0.00    +0.000 NA
ATOM     35  C   UNL     1       2.197   2.578  21.088  0.00  0.00    +0.000 C 
ENDBRANCH  29  35
ENDBRANCH  28  33
ENDBRANCH  27  28
ENDBRANCH   1  27
TORSDOF 9
ENDMDL
MODEL 3
REMARK VINA RESULT:      -7.9      2.510      5.376
REMARK  Name = 
REMARK  9 active torsions:
REMARK  status: ('A' for Active; 'I' for Inactive)
REMARK    1  A    between atoms: C_2  and  C_3
REMARK    2  A    between atoms: N_7  and  C_8
REMARK    3  A    between atoms: C_8  and  C_9
REMARK    4  A    between atoms: C_9  and  C_10
REMARK    5  A    between atoms: C_10  and  N_11
REMARK    6  A    between atoms: C_10  and  C_24
REMARK    7  A    between atoms: N_11  and  S_12
REMARK    8  A    between atoms: S_12  and  C_15
REMARK    9  A    between atoms: C_29  and  O_30
REMARK                            x       y       z     vdW  Elec       q    Type
REMARK                         _______ _______ _______ _____ _____    ______ ____
ROOT
ATOM      1  C   UNL     1       2.992   6.474  17.962  0.00  0.00    +0.000 C 
ENDROOT
BRANCH   1   2
ATOM      2  C   UNL     1       4.484   6.185  18.209  0.00  0.00    +0.000 C 
ATOM      3  O   UNL     1       4.859   5.862  19.344  0.00  0.00    +0.000 OA
ATOM      4  N   UNL     1       5.401   6.222  17.169  0.00  0.00    +0.000 N 
ATOM      5  C   UNL     1       6.783   5.837  17.467  0.00  0.00    +0.000 C 
ATOM      6  C   UNL     1       7.117   4.520  16.777  0.00  0.00    +0.000 C 
ATOM      7  C   UNL     1       6.889   4.629  15.271  0.00  0.00    +0.000 C 
ATOM      8  C   UNL     1       5.478   5.137  14.951  0.00  0.00    +0.000 C 
ATOM      9  C   UNL     1       5.098   6.390  15.749  0.00  0.00    +0.000 C 
BRANCH   7  10
ATOM     10  O   UNL     1       7.877   5.468  14.676  0.00  0.00    +0.000 OA
ATOM     11  H   UNL     1       8.363   5.943  15.371  0.00  0.00    +0.000 HD
ENDBRANCH   7  10
ENDBRANCH   1   2
BRANCH   1  12
ATOM     12  N   UNL     1       2.368   7.449  18.930  0.00  0.00    +0.000 NA
ATOM     13  H   UNL     1       3.075   7.695  19.635  0.00  0.00    +0.000 HD
BRANCH  12  14
ATOM     14  S   UNL     1       1.625   8.944  18.612  0.00  0.00    +0.000 S 
ATOM     15  O   UNL     1       2.685   9.916  18.454  0.00  0.00    +0.000 OA
ATOM     16  O   UNL     1       0.857   8.615  17.415  0.00  0.00    +0.000 OA
BRANCH  14  17
ATOM     17  C   UNL     1       0.394   9.522  19.896  0.00  0.00    +0.000 A 
ATOM     18  C   UNL     1       0.640   8.611  20.931  0.00  0.00    +0.000 A 
ATOM     19  C   UNL     1      -0.151   8.617  22.032  0.00  0.00    +0.000 A 
ATOM     20  C   UNL     1       0.111   9.775  22.694  0.00  0.00    +0.000 A 
ATOM     21  C   UNL     1      -0.204  10.851  21.871  0.00  0.00    +0.000 A 
ATOM     22  N   UNL     1      -0.650  12.078  22.270  0.00  0.00    +0.000 N 
ATOM     23  C   UNL     1      -1.579  12.457  21.345  0.00  0.00    +0.000 A 
ATOM     24  C   UNL     1      -1.298  11.726  20.178  0.00  0.00    +0.000 A 
ATOM     25  C   UNL     1      -0.230  10.748  20.443  0.00  0.00    +0.000 A 
ATOM     26  H   UNL     1      -0.683  12.349  23.259  0.00  0.00    +0.000 HD
ENDBRANCH  14  17
ENDBRANCH  12  14
ENDBRANCH   1  12
BRANCH   1  27
ATOM     27  C   UNL     1       2.290   5.106  17.692  0.00  0.00    +0.000 C 
BRANCH  27  28
ATOM     28  C   UNL     1       2.910   3.824  18.253  0.00  0.00    +0.000 C 
BRANCH  28  33
ATOM     29  C   UNL     1       3.006   2.680  20.540  0.00  0.00    +0.000 A 
ATOM     30  C   UNL     1       2.126   2.617  21.656  0.00  0.00    +0.000 A 
ATOM     31  C   UNL     1       0.979   3.417  21.336  0.00  0.00    +0.000 A 
ATOM     32  C   UNL     1       1.199   3.927  20.064  0.00  0.00    +0.000 A 
ATOM     33  N   UNL     1       2.399   3.490  19.602  0.00  0.00    +0.000 N 
BRANCH  29  35
ATOM     34  N   UNL     1       5.302   1.499  20.377  0.00  0.00    +0.000 NA
ATOM     35  C   UNL     1       4.261   2.005  20.449  0.00  0.00    +0.000 C 
ENDBRANCH  29  35
ENDBRANCH  28  33
ENDBRANCH  27  28
ENDBRANCH   1  27
TORSDOF 9
ENDMDL
MODEL 4
REMARK VINA RESULT:      -7.8      2.623      5.768
REMARK  Name = 
REMARK  9 active torsions:
REMARK  status: ('A' for Active; 'I' for Inactive)
REMARK    1  A    between atoms: C_2  and  C_3
REMARK    2  A    between atoms: N_7  and  C_8
REMARK    3  A    between atoms: C_8  and  C_9
REMARK    4  A    between atoms: C_9  and  C_10
REMARK    5  A    between atoms: C_10  and  N_11
REMARK    6  A    between atoms: C_10  and  C_24
REMARK    7  A    between atoms: N_11  and  S_12
REMARK    8  A    between atoms: S_12  and  C_15
REMARK    9  A    between atoms: C_29  and  O_30
REMARK                            x       y       z     vdW  Elec       q    Type
REMARK                         _______ _______ _______ _____ _____    ______ ____
ROOT
ATOM      1  C   UNL     1       4.663   4.671  19.430  0.00  0.00    +0.000 C 
ENDROOT
BRANCH   1   2
ATOM      2  C   UNL     1       5.873   5.312  18.724  0.00  0.00    +0.000 C 
ATOM      3  O   UNL     1       6.877   5.603  19.387  0.00  0.00    +0.000 OA
ATOM      4  N   UNL     1       5.877   5.508  17.352  0.00  0.00    +0.000 N 
ATOM      5  C   UNL     1       7.104   6.030  16.743  0.00  0.00    +0.000 C 
ATOM      6  C   UNL     1       7.754   4.955  15.880  0.00  0.00    +0.000 C 
ATOM      7  C   UNL     1       6.780   4.459  14.814  0.00  0.00    +0.000 C 
ATOM      8  C   UNL     1       5.450   4.012  15.432  0.00  0.00    +0.000 C 
ATOM      9  C   UNL     1       4.865   5.045  16.404  0.00  0.00    +0.000 C 
BRANCH   7  10
ATOM     10  O   UNL     1       6.568   5.464  13.826  0.00  0.00    +0.000 OA
ATOM     11  H   UNL     1       5.639   5.454  13.544  0.00  0.00    +0.000 HD
ENDBRANCH   7  10
ENDBRANCH   1   2
BRANCH   1  12
ATOM     12  N   UNL     1       3.728   5.652  20.095  0.00  0.00    +0.000 NA
ATOM     13  H   UNL     1       4.227   6.543  20.206  0.00  0.00    +0.000 HD
BRANCH  12  14
ATOM     14  S   UNL     1       2.179   6.152  19.604  0.00  0.00    +0.000 S 
ATOM     15  O   UNL     1       1.983   5.656  18.258  0.00  0.00    +0.000 OA
ATOM     16  O   UNL     1       1.357   5.549  20.649  0.00  0.00    +0.000 OA
BRANCH  14  17
ATOM     17  C   UNL     1       1.868   7.994  19.673  0.00  0.00    +0.000 A 
ATOM     18  C   UNL     1       1.995   8.339  18.321  0.00  0.00    +0.000 A 
ATOM     19  C   UNL     1       1.956   9.643  17.954  0.00  0.00    +0.000 A 
ATOM     20  C   UNL     1       0.683  10.070  18.169  0.00  0.00    +0.000 A 
ATOM     21  C   UNL     1       0.382   9.943  19.520  0.00  0.00    +0.000 A 
ATOM     22  N   UNL     1      -0.464  10.733  20.244  0.00  0.00    +0.000 N 
ATOM     23  C   UNL     1       0.119  10.879  21.470  0.00  0.00    +0.000 A 
ATOM     24  C   UNL     1       0.995   9.792  21.625  0.00  0.00    +0.000 A 
ATOM     25  C   UNL     1       1.057   9.014  20.377  0.00  0.00    +0.000 A 
ATOM     26  H   UNL     1      -1.053  11.447  19.801  0.00  0.00    +0.000 HD
ENDBRANCH  14  17
ENDBRANCH  12  14
ENDBRANCH   1  12
BRANCH   1  27
ATOM     27  C   UNL     1       5.190   3.445  20.240  0.00  0.00    +0.000 C 
BRANCH  27  28
ATOM     28  C   UNL     1       4.503   2.088  20.073  0.00  0.00    +0.000 C 
BRANCH  28  33
ATOM     29  C   UNL     1       1.963   2.322  19.877  0.00  0.00    +0.000 A 
ATOM     30  C   UNL     1       1.048   2.327  18.787  0.00  0.00    +0.000 A 
ATOM     31  C   UNL     1       1.820   2.187  17.586  0.00  0.00    +0.000 A 
ATOM     32  C   UNL     1       3.147   2.104  17.981  0.00  0.00    +0.000 A 
ATOM     33  N   UNL     1       3.224   2.187  19.333  0.00  0.00    +0.000 N 
BRANCH  29  35
ATOM     34  N   UNL     1       1.261   2.537  22.358  0.00  0.00    +0.000 NA
ATOM     35  C   UNL     1       1.596   2.424  21.253  0.00  0.00    +0.000 C 
ENDBRANCH  29  35
ENDBRANCH  28  33
ENDBRANCH  27  28
ENDBRANCH   1  27
TORSDOF 9
ENDMDL
MODEL 5
REMARK VINA RESULT:      -7.8      2.579      5.552
REMARK  Name = 
REMARK  9 active torsions:
REMARK  status: ('A' for Active; 'I' for Inactive)
REMARK    1  A    between atoms: C_2  and  C_3
REMARK    2  A    between atoms: N_7  and  C_8
REMARK    3  A    between atoms: C_8  and  C_9
REMARK    4  A    between atoms: C_9  and  C_10
REMARK    5  A    between atoms: C_10  and  N_11
REMARK    6  A    between atoms: C_10  and  C_24
REMARK    7  A    between atoms: N_11  and  S_12
REMARK    8  A    between atoms: S_12  and  C_15
REMARK    9  A    between atoms: C_29  and  O_30
REMARK                            x       y       z     vdW  Elec       q    Type
REMARK                         _______ _______ _______ _____ _____    ______ ____
ROOT
ATOM      1  C   UNL     1       2.948   6.041  17.673  0.00  0.00    +0.000 C 
ENDROOT
BRANCH   1   2
ATOM      2  C   UNL     1       4.453   5.891  17.958  0.00  0.00    +0.000 C 
ATOM      3  O   UNL     1       4.826   5.590  19.100  0.00  0.00    +0.000 OA
ATOM      4  N   UNL     1       5.389   6.026  16.945  0.00  0.00    +0.000 N 
ATOM      5  C   UNL     1       6.793   5.769  17.276  0.00  0.00    +0.000 C 
ATOM      6  C   UNL     1       7.268   4.497  16.582  0.00  0.00    +0.000 C 
ATOM      7  C   UNL     1       7.070   4.603  15.072  0.00  0.00    +0.000 C 
ATOM      8  C   UNL     1       5.627   4.980  14.719  0.00  0.00    +0.000 C 
ATOM      9  C   UNL     1       5.109   6.182  15.518  0.00  0.00    +0.000 C 
BRANCH   7  10
ATOM     10  O   UNL     1       7.990   5.538  14.513  0.00  0.00    +0.000 OA
ATOM     11  H   UNL     1       8.306   5.212  13.655  0.00  0.00    +0.000 HD
ENDBRANCH   7  10
ENDBRANCH   1   2
BRANCH   1  12
ATOM     12  N   UNL     1       2.230   7.022  18.568  0.00  0.00    +0.000 NA
ATOM     13  H   UNL     1       2.743   7.077  19.457  0.00  0.00    +0.000 HD
BRANCH  12  14
ATOM     14  S   UNL     1       1.830   8.647  18.269  0.00  0.00    +0.000 S 
ATOM     15  O   UNL     1       2.962   9.241  17.590  0.00  0.00    +0.000 OA
ATOM     16  O   UNL     1       0.610   8.485  17.485  0.00  0.00    +0.000 OA
BRANCH  14  17
ATOM     17  C   UNL     1       1.370   9.654  19.776  0.00  0.00    +0.000 A 
ATOM     18  C   UNL     1       1.040  10.881  19.188  0.00  0.00    +0.000 A 
ATOM     19  C   UNL     1       0.756  11.948  19.975  0.00  0.00    +0.000 A 
ATOM     20  C   UNL     1      -0.425  11.676  20.590  0.00  0.00    +0.000 A 
ATOM     21  C   UNL     1      -0.281  10.532  21.366  0.00  0.00    +0.000 A 
ATOM     22  N   UNL     1      -0.939  10.248  22.529  0.00  0.00    +0.000 N 
ATOM     23  C   UNL     1      -0.026   9.632  23.334  0.00  0.00    +0.000 A 
ATOM     24  C   UNL     1       0.962   9.105  22.484  0.00  0.00    +0.000 A 
ATOM     25  C   UNL     1       0.715   9.538  21.099  0.00  0.00    +0.000 A 
ATOM     26  H   UNL     1      -1.705  10.836  22.876  0.00  0.00    +0.000 HD
ENDBRANCH  14  17
ENDBRANCH  12  14
ENDBRANCH   1  12
BRANCH   1  27
ATOM     27  C   UNL     1       2.362   4.606  17.484  0.00  0.00    +0.000 C 
BRANCH  27  28
ATOM     28  C   UNL     1       1.284   4.105  18.449  0.00  0.00    +0.000 C 
BRANCH  28  33
ATOM     29  C   UNL     1       2.761   2.592  19.890  0.00  0.00    +0.000 A 
ATOM     30  C   UNL     1       2.971   2.452  21.290  0.00  0.00    +0.000 A 
ATOM     31  C   UNL     1       2.147   3.429  21.941  0.00  0.00    +0.000 A 
ATOM     32  C   UNL     1       1.481   4.114  20.934  0.00  0.00    +0.000 A 
ATOM     33  N   UNL     1       1.851   3.616  19.727  0.00  0.00    +0.000 N 
BRANCH  29  35
ATOM     34  N   UNL     1       3.857   1.154  18.039  0.00  0.00    +0.000 NA
ATOM     35  C   UNL     1       3.385   1.791  18.885  0.00  0.00    +0.000 C 
ENDBRANCH  29  35
ENDBRANCH  28  33
ENDBRANCH  27  28
ENDBRANCH   1  27
TORSDOF 9
ENDMDL
MODEL 6
REMARK VINA RESULT:      -7.8      1.895      4.790
REMARK  Name = 
REMARK  9 active torsions:
REMARK  status: ('A' for Active; 'I' for Inactive)
REMARK    1  A    between atoms: C_2  and  C_3
REMARK    2  A    between atoms: N_7  and  C_8
REMARK    3  A    between atoms: C_8  and  C_9
REMARK    4  A    between atoms: C_9  and  C_10
REMARK    5  A    between atoms: C_10  and  N_11
REMARK    6  A    between atoms: C_10  and  C_24
REMARK    7  A    between atoms: N_11  and  S_12
REMARK    8  A    between atoms: S_12  and  C_15
REMARK    9  A    between atoms: C_29  and  O_30
REMARK                            x       y       z     vdW  Elec       q    Type
REMARK                         _______ _______ _______ _____ _____    ______ ____
ROOT
ATOM      1  C   UNL     1       2.469   6.053  17.870  0.00  0.00    +0.000 C 
ENDROOT
BRANCH   1   2
ATOM      2  C   UNL     1       3.940   5.982  18.323  0.00  0.00    +0.000 C 
ATOM      3  O   UNL     1       4.197   5.700  19.501  0.00  0.00    +0.000 OA
ATOM      4  N   UNL     1       4.975   6.168  17.420  0.00  0.00    +0.000 N 
ATOM      5  C   UNL     1       6.344   5.984  17.908  0.00  0.00    +0.000 C 
ATOM      6  C   UNL     1       6.960   4.741  17.278  0.00  0.00    +0.000 C 
ATOM      7  C   UNL     1       6.928   4.838  15.754  0.00  0.00    +0.000 C 
ATOM      8  C   UNL     1       5.515   5.140  15.239  0.00  0.00    +0.000 C 
ATOM      9  C   UNL     1       4.849   6.311  15.970  0.00  0.00    +0.000 C 
BRANCH   7  10
ATOM     10  O   UNL     1       7.854   5.822  15.298  0.00  0.00    +0.000 OA
ATOM     11  H   UNL     1       8.309   5.498  14.503  0.00  0.00    +0.000 HD
ENDBRANCH   7  10
ENDBRANCH   1   2
BRANCH   1  12
ATOM     12  N   UNL     1       1.569   6.863  18.771  0.00  0.00    +0.000 NA
ATOM     13  H   UNL     1       1.514   6.385  19.679  0.00  0.00    +0.000 HD
BRANCH  12  14
ATOM     14  S   UNL     1       1.697   8.498  19.219  0.00  0.00    +0.000 S 
ATOM     15  O   UNL     1       2.176   8.525  20.584  0.00  0.00    +0.000 OA
ATOM     16  O   UNL     1       2.614   8.988  18.194  0.00  0.00    +0.000 OA
BRANCH  14  17
ATOM     17  C   UNL     1       0.127   9.502  19.057  0.00  0.00    +0.000 A 
ATOM     18  C   UNL     1       0.199  10.299  20.207  0.00  0.00    +0.000 A 
ATOM     19  C   UNL     1      -0.840  11.107  20.530  0.00  0.00    +0.000 A 
ATOM     20  C   UNL     1      -0.879  12.086  19.588  0.00  0.00    +0.000 A 
ATOM     21  C   UNL     1      -1.089  11.510  18.340  0.00  0.00    +0.000 A 
ATOM     22  N   UNL     1      -1.749  12.071  17.284  0.00  0.00    +0.000 N 
ATOM     23  C   UNL     1      -2.449  11.056  16.699  0.00  0.00    +0.000 A 
ATOM     24  C   UNL     1      -1.806   9.864  17.074  0.00  0.00    +0.000 A 
ATOM     25  C   UNL     1      -0.742  10.152  18.050  0.00  0.00    +0.000 A 
ATOM     26  H   UNL     1      -2.060  13.049  17.296  0.00  0.00    +0.000 HD
ENDBRANCH  14  17
ENDBRANCH  12  14
ENDBRANCH   1  12
BRANCH   1  27
ATOM     27  C   UNL     1       2.039   4.612  17.452  0.00  0.00    +0.000 C 
BRANCH  27  28
ATOM     28  C   UNL     1       1.082   3.826  18.353  0.00  0.00    +0.000 C 
BRANCH  28  33
ATOM     29  C   UNL     1       2.690   2.500  19.836  0.00  0.00    +0.000 A 
ATOM     30  C   UNL     1       2.932   2.445  21.238  0.00  0.00    +0.000 A 
ATOM     31  C   UNL     1       2.047   3.390  21.856  0.00  0.00    +0.000 A 
ATOM     32  C   UNL     1       1.316   3.972  20.831  0.00  0.00    +0.000 A 
ATOM     33  N   UNL     1       1.704   3.444  19.642  0.00  0.00    +0.000 N 
BRANCH  29  35
ATOM     34  N   UNL     1       3.927   1.087  18.055  0.00  0.00    +0.000 NA
ATOM     35  C   UNL     1       3.357   1.699  18.860  0.00  0.00    +0.000 C 
ENDBRANCH  29  35
ENDBRANCH  28  33
ENDBRANCH  27  28
ENDBRANCH   1  27
TORSDOF 9
ENDMDL
MODEL 7
REMARK VINA RESULT:      -7.8      1.106      1.528
REMARK  Name = 
REMARK  9 active torsions:
REMARK  status: ('A' for Active; 'I' for Inactive)
REMARK    1  A    between atoms: C_2  and  C_3
REMARK    2  A    between atoms: N_7  and  C_8
REMARK    3  A    between atoms: C_8  and  C_9
REMARK    4  A    between atoms: C_9  and  C_10
REMARK    5  A    between atoms: C_10  and  N_11
REMARK    6  A    between atoms: C_10  and  C_24
REMARK    7  A    between atoms: N_11  and  S_12
REMARK    8  A    between atoms: S_12  and  C_15
REMARK    9  A    between atoms: C_29  and  O_30
REMARK                            x       y       z     vdW  Elec       q    Type
REMARK                         _______ _______ _______ _____ _____    ______ ____
ROOT
ATOM      1  C   UNL     1       2.598   6.165  17.975  0.00  0.00    +0.000 C 
ENDROOT
BRANCH   1   2
ATOM      2  C   UNL     1       1.918   4.788  18.091  0.00  0.00    +0.000 C 
ATOM      3  O   UNL     1       1.832   4.069  17.086  0.00  0.00    +0.000 OA
ATOM      4  N   UNL     1       1.459   4.318  19.312  0.00  0.00    +0.000 N 
ATOM      5  C   UNL     1       0.916   2.958  19.357  0.00  0.00    +0.000 C 
ATOM      6  C   UNL     1       1.845   2.053  20.156  0.00  0.00    +0.000 C 
ATOM      7  C   UNL     1       2.056   2.607  21.563  0.00  0.00    +0.000 C 
ATOM      8  C   UNL     1       2.520   4.067  21.529  0.00  0.00    +0.000 C 
ATOM      9  C   UNL     1       1.659   4.948  20.616  0.00  0.00    +0.000 C 
BRANCH   7  10
ATOM     10  O   UNL     1       0.865   2.471  22.336  0.00  0.00    +0.000 OA
ATOM     11  H   UNL     1       0.232   3.164  22.086  0.00  0.00    +0.000 HD
ENDBRANCH   7  10
ENDBRANCH   1   2
BRANCH   1  12
ATOM     12  N   UNL     1       1.652   7.320  17.755  0.00  0.00    +0.000 NA
ATOM     13  H   UNL     1       0.692   6.970  17.859  0.00  0.00    +0.000 HD
BRANCH  12  14
ATOM     14  S   UNL     1       1.590   8.818  18.558  0.00  0.00    +0.000 S 
ATOM     15  O   UNL     1       2.017   8.584  19.920  0.00  0.00    +0.000 OA
ATOM     16  O   UNL     1       2.485   9.610  17.720  0.00  0.00    +0.000 OA
BRANCH  14  17
ATOM     17  C   UNL     1      -0.070   9.678  18.530  0.00  0.00    +0.000 A 
ATOM     18  C   UNL     1       0.058  10.543  19.624  0.00  0.00    +0.000 A 
ATOM     19  C   UNL     1      -1.007  11.281  20.025  0.00  0.00    +0.000 A 
ATOM     20  C   UNL     1      -1.237  12.196  19.047  0.00  0.00    +0.000 A 
ATOM     21  C   UNL     1      -1.533  11.532  17.862  0.00  0.00    +0.000 A 
ATOM     22  N   UNL     1      -2.354  11.974  16.864  0.00  0.00    +0.000 N 
ATOM     23  C   UNL     1      -3.022  10.871  16.415  0.00  0.00    +0.000 A 
ATOM     24  C   UNL     1      -2.238   9.760  16.770  0.00  0.00    +0.000 A 
ATOM     25  C   UNL     1      -1.101  10.192  17.600  0.00  0.00    +0.000 A 
ATOM     26  H   UNL     1      -2.747  12.921  16.864  0.00  0.00    +0.000 HD
ENDBRANCH  14  17
ENDBRANCH  12  14
ENDBRANCH   1  12
BRANCH   1  27
ATOM     27  C   UNL     1       3.836   5.998  17.038  0.00  0.00    +0.000 C 
BRANCH  27  28
ATOM     28  C   UNL     1       5.093   6.829  17.304  0.00  0.00    +0.000 C 
BRANCH  28  33
ATOM     29  C   UNL     1       7.110   5.278  17.035  0.00  0.00    +0.000 A 
ATOM     30  C   UNL     1       7.982   4.617  17.944  0.00  0.00    +0.000 A 
ATOM     31  C   UNL     1       7.569   4.983  19.268  0.00  0.00    +0.000 A 
ATOM     32  C   UNL     1       6.484   5.835  19.118  0.00  0.00    +0.000 A 
ATOM     33  N   UNL     1       6.221   6.007  17.798  0.00  0.00    +0.000 N 
BRANCH  29  35
ATOM     34  N   UNL     1       7.221   5.121  14.454  0.00  0.00    +0.000 NA
ATOM     35  C   UNL     1       7.173   5.165  15.612  0.00  0.00    +0.000 C 
ENDBRANCH  29  35
ENDBRANCH  28  33
ENDBRANCH  27  28
ENDBRANCH   1  27
TORSDOF 9
ENDMDL
MODEL 8
REMARK VINA RESULT:      -7.7      2.545      3.235
REMARK  Name = 
REMARK  9 active torsions:
REMARK  status: ('A' for Active; 'I' for Inactive)
REMARK    1  A    between atoms: C_2  and  C_3
REMARK    2  A    between atoms: N_7  and  C_8
REMARK    3  A    between atoms: C_8  and  C_9
REMARK    4  A    between atoms: C_9  and  C_10
REMARK    5  A    between atoms: C_10  and  N_11
REMARK    6  A    between atoms: C_10  and  C_24
REMARK    7  A    between atoms: N_11  and  S_12
REMARK    8  A    between atoms: S_12  and  C_15
REMARK    9  A    between atoms: C_29  and  O_30
REMARK                            x       y       z     vdW  Elec       q    Type
REMARK                         _______ _______ _______ _____ _____    ______ ____
ROOT
ATOM      1  C   UNL     1       2.688   7.402  18.465  0.00  0.00    +0.000 C 
ENDROOT
BRANCH   1   2
ATOM      2  C   UNL     1       2.439   6.413  19.618  0.00  0.00    +0.000 C 
ATOM      3  O   UNL     1       2.133   6.849  20.736  0.00  0.00    +0.000 OA
ATOM      4  N   UNL     1       2.491   5.043  19.408  0.00  0.00    +0.000 N 
ATOM      5  C   UNL     1       2.143   4.169  20.531  0.00  0.00    +0.000 C 
ATOM      6  C   UNL     1       0.830   3.450  20.245  0.00  0.00    +0.000 C 
ATOM      7  C   UNL     1       0.923   2.660  18.942  0.00  0.00    +0.000 C 
ATOM      8  C   UNL     1       1.393   3.544  17.780  0.00  0.00    +0.000 C 
ATOM      9  C   UNL     1       2.641   4.366  18.121  0.00  0.00    +0.000 C 
BRANCH   7  10
ATOM     10  O   UNL     1       1.783   1.534  19.102  0.00  0.00    +0.000 OA
ATOM     11  H   UNL     1       2.322   1.418  18.302  0.00  0.00    +0.000 HD
ENDBRANCH   7  10
ENDBRANCH   1   2
BRANCH   1  12
ATOM     12  N   UNL     1       1.469   8.174  18.020  0.00  0.00    +0.000 NA
ATOM     13  H   UNL     1       0.639   7.718  18.420  0.00  0.00    +0.000 HD
BRANCH  12  14
ATOM     14  S   UNL     1       1.118   9.825  18.221  0.00  0.00    +0.000 S 
ATOM     15  O   UNL     1       2.156  10.563  17.533  0.00  0.00    +0.000 OA
ATOM     16  O   UNL     1      -0.221   9.888  17.643  0.00  0.00    +0.000 OA
BRANCH  14  17
ATOM     17  C   UNL     1       0.966  10.407  19.991  0.00  0.00    +0.000 A 
ATOM     18  C   UNL     1       0.889  11.794  19.813  0.00  0.00    +0.000 A 
ATOM     19  C   UNL     1       0.888  12.612  20.894  0.00  0.00    +0.000 A 
ATOM     20  C   UNL     1      -0.293  12.408  21.535  0.00  0.00    +0.000 A 
ATOM     21  C   UNL     1      -0.369  11.080  21.938  0.00  0.00    +0.000 A 
ATOM     22  N   UNL     1      -1.016  10.599  23.040  0.00  0.00    +0.000 N 
ATOM     23  C   UNL     1      -0.224   9.602  23.533  0.00  0.00    +0.000 A 
ATOM     24  C   UNL     1       0.579   9.168  22.465  0.00  0.00    +0.000 A 
ATOM     25  C   UNL     1       0.367  10.034  21.293  0.00  0.00    +0.000 A 
ATOM     26  H   UNL     1      -1.615  11.195  23.621  0.00  0.00    +0.000 HD
ENDBRANCH  14  17
ENDBRANCH  12  14
ENDBRANCH   1  12
BRANCH   1  27
ATOM     27  C   UNL     1       3.561   6.668  17.399  0.00  0.00    +0.000 C 
BRANCH  27  28
ATOM     28  C   UNL     1       5.047   7.012  17.283  0.00  0.00    +0.000 C 
BRANCH  28  33
ATOM     29  C   UNL     1       6.877   5.230  17.143  0.00  0.00    +0.000 A 
ATOM     30  C   UNL     1       7.336   4.356  16.117  0.00  0.00    +0.000 A 
ATOM     31  C   UNL     1       6.516   4.592  14.964  0.00  0.00    +0.000 A 
ATOM     32  C   UNL     1       5.608   5.577  15.323  0.00  0.00    +0.000 A 
ATOM     33  N   UNL     1       5.825   5.946  16.611  0.00  0.00    +0.000 N 
BRANCH  29  35
ATOM     34  N   UNL     1       7.933   5.422  19.497  0.00  0.00    +0.000 NA
ATOM     35  C   UNL     1       7.441   5.320  18.452  0.00  0.00    +0.000 C 
ENDBRANCH  29  35
ENDBRANCH  28  33
ENDBRANCH  27  28
ENDBRANCH   1  27
TORSDOF 9
ENDMDL
MODEL 9
REMARK VINA RESULT:      -7.7      1.819      4.384
REMARK  Name = 
REMARK  9 active torsions:
REMARK  status: ('A' for Active; 'I' for Inactive)
REMARK    1  A    between atoms: C_2  and  C_3
REMARK    2  A    between atoms: N_7  and  C_8
REMARK    3  A    between atoms: C_8  and  C_9
REMARK    4  A    between atoms: C_9  and  C_10
REMARK    5  A    between atoms: C_10  and  N_11
REMARK    6  A    between atoms: C_10  and  C_24
REMARK    7  A    between atoms: N_11  and  S_12
REMARK    8  A    between atoms: S_12  and  C_15
REMARK    9  A    between atoms: C_29  and  O_30
REMARK                            x       y       z     vdW  Elec       q    Type
REMARK                         _______ _______ _______ _____ _____    ______ ____
ROOT
ATOM      1  C   UNL     1       2.410   6.703  18.020  0.00  0.00    +0.000 C 
ENDROOT
BRANCH   1   2
ATOM      2  C   UNL     1       3.831   6.323  18.477  0.00  0.00    +0.000 C 
ATOM      3  O   UNL     1       4.009   5.935  19.639  0.00  0.00    +0.000 OA
ATOM      4  N   UNL     1       4.897   6.351  17.592  0.00  0.00    +0.000 N 
ATOM      5  C   UNL     1       6.197   5.879  18.078  0.00  0.00    +0.000 C 
ATOM      6  C   UNL     1       6.569   4.574  17.384  0.00  0.00    +0.000 C 
ATOM      7  C   UNL     1       6.582   4.756  15.868  0.00  0.00    +0.000 C 
ATOM      8  C   UNL     1       5.264   5.353  15.362  0.00  0.00    +0.000 C 
ATOM      9  C   UNL     1       4.825   6.592  16.152  0.00  0.00    +0.000 C 
BRANCH   7  10
ATOM     10  O   UNL     1       7.689   5.563  15.472  0.00  0.00    +0.000 OA
ATOM     11  H   UNL     1       8.408   5.473  16.119  0.00  0.00    +0.000 HD
ENDBRANCH   7  10
ENDBRANCH   1   2
BRANCH   1  12
ATOM     12  N   UNL     1       1.707   7.702  18.906  0.00  0.00    +0.000 NA
ATOM     13  H   UNL     1       2.136   7.658  19.839  0.00  0.00    +0.000 HD
BRANCH  12  14
ATOM     14  S   UNL     1       1.493   9.372  18.674  0.00  0.00    +0.000 S 
ATOM     15  O   UNL     1       2.162  10.039  19.770  0.00  0.00    +0.000 OA
ATOM     16  O   UNL     1       2.084   9.538  17.350  0.00  0.00    +0.000 OA
BRANCH  14  17
ATOM     17  C   UNL     1      -0.282   9.947  18.544  0.00  0.00    +0.000 A 
ATOM     18  C   UNL     1      -0.348  10.855  19.608  0.00  0.00    +0.000 A 
ATOM     19  C   UNL     1      -1.536  11.420  19.936  0.00  0.00    +0.000 A 
ATOM     20  C   UNL     1      -1.866  12.255  18.915  0.00  0.00    +0.000 A 
ATOM     21  C   UNL     1      -1.993  11.515  17.745  0.00  0.00    +0.000 A 
ATOM     22  N   UNL     1      -2.826  11.785  16.697  0.00  0.00    +0.000 N 
ATOM     23  C   UNL     1      -3.284  10.574  16.263  0.00  0.00    +0.000 A 
ATOM     24  C   UNL     1      -2.348   9.618  16.693  0.00  0.00    +0.000 A 
ATOM     25  C   UNL     1      -1.337  10.256  17.553  0.00  0.00    +0.000 A 
ATOM     26  H   UNL     1      -3.367  12.654  16.644  0.00  0.00    +0.000 HD
ENDBRANCH  14  17
ENDBRANCH  12  14
ENDBRANCH   1  12
BRANCH   1  27
ATOM     27  C   UNL     1       1.678   5.382  17.623  0.00  0.00    +0.000 C 
BRANCH  27  28
ATOM     28  C   UNL     1       1.380   4.339  18.703  0.00  0.00    +0.000 C 
BRANCH  28  33
ATOM     29  C   UNL     1       2.859   2.557  19.791  0.00  0.00    +0.000 A 
ATOM     30  C   UNL     1       3.787   1.599  19.296  0.00  0.00    +0.000 A 
ATOM     31  C   UNL     1       3.807   1.730  17.867  0.00  0.00    +0.000 A 
ATOM     32  C   UNL     1       2.909   2.739  17.553  0.00  0.00    +0.000 A 
ATOM     33  N   UNL     1       2.351   3.221  18.693  0.00  0.00    +0.000 N 
BRANCH  29  35
ATOM     34  N   UNL     1       2.298   2.978  22.282  0.00  0.00    +0.000 NA
ATOM     35  C   UNL     1       2.556   2.764  21.171  0.00  0.00    +0.000 C 
ENDBRANCH  29  35
ENDBRANCH  28  33
ENDBRANCH  27  28
ENDBRANCH   1  27
TORSDOF 9
ENDMDL
