MODEL 1
REMARK VINA RESULT:      -5.4      0.000      0.000
REMARK  Name = 
REMARK  20 active torsions:
REMARK  status: ('A' for Active; 'I' for Inactive)
REMARK    1  A    between atoms: C_1  and  C_2
REMARK    2  A    between atoms: C_2  and  C_3
REMARK    3  A    between atoms: C_2  and  C_4
REMARK    4  A    between atoms: C_4  and  C_5
REMARK    5  A    between atoms: C_5  and  C_6
REMARK    6  A    between atoms: C_5  and  N_8
REMARK    7  A    between atoms: C_6  and  O_7
REMARK    8  A    between atoms: N_8  and  C_9
REMARK    9  A    between atoms: N_8  and  S_16
REMARK   10  A    between atoms: C_9  and  C_10
REMARK   11  A    between atoms: S_16  and  N_19
REMARK   12  A    between atoms: N_19  and  C_20
REMARK   13  A    between atoms: N_19  and  C_27
REMARK   14  A    between atoms: C_20  and  C_21
REMARK   15  A    between atoms: C_27  and  C_28
REMARK   16  A    between atoms: C_27  and  C_30
REMARK   17  A    between atoms: C_28  and  O_29
REMARK   18  A    between atoms: C_30  and  C_31
REMARK   19  A    between atoms: C_31  and  C_32
REMARK   20  A    between atoms: C_31  and  C_33
REMARK                            x       y       z     vdW  Elec       q    Type
REMARK                         _______ _______ _______ _____ _____    ______ ____
ROOT
ATOM      1  S   UNL     1       0.078  12.260  21.225  0.00  0.00    +0.000 S 
ATOM      2  O   UNL     1       0.308  11.320  22.294  0.00  0.00    +0.000 OA
ATOM      3  O   UNL     1       1.087  13.237  20.895  0.00  0.00    +0.000 OA
ENDROOT
BRANCH   1   4
ATOM      4  N   UNL     1      -0.270  11.368  19.830  0.00  0.00    +0.000 NA
BRANCH   4   5
ATOM      5  C   UNL     1       0.920  10.941  18.981  0.00  0.00    +0.000 C 
BRANCH   5   6
ATOM      6  C   UNL     1       1.403   9.495  19.068  0.00  0.00    +0.000 A 
ATOM      7  C   UNL     1       1.212   8.752  20.240  0.00  0.00    +0.000 A 
ATOM      8  C   UNL     1       1.784   7.491  20.412  0.00  0.00    +0.000 A 
ATOM      9  C   UNL     1       2.505   6.904  19.378  0.00  0.00    +0.000 A 
ATOM     10  C   UNL     1       2.604   7.566  18.157  0.00  0.00    +0.000 A 
ATOM     11  C   UNL     1       2.056   8.846  18.002  0.00  0.00    +0.000 A 
ENDBRANCH   5   6
ENDBRANCH   4   5
BRANCH   4  12
ATOM     12  C   UNL     1      -1.468  11.889  18.947  0.00  0.00    +0.000 C 
BRANCH  12  13
ATOM     13  C   UNL     1      -0.877  12.919  17.938  0.00  0.00    +0.000 C 
BRANCH  13  14
ATOM     14  O   UNL     1      -0.539  14.197  18.450  0.00  0.00    +0.000 OA
ATOM     15  H   UNL     1      -1.336  14.754  18.430  0.00  0.00    +0.000 HD
ENDBRANCH  13  14
ENDBRANCH  12  13
BRANCH  12  16
ATOM     16  C   UNL     1      -2.307  10.782  18.218  0.00  0.00    +0.000 C 
BRANCH  16  18
ATOM     17  C   UNL     1      -2.796   9.889  15.868  0.00  0.00    +0.000 C 
ATOM     18  C   UNL     1      -2.891  11.100  16.811  0.00  0.00    +0.000 C 
ATOM     19  C   UNL     1      -4.349  11.555  16.896  0.00  0.00    +0.000 C 
ENDBRANCH  16  18
ENDBRANCH  12  16
ENDBRANCH   4  12
ENDBRANCH   1   4
BRANCH   1  20
ATOM     20  N   UNL     1      -1.335  13.232  21.616  0.00  0.00    +0.000 NA
BRANCH  20  21
ATOM     21  C   UNL     1      -2.218  12.568  22.653  0.00  0.00    +0.000 C 
BRANCH  21  22
ATOM     22  C   UNL     1      -3.730  12.781  22.643  0.00  0.00    +0.000 A 
ATOM     23  C   UNL     1      -4.488  13.168  23.757  0.00  0.00    +0.000 A 
ATOM     24  C   UNL     1      -5.881  13.249  23.725  0.00  0.00    +0.000 A 
ATOM     25  C   UNL     1      -6.559  12.984  22.544  0.00  0.00    +0.000 A 
ATOM     26  C   UNL     1      -5.839  12.623  21.409  0.00  0.00    +0.000 A 
ATOM     27  C   UNL     1      -4.444  12.520  21.455  0.00  0.00    +0.000 A 
ENDBRANCH  21  22
ENDBRANCH  20  21
BRANCH  20  28
ATOM     28  C   UNL     1      -0.991  14.727  21.963  0.00  0.00    +0.000 C 
BRANCH  28  29
ATOM     29  C   UNL     1      -2.005  15.645  21.244  0.00  0.00    +0.000 C 
BRANCH  29  30
ATOM     30  O   UNL     1      -2.610  14.958  20.148  0.00  0.00    +0.000 OA
ATOM     31  H   UNL     1      -2.640  15.602  19.418  0.00  0.00    +0.000 HD
ENDBRANCH  29  30
ENDBRANCH  28  29
BRANCH  28  32
ATOM     32  C   UNL     1      -0.951  15.059  23.496  0.00  0.00    +0.000 C 
BRANCH  32  33
ATOM     33  C   UNL     1      -0.040  16.261  23.896  0.00  0.00    +0.000 C 
ATOM     34  C   UNL     1       1.087  16.481  22.877  0.00  0.00    +0.000 C 
ATOM     35  C   UNL     1      -0.834  17.563  24.050  0.00  0.00    +0.000 C 
ENDBRANCH  32  33
ENDBRANCH  28  32
ENDBRANCH  20  28
ENDBRANCH   1  20
TORSDOF 16
ENDMDL
MODEL 2
REMARK VINA RESULT:      -5.4      2.372      5.386
REMARK  Name = 
REMARK  20 active torsions:
REMARK  status: ('A' for Active; 'I' for Inactive)
REMARK    1  A    between atoms: C_1  and  C_2
REMARK    2  A    between atoms: C_2  and  C_3
REMARK    3  A    between atoms: C_2  and  C_4
REMARK    4  A    between atoms: C_4  and  C_5
REMARK    5  A    between atoms: C_5  and  C_6
REMARK    6  A    between atoms: C_5  and  N_8
REMARK    7  A    between atoms: C_6  and  O_7
REMARK    8  A    between atoms: N_8  and  C_9
REMARK    9  A    between atoms: N_8  and  S_16
REMARK   10  A    between atoms: C_9  and  C_10
REMARK   11  A    between atoms: S_16  and  N_19
REMARK   12  A    between atoms: N_19  and  C_20
REMARK   13  A    between atoms: N_19  and  C_27
REMARK   14  A    between atoms: C_20  and  C_21
REMARK   15  A    between atoms: C_27  and  C_28
REMARK   16  A    between atoms: C_27  and  C_30
REMARK   17  A    between atoms: C_28  and  O_29
REMARK   18  A    between atoms: C_30  and  C_31
REMARK   19  A    between atoms: C_31  and  C_32
REMARK   20  A    between atoms: C_31  and  C_33
REMARK                            x       y       z     vdW  Elec       q    Type
REMARK                         _______ _______ _______ _____ _____    ______ ____
ROOT
ATOM      1  S   UNL     1       0.403  13.280  19.572  0.00  0.00    +0.000 S 
ATOM      2  O   UNL     1       1.510  12.944  20.433  0.00  0.00    +0.000 OA
ATOM      3  O   UNL     1       0.564  13.236  18.140  0.00  0.00    +0.000 OA
ENDROOT
BRANCH   1   4
ATOM      4  N   UNL     1      -0.890  12.272  19.991  0.00  0.00    +0.000 NA
BRANCH   4   5
ATOM      5  C   UNL     1      -1.078  11.988  21.475  0.00  0.00    +0.000 C 
BRANCH   5   6
ATOM      6  C   UNL     1      -2.428  12.301  22.116  0.00  0.00    +0.000 A 
ATOM      7  C   UNL     1      -3.463  12.861  21.357  0.00  0.00    +0.000 A 
ATOM      8  C   UNL     1      -4.646  13.310  21.944  0.00  0.00    +0.000 A 
ATOM      9  C   UNL     1      -4.857  13.141  23.308  0.00  0.00    +0.000 A 
ATOM     10  C   UNL     1      -3.899  12.472  24.066  0.00  0.00    +0.000 A 
ATOM     11  C   UNL     1      -2.699  12.054  23.476  0.00  0.00    +0.000 A 
ENDBRANCH   5   6
ENDBRANCH   4   5
BRANCH   4  12
ATOM     12  C   UNL     1      -1.077  10.974  19.114  0.00  0.00    +0.000 C 
BRANCH  12  13
ATOM     13  C   UNL     1      -2.203  11.281  18.081  0.00  0.00    +0.000 C 
BRANCH  13  14
ATOM     14  O   UNL     1      -1.848  12.072  16.960  0.00  0.00    +0.000 OA
ATOM     15  H   UNL     1      -2.352  11.756  16.191  0.00  0.00    +0.000 HD
ENDBRANCH  13  14
ENDBRANCH  12  13
BRANCH  12  16
ATOM     16  C   UNL     1       0.218  10.434  18.414  0.00  0.00    +0.000 C 
BRANCH  16  18
ATOM     17  C   UNL     1       0.581   9.000  20.503  0.00  0.00    +0.000 C 
ATOM     18  C   UNL     1       1.241   9.629  19.265  0.00  0.00    +0.000 C 
ATOM     19  C   UNL     1       1.915   8.528  18.445  0.00  0.00    +0.000 C 
ENDBRANCH  16  18
ENDBRANCH  12  16
ENDBRANCH   4  12
ENDBRANCH   1   4
BRANCH   1  20
ATOM     20  N   UNL     1      -0.079  14.942  19.889  0.00  0.00    +0.000 NA
BRANCH  20  21
ATOM     21  C   UNL     1       0.240  15.371  21.306  0.00  0.00    +0.000 C 
BRANCH  21  22
ATOM     22  C   UNL     1      -0.876  15.578  22.330  0.00  0.00    +0.000 A 
ATOM     23  C   UNL     1      -2.100  16.204  22.059  0.00  0.00    +0.000 A 
ATOM     24  C   UNL     1      -3.046  16.462  23.051  0.00  0.00    +0.000 A 
ATOM     25  C   UNL     1      -2.806  16.055  24.355  0.00  0.00    +0.000 A 
ATOM     26  C   UNL     1      -1.612  15.405  24.658  0.00  0.00    +0.000 A 
ATOM     27  C   UNL     1      -0.657  15.172  23.662  0.00  0.00    +0.000 A 
ENDBRANCH  21  22
ENDBRANCH  20  21
BRANCH  20  28
ATOM     28  C   UNL     1       0.434  15.961  18.805  0.00  0.00    +0.000 C 
BRANCH  28  29
ATOM     29  C   UNL     1      -0.701  16.962  18.495  0.00  0.00    +0.000 C 
BRANCH  29  30
ATOM     30  O   UNL     1      -0.344  18.273  18.932  0.00  0.00    +0.000 OA
ATOM     31  H   UNL     1       0.611  18.235  19.124  0.00  0.00    +0.000 HD
ENDBRANCH  29  30
ENDBRANCH  28  29
BRANCH  28  32
ATOM     32  C   UNL     1       1.747  16.730  19.188  0.00  0.00    +0.000 C 
BRANCH  32  33
ATOM     33  C   UNL     1       2.898  16.650  18.138  0.00  0.00    +0.000 C 
ATOM     34  C   UNL     1       3.330  15.200  17.881  0.00  0.00    +0.000 C 
ATOM     35  C   UNL     1       2.512  17.299  16.804  0.00  0.00    +0.000 C 
ENDBRANCH  32  33
ENDBRANCH  28  32
ENDBRANCH  20  28
ENDBRANCH   1  20
TORSDOF 16
ENDMDL
MODEL 3
REMARK VINA RESULT:      -5.3      7.073     11.701
REMARK  Name = 
REMARK  20 active torsions:
REMARK  status: ('A' for Active; 'I' for Inactive)
REMARK    1  A    between atoms: C_1  and  C_2
REMARK    2  A    between atoms: C_2  and  C_3
REMARK    3  A    between atoms: C_2  and  C_4
REMARK    4  A    between atoms: C_4  and  C_5
REMARK    5  A    between atoms: C_5  and  C_6
REMARK    6  A    between atoms: C_5  and  N_8
REMARK    7  A    between atoms: C_6  and  O_7
REMARK    8  A    between atoms: N_8  and  C_9
REMARK    9  A    between atoms: N_8  and  S_16
REMARK   10  A    between atoms: C_9  and  C_10
REMARK   11  A    between atoms: S_16  and  N_19
REMARK   12  A    between atoms: N_19  and  C_20
REMARK   13  A    between atoms: N_19  and  C_27
REMARK   14  A    between atoms: C_20  and  C_21
REMARK   15  A    between atoms: C_27  and  C_28
REMARK   16  A    between atoms: C_27  and  C_30
REMARK   17  A    between atoms: C_28  and  O_29
REMARK   18  A    between atoms: C_30  and  C_31
REMARK   19  A    between atoms: C_31  and  C_32
REMARK   20  A    between atoms: C_31  and  C_33
REMARK                            x       y       z     vdW  Elec       q    Type
REMARK                         _______ _______ _______ _____ _____    ______ ____
ROOT
ATOM      1  S   UNL     1       4.671   3.903  18.460  0.00  0.00    +0.000 S 
ATOM      2  O   UNL     1       5.279   3.765  19.760  0.00  0.00    +0.000 OA
ATOM      3  O   UNL     1       4.262   2.729  17.728  0.00  0.00    +0.000 OA
ENDROOT
BRANCH   1   4
ATOM      4  N   UNL     1       3.325   4.914  18.633  0.00  0.00    +0.000 NA
BRANCH   4   5
ATOM      5  C   UNL     1       3.494   6.121  19.546  0.00  0.00    +0.000 C 
BRANCH   5   6
ATOM      6  C   UNL     1       2.681   7.380  19.255  0.00  0.00    +0.000 A 
ATOM      7  C   UNL     1       1.870   7.948  20.246  0.00  0.00    +0.000 A 
ATOM      8  C   UNL     1       0.993   8.995  19.967  0.00  0.00    +0.000 A 
ATOM      9  C   UNL     1       0.957   9.557  18.695  0.00  0.00    +0.000 A 
ATOM     10  C   UNL     1       1.843   9.098  17.724  0.00  0.00    +0.000 A 
ATOM     11  C   UNL     1       2.699   8.023  18.002  0.00  0.00    +0.000 A 
ENDBRANCH   5   6
ENDBRANCH   4   5
BRANCH   4  12
ATOM     12  C   UNL     1       1.937   4.199  18.853  0.00  0.00    +0.000 C 
BRANCH  12  13
ATOM     13  C   UNL     1       1.282   4.034  17.448  0.00  0.00    +0.000 C 
BRANCH  13  14
ATOM     14  O   UNL     1       1.926   3.157  16.539  0.00  0.00    +0.000 OA
ATOM     15  H   UNL     1       1.301   2.451  16.301  0.00  0.00    +0.000 HD
ENDBRANCH  13  14
ENDBRANCH  12  13
BRANCH  12  16
ATOM     16  C   UNL     1       1.988   2.838  19.630  0.00  0.00    +0.000 C 
BRANCH  16  18
ATOM     17  C   UNL     1       1.114   2.576  22.023  0.00  0.00    +0.000 C 
ATOM     18  C   UNL     1       2.344   2.861  21.144  0.00  0.00    +0.000 C 
ATOM     19  C   UNL     1       3.442   1.852  21.481  0.00  0.00    +0.000 C 
ENDBRANCH  16  18
ENDBRANCH  12  16
ENDBRANCH   4  12
ENDBRANCH   1   4
BRANCH   1  20
ATOM     20  N   UNL     1       5.811   4.694  17.380  0.00  0.00    +0.000 NA
BRANCH  20  21
ATOM     21  C   UNL     1       5.153   5.173  16.102  0.00  0.00    +0.000 C 
BRANCH  21  22
ATOM     22  C   UNL     1       5.700   4.757  14.738  0.00  0.00    +0.000 A 
ATOM     23  C   UNL     1       5.049   3.892  13.848  0.00  0.00    +0.000 A 
ATOM     24  C   UNL     1       5.635   3.460  12.658  0.00  0.00    +0.000 A 
ATOM     25  C   UNL     1       6.892   3.925  12.301  0.00  0.00    +0.000 A 
ATOM     26  C   UNL     1       7.560   4.807  13.146  0.00  0.00    +0.000 A 
ATOM     27  C   UNL     1       6.975   5.217  14.350  0.00  0.00    +0.000 A 
ENDBRANCH  21  22
ENDBRANCH  20  21
BRANCH  20  28
ATOM     28  C   UNL     1       6.675   5.804  18.084  0.00  0.00    +0.000 C 
BRANCH  28  29
ATOM     29  C   UNL     1       8.082   5.230  18.362  0.00  0.00    +0.000 C 
BRANCH  29  30
ATOM     30  O   UNL     1       8.271   4.006  17.652  0.00  0.00    +0.000 OA
ATOM     31  H   UNL     1       9.234   3.856  17.639  0.00  0.00    +0.000 HD
ENDBRANCH  29  30
ENDBRANCH  28  29
BRANCH  28  32
ATOM     32  C   UNL     1       6.786   7.156  17.295  0.00  0.00    +0.000 C 
BRANCH  32  33
ATOM     33  C   UNL     1       8.015   8.045  17.663  0.00  0.00    +0.000 C 
ATOM     34  C   UNL     1       7.683   9.540  17.562  0.00  0.00    +0.000 C 
ATOM     35  C   UNL     1       8.545   7.746  19.070  0.00  0.00    +0.000 C 
ENDBRANCH  32  33
ENDBRANCH  28  32
ENDBRANCH  20  28
ENDBRANCH   1  20
TORSDOF 16
ENDMDL
MODEL 4
REMARK VINA RESULT:      -5.3      7.793     10.727
REMARK  Name = 
REMARK  20 active torsions:
REMARK  status: ('A' for Active; 'I' for Inactive)
REMARK    1  A    between atoms: C_1  and  C_2
REMARK    2  A    between atoms: C_2  and  C_3
REMARK    3  A    between atoms: C_2  and  C_4
REMARK    4  A    between atoms: C_4  and  C_5
REMARK    5  A    between atoms: C_5  and  C_6
REMARK    6  A    between atoms: C_5  and  N_8
REMARK    7  A    between atoms: C_6  and  O_7
REMARK    8  A    between atoms: N_8  and  C_9
REMARK    9  A    between atoms: N_8  and  S_16
REMARK   10  A    between atoms: C_9  and  C_10
REMARK   11  A    between atoms: S_16  and  N_19
REMARK   12  A    between atoms: N_19  and  C_20
REMARK   13  A    between atoms: N_19  and  C_27
REMARK   14  A    between atoms: C_20  and  C_21
REMARK   15  A    between atoms: C_27  and  C_28
REMARK   16  A    between atoms: C_27  and  C_30
REMARK   17  A    between atoms: C_28  and  O_29
REMARK   18  A    between atoms: C_30  and  C_31
REMARK   19  A    between atoms: C_31  and  C_32
REMARK   20  A    between atoms: C_31  and  C_33
REMARK                            x       y       z     vdW  Elec       q    Type
REMARK                         _______ _______ _______ _____ _____    ______ ____
ROOT
ATOM      1  S   UNL     1       6.894   5.336  16.457  0.00  0.00    +0.000 S 
ATOM      2  O   UNL     1       7.495   4.327  17.293  0.00  0.00    +0.000 OA
ATOM      3  O   UNL     1       7.705   6.069  15.516  0.00  0.00    +0.000 OA
ENDROOT
BRANCH   1   4
ATOM      4  N   UNL     1       5.628   4.604  15.608  0.00  0.00    +0.000 NA
BRANCH   4   5
ATOM      5  C   UNL     1       5.122   3.275  16.153  0.00  0.00    +0.000 C 
BRANCH   5   6
ATOM      6  C   UNL     1       4.004   3.286  17.194  0.00  0.00    +0.000 A 
ATOM      7  C   UNL     1       4.227   2.781  18.481  0.00  0.00    +0.000 A 
ATOM      8  C   UNL     1       3.188   2.625  19.399  0.00  0.00    +0.000 A 
ATOM      9  C   UNL     1       1.902   3.044  19.076  0.00  0.00    +0.000 A 
ATOM     10  C   UNL     1       1.677   3.666  17.851  0.00  0.00    +0.000 A 
ATOM     11  C   UNL     1       2.718   3.790  16.921  0.00  0.00    +0.000 A 
ENDBRANCH   5   6
ENDBRANCH   4   5
BRANCH   4  12
ATOM     12  C   UNL     1       5.758   4.585  14.036  0.00  0.00    +0.000 C 
BRANCH  12  13
ATOM     13  C   UNL     1       7.276   4.455  13.707  0.00  0.00    +0.000 C 
BRANCH  13  14
ATOM     14  O   UNL     1       7.842   5.459  12.880  0.00  0.00    +0.000 OA
ATOM     15  H   UNL     1       7.401   5.426  12.014  0.00  0.00    +0.000 HD
ENDBRANCH  13  14
ENDBRANCH  12  13
BRANCH  12  16
ATOM     16  C   UNL     1       4.911   3.492  13.296  0.00  0.00    +0.000 C 
BRANCH  16  18
ATOM     17  C   UNL     1       5.808   1.876  11.524  0.00  0.00    +0.000 C 
ATOM     18  C   UNL     1       5.171   3.252  11.781  0.00  0.00    +0.000 C 
ATOM     19  C   UNL     1       3.884   3.368  10.963  0.00  0.00    +0.000 C 
ENDBRANCH  16  18
ENDBRANCH  12  16
ENDBRANCH   4  12
ENDBRANCH   1   4
BRANCH   1  20
ATOM     20  N   UNL     1       6.209   6.589  17.484  0.00  0.00    +0.000 NA
BRANCH  20  21
ATOM     21  C   UNL     1       5.034   6.085  18.297  0.00  0.00    +0.000 C 
BRANCH  21  22
ATOM     22  C   UNL     1       3.765   6.923  18.440  0.00  0.00    +0.000 A 
ATOM     23  C   UNL     1       3.333   7.880  17.512  0.00  0.00    +0.000 A 
ATOM     24  C   UNL     1       2.222   8.694  17.736  0.00  0.00    +0.000 A 
ATOM     25  C   UNL     1       1.476   8.538  18.895  0.00  0.00    +0.000 A 
ATOM     26  C   UNL     1       1.858   7.578  19.828  0.00  0.00    +0.000 A 
ATOM     27  C   UNL     1       2.988   6.783  19.608  0.00  0.00    +0.000 A 
ENDBRANCH  21  22
ENDBRANCH  20  21
BRANCH  20  28
ATOM     28  C   UNL     1       7.281   7.346  18.350  0.00  0.00    +0.000 C 
BRANCH  28  29
ATOM     29  C   UNL     1       8.284   6.312  18.907  0.00  0.00    +0.000 C 
BRANCH  29  30
ATOM     30  O   UNL     1       7.766   5.701  20.089  0.00  0.00    +0.000 OA
ATOM     31  H   UNL     1       8.536   5.320  20.548  0.00  0.00    +0.000 HD
ENDBRANCH  29  30
ENDBRANCH  28  29
BRANCH  28  32
ATOM     32  C   UNL     1       8.045   8.495  17.602  0.00  0.00    +0.000 C 
BRANCH  32  33
ATOM     33  C   UNL     1       8.223   9.817  18.412  0.00  0.00    +0.000 C 
ATOM     34  C   UNL     1       9.166   9.625  19.609  0.00  0.00    +0.000 C 
ATOM     35  C   UNL     1       8.751  10.963  17.542  0.00  0.00    +0.000 C 
ENDBRANCH  32  33
ENDBRANCH  28  32
ENDBRANCH  20  28
ENDBRANCH   1  20
TORSDOF 16
ENDMDL
MODEL 5
REMARK VINA RESULT:      -5.3      2.007      6.146
REMARK  Name = 
REMARK  20 active torsions:
REMARK  status: ('A' for Active; 'I' for Inactive)
REMARK    1  A    between atoms: C_1  and  C_2
REMARK    2  A    between atoms: C_2  and  C_3
REMARK    3  A    between atoms: C_2  and  C_4
REMARK    4  A    between atoms: C_4  and  C_5
REMARK    5  A    between atoms: C_5  and  C_6
REMARK    6  A    between atoms: C_5  and  N_8
REMARK    7  A    between atoms: C_6  and  O_7
REMARK    8  A    between atoms: N_8  and  C_9
REMARK    9  A    between atoms: N_8  and  S_16
REMARK   10  A    between atoms: C_9  and  C_10
REMARK   11  A    between atoms: S_16  and  N_19
REMARK   12  A    between atoms: N_19  and  C_20
REMARK   13  A    between atoms: N_19  and  C_27
REMARK   14  A    between atoms: C_20  and  C_21
REMARK   15  A    between atoms: C_27  and  C_28
REMARK   16  A    between atoms: C_27  and  C_30
REMARK   17  A    between atoms: C_28  and  O_29
REMARK   18  A    between atoms: C_30  and  C_31
REMARK   19  A    between atoms: C_31  and  C_32
REMARK   20  A    between atoms: C_31  and  C_33
REMARK                            x       y       z     vdW  Elec       q    Type
REMARK                         _______ _______ _______ _____ _____    ______ ____
ROOT
ATOM      1  S   UNL     1      -0.654  13.435  21.158  0.00  0.00    +0.000 S 
ATOM      2  O   UNL     1      -1.739  14.345  20.884  0.00  0.00    +0.000 OA
ATOM      3  O   UNL     1       0.436  13.848  22.007  0.00  0.00    +0.000 OA
ENDROOT
BRANCH   1   4
ATOM      4  N   UNL     1      -1.327  12.025  21.808  0.00  0.00    +0.000 NA
BRANCH   4   5
ATOM      5  C   UNL     1      -2.196  12.194  23.046  0.00  0.00    +0.000 C 
BRANCH   5   6
ATOM      6  C   UNL     1      -3.515  12.953  22.919  0.00  0.00    +0.000 A 
ATOM      7  C   UNL     1      -3.802  14.027  23.771  0.00  0.00    +0.000 A 
ATOM      8  C   UNL     1      -5.058  14.633  23.792  0.00  0.00    +0.000 A 
ATOM      9  C   UNL     1      -6.045  14.227  22.901  0.00  0.00    +0.000 A 
ATOM     10  C   UNL     1      -5.747  13.248  21.956  0.00  0.00    +0.000 A 
ATOM     11  C   UNL     1      -4.494  12.620  21.963  0.00  0.00    +0.000 A 
ENDBRANCH   5   6
ENDBRANCH   4   5
BRANCH   4  12
ATOM     12  C   UNL     1      -0.364  10.782  21.929  0.00  0.00    +0.000 C 
BRANCH  12  13
ATOM     13  C   UNL     1      -0.812   9.978  23.187  0.00  0.00    +0.000 C 
BRANCH  13  14
ATOM     14  O   UNL     1       0.202   9.599  24.102  0.00  0.00    +0.000 OA
ATOM     15  H   UNL     1      -0.064   8.765  24.524  0.00  0.00    +0.000 HD
ENDBRANCH  13  14
ENDBRANCH  12  13
BRANCH  12  16
ATOM     16  C   UNL     1      -0.274   9.865  20.660  0.00  0.00    +0.000 C 
BRANCH  16  18
ATOM     17  C   UNL     1       1.353   7.897  20.852  0.00  0.00    +0.000 C 
ATOM     18  C   UNL     1       1.115   9.294  20.254  0.00  0.00    +0.000 C 
ATOM     19  C   UNL     1       1.273   9.220  18.735  0.00  0.00    +0.000 C 
ENDBRANCH  16  18
ENDBRANCH  12  16
ENDBRANCH   4  12
ENDBRANCH   1   4
BRANCH   1  20
ATOM     20  N   UNL     1       0.131  13.014  19.641  0.00  0.00    +0.000 NA
BRANCH  20  21
ATOM     21  C   UNL     1      -0.802  13.150  18.456  0.00  0.00    +0.000 C 
BRANCH  21  22
ATOM     22  C   UNL     1      -1.800  12.044  18.116  0.00  0.00    +0.000 A 
ATOM     23  C   UNL     1      -3.113  11.979  18.601  0.00  0.00    +0.000 A 
ATOM     24  C   UNL     1      -3.954  10.895  18.346  0.00  0.00    +0.000 A 
ATOM     25  C   UNL     1      -3.510   9.851  17.549  0.00  0.00    +0.000 A 
ATOM     26  C   UNL     1      -2.220   9.892  17.026  0.00  0.00    +0.000 A 
ATOM     27  C   UNL     1      -1.373  10.971  17.307  0.00  0.00    +0.000 A 
ENDBRANCH  21  22
ENDBRANCH  20  21
BRANCH  20  28
ATOM     28  C   UNL     1       1.511  13.739  19.428  0.00  0.00    +0.000 C 
BRANCH  28  29
ATOM     29  C   UNL     1       2.436  12.806  18.616  0.00  0.00    +0.000 C 
BRANCH  29  30
ATOM     30  O   UNL     1       3.202  13.559  17.674  0.00  0.00    +0.000 OA
ATOM     31  H   UNL     1       3.229  14.467  18.024  0.00  0.00    +0.000 HD
ENDBRANCH  29  30
ENDBRANCH  28  29
BRANCH  28  32
ATOM     32  C   UNL     1       1.420  15.147  18.740  0.00  0.00    +0.000 C 
BRANCH  32  33
ATOM     33  C   UNL     1       1.535  16.369  19.703  0.00  0.00    +0.000 C 
ATOM     34  C   UNL     1       2.842  16.334  20.509  0.00  0.00    +0.000 C 
ATOM     35  C   UNL     1       1.446  17.705  18.956  0.00  0.00    +0.000 C 
ENDBRANCH  32  33
ENDBRANCH  28  32
ENDBRANCH  20  28
ENDBRANCH   1  20
TORSDOF 16
ENDMDL
MODEL 6
REMARK VINA RESULT:      -5.2      2.370      4.964
REMARK  Name = 
REMARK  20 active torsions:
REMARK  status: ('A' for Active; 'I' for Inactive)
REMARK    1  A    between atoms: C_1  and  C_2
REMARK    2  A    between atoms: C_2  and  C_3
REMARK    3  A    between atoms: C_2  and  C_4
REMARK    4  A    between atoms: C_4  and  C_5
REMARK    5  A    between atoms: C_5  and  C_6
REMARK    6  A    between atoms: C_5  and  N_8
REMARK    7  A    between atoms: C_6  and  O_7
REMARK    8  A    between atoms: N_8  and  C_9
REMARK    9  A    between atoms: N_8  and  S_16
REMARK   10  A    between atoms: C_9  and  C_10
REMARK   11  A    between atoms: S_16  and  N_19
REMARK   12  A    between atoms: N_19  and  C_20
REMARK   13  A    between atoms: N_19  and  C_27
REMARK   14  A    between atoms: C_20  and  C_21
REMARK   15  A    between atoms: C_27  and  C_28
REMARK   16  A    between atoms: C_27  and  C_30
REMARK   17  A    between atoms: C_28  and  O_29
REMARK   18  A    between atoms: C_30  and  C_31
REMARK   19  A    between atoms: C_31  and  C_32
REMARK   20  A    between atoms: C_31  and  C_33
REMARK                            x       y       z     vdW  Elec       q    Type
REMARK                         _______ _______ _______ _____ _____    ______ ____
ROOT
ATOM      1  S   UNL     1       0.606  13.656  20.168  0.00  0.00    +0.000 S 
ATOM      2  O   UNL     1       1.564  13.103  21.092  0.00  0.00    +0.000 OA
ATOM      3  O   UNL     1       1.019  14.024  18.835  0.00  0.00    +0.000 OA
ENDROOT
BRANCH   1   4
ATOM      4  N   UNL     1      -0.671  12.554  20.041  0.00  0.00    +0.000 NA
BRANCH   4   5
ATOM      5  C   UNL     1      -1.051  11.804  21.310  0.00  0.00    +0.000 C 
BRANCH   5   6
ATOM      6  C   UNL     1      -2.359  12.165  22.012  0.00  0.00    +0.000 A 
ATOM      7  C   UNL     1      -3.396  12.789  21.307  0.00  0.00    +0.000 A 
ATOM      8  C   UNL     1      -4.532  13.278  21.951  0.00  0.00    +0.000 A 
ATOM      9  C   UNL     1      -4.696  13.089  23.318  0.00  0.00    +0.000 A 
ATOM     10  C   UNL     1      -3.741  12.360  24.023  0.00  0.00    +0.000 A 
ATOM     11  C   UNL     1      -2.586  11.900  23.376  0.00  0.00    +0.000 A 
ENDBRANCH   5   6
ENDBRANCH   4   5
BRANCH   4  12
ATOM     12  C   UNL     1      -0.656  11.608  18.779  0.00  0.00    +0.000 C 
BRANCH  12  13
ATOM     13  C   UNL     1       0.524  10.609  18.973  0.00  0.00    +0.000 C 
BRANCH  13  14
ATOM     14  O   UNL     1       1.009   9.954  17.812  0.00  0.00    +0.000 OA
ATOM     15  H   UNL     1       0.515  10.288  17.044  0.00  0.00    +0.000 HD
ENDBRANCH  13  14
ENDBRANCH  12  13
BRANCH  12  16
ATOM     16  C   UNL     1      -2.000  10.861  18.472  0.00  0.00    +0.000 C 
BRANCH  16  18
ATOM     17  C   UNL     1      -2.613   9.993  16.142  0.00  0.00    +0.000 C 
ATOM     18  C   UNL     1      -2.729  11.165  17.132  0.00  0.00    +0.000 C 
ATOM     19  C   UNL     1      -4.207  11.487  17.353  0.00  0.00    +0.000 C 
ENDBRANCH  16  18
ENDBRANCH  12  16
ENDBRANCH   4  12
ENDBRANCH   1   4
BRANCH   1  20
ATOM     20  N   UNL     1      -0.031  15.153  20.837  0.00  0.00    +0.000 NA
BRANCH  20  21
ATOM     21  C   UNL     1       0.038  15.179  22.350  0.00  0.00    +0.000 C 
BRANCH  21  22
ATOM     22  C   UNL     1      -1.205  15.486  23.184  0.00  0.00    +0.000 A 
ATOM     23  C   UNL     1      -2.332  16.172  22.712  0.00  0.00    +0.000 A 
ATOM     24  C   UNL     1      -3.400  16.520  23.540  0.00  0.00    +0.000 A 
ATOM     25  C   UNL     1      -3.386  16.146  24.875  0.00  0.00    +0.000 A 
ATOM     26  C   UNL     1      -2.296  15.439  25.375  0.00  0.00    +0.000 A 
ATOM     27  C   UNL     1      -1.217  15.115  24.544  0.00  0.00    +0.000 A 
ENDBRANCH  21  22
ENDBRANCH  20  21
BRANCH  20  28
ATOM     28  C   UNL     1       0.569  16.444  20.169  0.00  0.00    +0.000 C 
BRANCH  28  29
ATOM     29  C   UNL     1       2.106  16.409  20.322  0.00  0.00    +0.000 C 
BRANCH  29  30
ATOM     30  O   UNL     1       2.734  16.352  19.041  0.00  0.00    +0.000 OA
ATOM     31  H   UNL     1       3.526  16.915  19.111  0.00  0.00    +0.000 HD
ENDBRANCH  29  30
ENDBRANCH  28  29
BRANCH  28  32
ATOM     32  C   UNL     1       0.178  16.653  18.663  0.00  0.00    +0.000 C 
BRANCH  32  33
ATOM     33  C   UNL     1      -0.115  18.129  18.248  0.00  0.00    +0.000 C 
ATOM     34  C   UNL     1       0.531  18.476  16.899  0.00  0.00    +0.000 C 
ATOM     35  C   UNL     1      -1.618  18.421  18.171  0.00  0.00    +0.000 C 
ENDBRANCH  32  33
ENDBRANCH  28  32
ENDBRANCH  20  28
ENDBRANCH   1  20
TORSDOF 16
ENDMDL
MODEL 7
REMARK VINA RESULT:      -5.2      2.812      5.930
REMARK  Name = 
REMARK  20 active torsions:
REMARK  status: ('A' for Active; 'I' for Inactive)
REMARK    1  A    between atoms: C_1  and  C_2
REMARK    2  A    between atoms: C_2  and  C_3
REMARK    3  A    between atoms: C_2  and  C_4
REMARK    4  A    between atoms: C_4  and  C_5
REMARK    5  A    between atoms: C_5  and  C_6
REMARK    6  A    between atoms: C_5  and  N_8
REMARK    7  A    between atoms: C_6  and  O_7
REMARK    8  A    between atoms: N_8  and  C_9
REMARK    9  A    between atoms: N_8  and  S_16
REMARK   10  A    between atoms: C_9  and  C_10
REMARK   11  A    between atoms: S_16  and  N_19
REMARK   12  A    between atoms: N_19  and  C_20
REMARK   13  A    between atoms: N_19  and  C_27
REMARK   14  A    between atoms: C_20  and  C_21
REMARK   15  A    between atoms: C_27  and  C_28
REMARK   16  A    between atoms: C_27  and  C_30
REMARK   17  A    between atoms: C_28  and  O_29
REMARK   18  A    between atoms: C_30  and  C_31
REMARK   19  A    between atoms: C_31  and  C_32
REMARK   20  A    between atoms: C_31  and  C_33
REMARK                            x       y       z     vdW  Elec       q    Type
REMARK                         _______ _______ _______ _____ _____    ______ ____
ROOT
ATOM      1  S   UNL     1       0.592  12.902  21.322  0.00  0.00    +0.000 S 
ATOM      2  O   UNL     1       0.183  13.626  22.500  0.00  0.00    +0.000 OA
ATOM      3  O   UNL     1       1.763  12.061  21.362  0.00  0.00    +0.000 OA
ENDROOT
BRANCH   1   4
ATOM      4  N   UNL     1      -0.721  11.958  20.825  0.00  0.00    +0.000 NA
BRANCH   4   5
ATOM      5  C   UNL     1      -1.624  12.556  19.755  0.00  0.00    +0.000 C 
BRANCH   5   6
ATOM      6  C   UNL     1      -2.258  11.624  18.725  0.00  0.00    +0.000 A 
ATOM      7  C   UNL     1      -1.486  10.653  18.074  0.00  0.00    +0.000 A 
ATOM      8  C   UNL     1      -1.993   9.900  17.015  0.00  0.00    +0.000 A 
ATOM      9  C   UNL     1      -3.319  10.047  16.625  0.00  0.00    +0.000 A 
ATOM     10  C   UNL     1      -4.145  10.913  17.337  0.00  0.00    +0.000 A 
ATOM     11  C   UNL     1      -3.622  11.691  18.378  0.00  0.00    +0.000 A 
ENDBRANCH   5   6
ENDBRANCH   4   5
BRANCH   4  12
ATOM     12  C   UNL     1      -1.549  11.255  21.969  0.00  0.00    +0.000 C 
BRANCH  12  13
ATOM     13  C   UNL     1      -0.735  10.005  22.419  0.00  0.00    +0.000 C 
BRANCH  13  14
ATOM     14  O   UNL     1       0.183  10.185  23.484  0.00  0.00    +0.000 OA
ATOM     15  H   UNL     1       1.077  10.253  23.108  0.00  0.00    +0.000 HD
ENDBRANCH  13  14
ENDBRANCH  12  13
BRANCH  12  16
ATOM     16  C   UNL     1      -1.933  12.164  23.188  0.00  0.00    +0.000 C 
BRANCH  16  18
ATOM     17  C   UNL     1      -3.637  13.605  24.443  0.00  0.00    +0.000 C 
ATOM     18  C   UNL     1      -3.439  12.429  23.471  0.00  0.00    +0.000 C 
ATOM     19  C   UNL     1      -4.214  12.709  22.183  0.00  0.00    +0.000 C 
ENDBRANCH  16  18
ENDBRANCH  12  16
ENDBRANCH   4  12
ENDBRANCH   1   4
BRANCH   1  20
ATOM     20  N   UNL     1       0.948  14.055  20.042  0.00  0.00    +0.000 NA
BRANCH  20  21
ATOM     21  C   UNL     1       0.745  15.488  20.489  0.00  0.00    +0.000 C 
BRANCH  21  22
ATOM     22  C   UNL     1      -0.164  16.431  19.702  0.00  0.00    +0.000 A 
ATOM     23  C   UNL     1      -0.019  16.725  18.340  0.00  0.00    +0.000 A 
ATOM     24  C   UNL     1      -0.810  17.672  17.689  0.00  0.00    +0.000 A 
ATOM     25  C   UNL     1      -1.813  18.329  18.386  0.00  0.00    +0.000 A 
ATOM     26  C   UNL     1      -2.006  18.044  19.736  0.00  0.00    +0.000 A 
ATOM     27  C   UNL     1      -1.191  17.110  20.388  0.00  0.00    +0.000 A 
ENDBRANCH  21  22
ENDBRANCH  20  21
BRANCH  20  28
ATOM     28  C   UNL     1       2.340  13.814  19.351  0.00  0.00    +0.000 C 
BRANCH  28  29
ATOM     29  C   UNL     1       2.101  13.127  17.988  0.00  0.00    +0.000 C 
BRANCH  29  30
ATOM     30  O   UNL     1       1.933  11.720  18.161  0.00  0.00    +0.000 OA
ATOM     31  H   UNL     1       2.739  11.312  17.797  0.00  0.00    +0.000 HD
ENDBRANCH  29  30
ENDBRANCH  28  29
BRANCH  28  32
ATOM     32  C   UNL     1       3.217  15.102  19.163  0.00  0.00    +0.000 C 
BRANCH  32  33
ATOM     33  C   UNL     1       3.794  15.314  17.728  0.00  0.00    +0.000 C 
ATOM     34  C   UNL     1       3.364  16.666  17.140  0.00  0.00    +0.000 C 
ATOM     35  C   UNL     1       5.323  15.221  17.699  0.00  0.00    +0.000 C 
ENDBRANCH  32  33
ENDBRANCH  28  32
ENDBRANCH  20  28
ENDBRANCH   1  20
TORSDOF 16
ENDMDL
MODEL 8
REMARK VINA RESULT:      -5.2      2.327      4.703
REMARK  Name = 
REMARK  20 active torsions:
REMARK  status: ('A' for Active; 'I' for Inactive)
REMARK    1  A    between atoms: C_1  and  C_2
REMARK    2  A    between atoms: C_2  and  C_3
REMARK    3  A    between atoms: C_2  and  C_4
REMARK    4  A    between atoms: C_4  and  C_5
REMARK    5  A    between atoms: C_5  and  C_6
REMARK    6  A    between atoms: C_5  and  N_8
REMARK    7  A    between atoms: C_6  and  O_7
REMARK    8  A    between atoms: N_8  and  C_9
REMARK    9  A    between atoms: N_8  and  S_16
REMARK   10  A    between atoms: C_9  and  C_10
REMARK   11  A    between atoms: S_16  and  N_19
REMARK   12  A    between atoms: N_19  and  C_20
REMARK   13  A    between atoms: N_19  and  C_27
REMARK   14  A    between atoms: C_20  and  C_21
REMARK   15  A    between atoms: C_27  and  C_28
REMARK   16  A    between atoms: C_27  and  C_30
REMARK   17  A    between atoms: C_28  and  O_29
REMARK   18  A    between atoms: C_30  and  C_31
REMARK   19  A    between atoms: C_31  and  C_32
REMARK   20  A    between atoms: C_31  and  C_33
REMARK                            x       y       z     vdW  Elec       q    Type
REMARK                         _______ _______ _______ _____ _____    ______ ____
ROOT
ATOM      1  S   UNL     1       0.437  13.380  20.651  0.00  0.00    +0.000 S 
ATOM      2  O   UNL     1       1.455  13.045  21.615  0.00  0.00    +0.000 OA
ATOM      3  O   UNL     1       0.758  13.408  19.245  0.00  0.00    +0.000 OA
ENDROOT
BRANCH   1   4
ATOM      4  N   UNL     1      -0.850  12.306  20.879  0.00  0.00    +0.000 NA
BRANCH   4   5
ATOM      5  C   UNL     1      -2.093  12.543  20.031  0.00  0.00    +0.000 C 
BRANCH   5   6
ATOM      6  C   UNL     1      -2.400  11.575  18.891  0.00  0.00    +0.000 A 
ATOM      7  C   UNL     1      -1.425  10.674  18.442  0.00  0.00    +0.000 A 
ATOM      8  C   UNL     1      -1.615   9.894  17.302  0.00  0.00    +0.000 A 
ATOM      9  C   UNL     1      -2.824   9.940  16.617  0.00  0.00    +0.000 A 
ATOM     10  C   UNL     1      -3.857  10.731  17.114  0.00  0.00    +0.000 A 
ATOM     11  C   UNL     1      -3.648  11.538  18.241  0.00  0.00    +0.000 A 
ENDBRANCH   5   6
ENDBRANCH   4   5
BRANCH   4  12
ATOM     12  C   UNL     1      -1.214  11.957  22.373  0.00  0.00    +0.000 C 
BRANCH  12  13
ATOM     13  C   UNL     1      -2.747  12.188  22.535  0.00  0.00    +0.000 C 
BRANCH  13  14
ATOM     14  O   UNL     1      -3.301  11.944  23.817  0.00  0.00    +0.000 OA
ATOM     15  H   UNL     1      -4.269  11.917  23.731  0.00  0.00    +0.000 HD
ENDBRANCH  13  14
ENDBRANCH  12  13
BRANCH  12  16
ATOM     16  C   UNL     1      -0.791  10.528  22.861  0.00  0.00    +0.000 C 
BRANCH  16  18
ATOM     17  C   UNL     1       1.441   9.318  22.529  0.00  0.00    +0.000 C 
ATOM     18  C   UNL     1       0.071   9.645  21.912  0.00  0.00    +0.000 C 
ATOM     19  C   UNL     1      -0.641   8.340  21.555  0.00  0.00    +0.000 C 
ENDBRANCH  16  18
ENDBRANCH  12  16
ENDBRANCH   4  12
ENDBRANCH   1   4
BRANCH   1  20
ATOM     20  N   UNL     1      -0.146  15.006  20.981  0.00  0.00    +0.000 NA
BRANCH  20  21
ATOM     21  C   UNL     1      -0.016  15.375  22.444  0.00  0.00    +0.000 C 
BRANCH  21  22
ATOM     22  C   UNL     1      -1.251  15.478  23.337  0.00  0.00    +0.000 A 
ATOM     23  C   UNL     1      -1.289  15.117  24.691  0.00  0.00    +0.000 A 
ATOM     24  C   UNL     1      -2.467  15.131  25.438  0.00  0.00    +0.000 A 
ATOM     25  C   UNL     1      -3.650  15.558  24.852  0.00  0.00    +0.000 A 
ATOM     26  C   UNL     1      -3.647  15.951  23.516  0.00  0.00    +0.000 A 
ATOM     27  C   UNL     1      -2.466  15.910  22.766  0.00  0.00    +0.000 A 
ENDBRANCH  21  22
ENDBRANCH  20  21
BRANCH  20  28
ATOM     28  C   UNL     1       0.450  16.094  20.014  0.00  0.00    +0.000 C 
BRANCH  28  29
ATOM     29  C   UNL     1      -0.643  17.147  19.724  0.00  0.00    +0.000 C 
BRANCH  29  30
ATOM     30  O   UNL     1      -1.241  16.908  18.450  0.00  0.00    +0.000 OA
ATOM     31  H   UNL     1      -1.071  15.969  18.252  0.00  0.00    +0.000 HD
ENDBRANCH  29  30
ENDBRANCH  28  29
BRANCH  28  32
ATOM     32  C   UNL     1       1.756  16.795  20.530  0.00  0.00    +0.000 C 
BRANCH  32  33
ATOM     33  C   UNL     1       2.814  17.129  19.432  0.00  0.00    +0.000 C 
ATOM     34  C   UNL     1       4.246  17.026  19.976  0.00  0.00    +0.000 C 
ATOM     35  C   UNL     1       2.680  16.221  18.204  0.00  0.00    +0.000 C 
ENDBRANCH  32  33
ENDBRANCH  28  32
ENDBRANCH  20  28
ENDBRANCH   1  20
TORSDOF 16
ENDMDL
MODEL 9
REMARK VINA RESULT:      -5.1      2.067      5.999
REMARK  Name = 
REMARK  20 active torsions:
REMARK  status: ('A' for Active; 'I' for Inactive)
REMARK    1  A    between atoms: C_1  and  C_2
REMARK    2  A    between atoms: C_2  and  C_3
REMARK    3  A    between atoms: C_2  and  C_4
REMARK    4  A    between atoms: C_4  and  C_5
REMARK    5  A    between atoms: C_5  and  C_6
REMARK    6  A    between atoms: C_5  and  N_8
REMARK    7  A    between atoms: C_6  and  O_7
REMARK    8  A    between atoms: N_8  and  C_9
REMARK    9  A    between atoms: N_8  and  S_16
REMARK   10  A    between atoms: C_9  and  C_10
REMARK   11  A    between atoms: S_16  and  N_19
REMARK   12  A    between atoms: N_19  and  C_20
REMARK   13  A    between atoms: N_19  and  C_27
REMARK   14  A    between atoms: C_20  and  C_21
REMARK   15  A    between atoms: C_27  and  C_28
REMARK   16  A    between atoms: C_27  and  C_30
REMARK   17  A    between atoms: C_28  and  O_29
REMARK   18  A    between atoms: C_30  and  C_31
REMARK   19  A    between atoms: C_31  and  C_32
REMARK   20  A    between atoms: C_31  and  C_33
REMARK                            x       y       z     vdW  Elec       q    Type
REMARK                         _______ _______ _______ _____ _____    ______ ____
ROOT
ATOM      1  S   UNL     1       0.283  13.183  21.394  0.00  0.00    +0.000 S 
ATOM      2  O   UNL     1      -0.087  14.406  22.061  0.00  0.00    +0.000 OA
ATOM      3  O   UNL     1       1.642  12.704  21.468  0.00  0.00    +0.000 OA
ENDROOT
BRANCH   1   4
ATOM      4  N   UNL     1      -0.741  11.963  21.966  0.00  0.00    +0.000 NA
BRANCH   4   5
ATOM      5  C   UNL     1      -1.499  12.260  23.253  0.00  0.00    +0.000 C 
BRANCH   5   6
ATOM      6  C   UNL     1      -2.884  12.897  23.158  0.00  0.00    +0.000 A 
ATOM      7  C   UNL     1      -3.777  12.510  22.151  0.00  0.00    +0.000 A 
ATOM      8  C   UNL     1      -4.979  13.184  21.936  0.00  0.00    +0.000 A 
ATOM      9  C   UNL     1      -5.356  14.225  22.777  0.00  0.00    +0.000 A 
ATOM     10  C   UNL     1      -4.548  14.548  23.864  0.00  0.00    +0.000 A 
ATOM     11  C   UNL     1      -3.326  13.889  24.055  0.00  0.00    +0.000 A 
ENDBRANCH   5   6
ENDBRANCH   4   5
BRANCH   4  12
ATOM     12  C   UNL     1      -0.160  10.497  21.948  0.00  0.00    +0.000 C 
BRANCH  12  13
ATOM     13  C   UNL     1      -0.625   9.807  23.266  0.00  0.00    +0.000 C 
BRANCH  13  14
ATOM     14  O   UNL     1       0.385   9.443  24.192  0.00  0.00    +0.000 OA
ATOM     15  H   UNL     1       0.240   9.941  25.014  0.00  0.00    +0.000 HD
ENDBRANCH  13  14
ENDBRANCH  12  13
BRANCH  12  16
ATOM     16  C   UNL     1      -0.520   9.637  20.687  0.00  0.00    +0.000 C 
BRANCH  16  18
ATOM     17  C   UNL     1       1.475  10.039  19.134  0.00  0.00    +0.000 C 
ATOM     18  C   UNL     1       0.637   8.986  19.878  0.00  0.00    +0.000 C 
ATOM     19  C   UNL     1       1.557   8.158  20.776  0.00  0.00    +0.000 C 
ENDBRANCH  16  18
ENDBRANCH  12  16
ENDBRANCH   4  12
ENDBRANCH   1   4
BRANCH   1  20
ATOM     20  N   UNL     1      -0.002  13.368  19.668  0.00  0.00    +0.000 NA
BRANCH  20  21
ATOM     21  C   UNL     1      -1.478  13.379  19.329  0.00  0.00    +0.000 C 
BRANCH  21  22
ATOM     22  C   UNL     1      -2.118  12.210  18.582  0.00  0.00    +0.000 A 
ATOM     23  C   UNL     1      -3.462  11.831  18.695  0.00  0.00    +0.000 A 
ATOM     24  C   UNL     1      -3.976  10.693  18.073  0.00  0.00    +0.000 A 
ATOM     25  C   UNL     1      -3.153   9.915  17.272  0.00  0.00    +0.000 A 
ATOM     26  C   UNL     1      -1.817  10.275  17.113  0.00  0.00    +0.000 A 
ATOM     27  C   UNL     1      -1.303  11.404  17.761  0.00  0.00    +0.000 A 
ENDBRANCH  21  22
ENDBRANCH  20  21
BRANCH  20  28
ATOM     28  C   UNL     1       0.788  14.567  19.027  0.00  0.00    +0.000 C 
BRANCH  28  29
ATOM     29  C   UNL     1       1.899  13.995  18.118  0.00  0.00    +0.000 C 
BRANCH  29  30
ATOM     30  O   UNL     1       2.883  14.993  17.843  0.00  0.00    +0.000 OA
ATOM     31  H   UNL     1       2.502  15.832  18.160  0.00  0.00    +0.000 HD
ENDBRANCH  29  30
ENDBRANCH  28  29
BRANCH  28  32
ATOM     32  C   UNL     1      -0.094  15.590  18.229  0.00  0.00    +0.000 C 
BRANCH  32  33
ATOM     33  C   UNL     1      -0.215  17.009  18.867  0.00  0.00    +0.000 C 
ATOM     34  C   UNL     1      -1.626  17.265  19.415  0.00  0.00    +0.000 C 
ATOM     35  C   UNL     1       0.804  17.227  19.992  0.00  0.00    +0.000 C 
ENDBRANCH  32  33
ENDBRANCH  28  32
ENDBRANCH  20  28
ENDBRANCH   1  20
TORSDOF 16
ENDMDL
