MODEL 1
REMARK VINA RESULT:      -8.8      0.000      0.000
REMARK  Name = 
REMARK  7 active torsions:
REMARK  status: ('A' for Active; 'I' for Inactive)
REMARK    1  A    between atoms: N_5  and  C_6
REMARK    2  A    between atoms: C_8  and  C_9
REMARK    3  A    between atoms: C_8  and  N_11
REMARK    4  A    between atoms: C_9  and  O_10
REMARK    5  A    between atoms: C_13  and  C_14
REMARK    6  A    between atoms: C_14  and  C_15
REMARK    7  A    between atoms: C_23  and  O_24
REMARK                            x       y       z     vdW  Elec       q    Type
REMARK                         _______ _______ _______ _____ _____    ______ ____
ROOT
ATOM      1  C   UNL     1       5.229   4.355  18.541  0.00  0.00    +0.000 C 
ATOM      2  O   UNL     1       5.396   5.785  18.570  0.00  0.00    +0.000 OA
ATOM      3  C   UNL     1       6.144   6.201  17.389  0.00  0.00    +0.000 C 
ATOM      4  C   UNL     1       6.723   4.913  16.761  0.00  0.00    +0.000 C 
ATOM      5  C   UNL     1       5.745   3.845  17.191  0.00  0.00    +0.000 C 
ATOM      6  F   UNL     1       4.747   3.814  16.259  0.00  0.00    +0.000 F 
ENDROOT
BRANCH   1  11
ATOM      7  N   UNL     1       0.185   2.246  19.223  0.00  0.00    +0.000 N 
ATOM      8  C   UNL     1       1.421   2.811  19.079  0.00  0.00    +0.000 A 
ATOM      9  C   UNL     1       1.561   4.030  18.263  0.00  0.00    +0.000 A 
ATOM     10  C   UNL     1       2.783   4.553  18.198  0.00  0.00    +0.000 A 
ATOM     11  N   UNL     1       3.856   3.948  18.815  0.00  0.00    +0.000 N 
ATOM     12  C   UNL     1       3.693   2.753  19.523  0.00  0.00    +0.000 A 
ATOM     13  O   UNL     1       4.673   2.157  19.971  0.00  0.00    +0.000 OA
ATOM     14  N   UNL     1       2.424   2.240  19.680  0.00  0.00    +0.000 NA
ATOM     15  H   UNL     1      -0.630   2.834  19.099  0.00  0.00    +0.000 HD
ATOM     16  H   UNL     1       0.121   1.608  20.011  0.00  0.00    +0.000 HD
ENDBRANCH   1  11
BRANCH   3  17
ATOM     17  N   UNL     1       7.201   7.169  17.743  0.00  0.00    +0.000 N 
ATOM     18  C   UNL     1       7.283   8.480  17.337  0.00  0.00    +0.000 A 
ATOM     19  C   UNL     1       8.273   9.031  18.122  0.00  0.00    +0.000 A 
ATOM     20  N   UNL     1       8.793   8.044  18.919  0.00  0.00    +0.000 NA
ATOM     21  N   UNL     1       8.133   6.914  18.683  0.00  0.00    +0.000 NA
BRANCH  19  22
ATOM     22  C   UNL     1       8.790  10.436  18.164  0.00  0.00    +0.000 C 
BRANCH  22  23
ATOM     23  C   UNL     1       9.979  10.645  19.135  0.00  0.00    +0.000 C 
ATOM     24  C   UNL     1      11.101  11.527  18.562  0.00  0.00    +0.000 C 
ATOM     25  C   UNL     1      10.741  13.010  18.489  0.00  0.00    +0.000 C 
ATOM     26  C   UNL     1      10.210  13.566  19.806  0.00  0.00    +0.000 C 
ATOM     27  C   UNL     1       9.141  12.689  20.448  0.00  0.00    +0.000 C 
ATOM     28  C   UNL     1       9.530  11.214  20.494  0.00  0.00    +0.000 C 
ENDBRANCH  22  23
ENDBRANCH  19  22
ENDBRANCH   3  17
BRANCH   4  29
ATOM     29  O   UNL     1       8.055   4.569  17.159  0.00  0.00    +0.000 OA
ATOM     30  H   UNL     1       8.100   3.662  17.514  0.00  0.00    +0.000 HD
ENDBRANCH   4  29
BRANCH   3  31
ATOM     31  C   UNL     1       5.141   6.950  16.460  0.00  0.00    +0.000 C 
BRANCH  31  32
ATOM     32  O   UNL     1       5.249   6.695  15.061  0.00  0.00    +0.000 OA
ATOM     33  H   UNL     1       4.996   5.776  14.851  0.00  0.00    +0.000 HD
ENDBRANCH  31  32
ENDBRANCH   3  31
TORSDOF 7
ENDMDL
MODEL 2
REMARK VINA RESULT:      -8.1      0.966      1.100
REMARK  Name = 
REMARK  7 active torsions:
REMARK  status: ('A' for Active; 'I' for Inactive)
REMARK    1  A    between atoms: N_5  and  C_6
REMARK    2  A    between atoms: C_8  and  C_9
REMARK    3  A    between atoms: C_8  and  N_11
REMARK    4  A    between atoms: C_9  and  O_10
REMARK    5  A    between atoms: C_13  and  C_14
REMARK    6  A    between atoms: C_14  and  C_15
REMARK    7  A    between atoms: C_23  and  O_24
REMARK                            x       y       z     vdW  Elec       q    Type
REMARK                         _______ _______ _______ _____ _____    ______ ____
ROOT
ATOM      1  C   UNL     1       5.228   4.251  18.333  0.00  0.00    +0.000 C 
ATOM      2  O   UNL     1       5.398   5.673  18.480  0.00  0.00    +0.000 OA
ATOM      3  C   UNL     1       6.107   6.191  17.316  0.00  0.00    +0.000 C 
ATOM      4  C   UNL     1       6.663   4.964  16.559  0.00  0.00    +0.000 C 
ATOM      5  C   UNL     1       5.698   3.861  16.927  0.00  0.00    +0.000 C 
ATOM      6  F   UNL     1       4.669   3.910  16.030  0.00  0.00    +0.000 F 
ENDROOT
BRANCH   1  11
ATOM      7  N   UNL     1       0.240   2.677  20.064  0.00  0.00    +0.000 N 
ATOM      8  C   UNL     1       1.462   3.060  19.587  0.00  0.00    +0.000 A 
ATOM      9  C   UNL     1       2.294   2.075  18.874  0.00  0.00    +0.000 A 
ATOM     10  C   UNL     1       3.453   2.524  18.399  0.00  0.00    +0.000 A 
ATOM     11  N   UNL     1       3.864   3.820  18.616  0.00  0.00    +0.000 N 
ATOM     12  C   UNL     1       3.075   4.705  19.357  0.00  0.00    +0.000 A 
ATOM     13  O   UNL     1       3.500   5.824  19.647  0.00  0.00    +0.000 OA
ATOM     14  N   UNL     1       1.832   4.292  19.784  0.00  0.00    +0.000 NA
ATOM     15  H   UNL     1      -0.221   1.889  19.627  0.00  0.00    +0.000 HD
ATOM     16  H   UNL     1      -0.376   3.457  20.271  0.00  0.00    +0.000 HD
ENDBRANCH   1  11
BRANCH   3  17
ATOM     17  N   UNL     1       7.177   7.126  17.717  0.00  0.00    +0.000 N 
ATOM     18  C   UNL     1       7.309   8.438  17.328  0.00  0.00    +0.000 A 
ATOM     19  C   UNL     1       8.285   8.954  18.153  0.00  0.00    +0.000 A 
ATOM     20  N   UNL     1       8.750   7.945  18.958  0.00  0.00    +0.000 NA
ATOM     21  N   UNL     1       8.068   6.836  18.686  0.00  0.00    +0.000 NA
BRANCH  19  22
ATOM     22  C   UNL     1       8.839  10.343  18.230  0.00  0.00    +0.000 C 
BRANCH  22  23
ATOM     23  C   UNL     1       9.950  10.525  19.293  0.00  0.00    +0.000 C 
ATOM     24  C   UNL     1      11.131  11.387  18.815  0.00  0.00    +0.000 C 
ATOM     25  C   UNL     1      10.807  12.878  18.720  0.00  0.00    +0.000 C 
ATOM     26  C   UNL     1      10.184  13.440  19.993  0.00  0.00    +0.000 C 
ATOM     27  C   UNL     1       9.050  12.583  20.544  0.00  0.00    +0.000 C 
ATOM     28  C   UNL     1       9.405  11.100  20.614  0.00  0.00    +0.000 C 
ENDBRANCH  22  23
ENDBRANCH  19  22
ENDBRANCH   3  17
BRANCH   4  29
ATOM     29  O   UNL     1       8.007   4.587  16.881  0.00  0.00    +0.000 OA
ATOM     30  H   UNL     1       8.031   3.902  17.573  0.00  0.00    +0.000 HD
ENDBRANCH   4  29
BRANCH   3  31
ATOM     31  C   UNL     1       5.075   7.017  16.489  0.00  0.00    +0.000 C 
BRANCH  31  32
ATOM     32  O   UNL     1       5.123   6.869  15.071  0.00  0.00    +0.000 OA
ATOM     33  H   UNL     1       5.362   5.957  14.821  0.00  0.00    +0.000 HD
ENDBRANCH  31  32
ENDBRANCH   3  31
TORSDOF 7
ENDMDL
MODEL 3
REMARK VINA RESULT:      -7.4      7.301      9.881
REMARK  Name = 
REMARK  7 active torsions:
REMARK  status: ('A' for Active; 'I' for Inactive)
REMARK    1  A    between atoms: N_5  and  C_6
REMARK    2  A    between atoms: C_8  and  C_9
REMARK    3  A    between atoms: C_8  and  N_11
REMARK    4  A    between atoms: C_9  and  O_10
REMARK    5  A    between atoms: C_13  and  C_14
REMARK    6  A    between atoms: C_14  and  C_15
REMARK    7  A    between atoms: C_23  and  O_24
REMARK                            x       y       z     vdW  Elec       q    Type
REMARK                         _______ _______ _______ _____ _____    ______ ____
ROOT
ATOM      1  C   UNL     1      -1.465  11.300  17.812  0.00  0.00    +0.000 C 
ATOM      2  O   UNL     1      -0.988  10.037  18.315  0.00  0.00    +0.000 OA
ATOM      3  C   UNL     1       0.178  10.270  19.159  0.00  0.00    +0.000 C 
ATOM      4  C   UNL     1       0.614  11.732  18.910  0.00  0.00    +0.000 C 
ATOM      5  C   UNL     1      -0.670  12.414  18.502  0.00  0.00    +0.000 C 
ATOM      6  F   UNL     1      -1.289  12.826  19.648  0.00  0.00    +0.000 F 
ENDROOT
BRANCH   1  11
ATOM      7  N   UNL     1      -6.857  12.420  17.966  0.00  0.00    +0.000 N 
ATOM      8  C   UNL     1      -5.527  12.104  17.961  0.00  0.00    +0.000 A 
ATOM      9  C   UNL     1      -4.749  12.258  19.202  0.00  0.00    +0.000 A 
ATOM     10  C   UNL     1      -3.470  11.893  19.140  0.00  0.00    +0.000 A 
ATOM     11  N   UNL     1      -2.907  11.453  17.963  0.00  0.00    +0.000 N 
ATOM     12  C   UNL     1      -3.663  11.387  16.789  0.00  0.00    +0.000 A 
ATOM     13  O   UNL     1      -3.126  11.105  15.717  0.00  0.00    +0.000 OA
ATOM     14  N   UNL     1      -5.009  11.674  16.847  0.00  0.00    +0.000 NA
ATOM     15  H   UNL     1      -7.353  12.394  18.848  0.00  0.00    +0.000 HD
ATOM     16  H   UNL     1      -7.371  12.020  17.187  0.00  0.00    +0.000 HD
ENDBRANCH   1  11
BRANCH   3  17
ATOM     17  N   UNL     1       1.257   9.310  18.851  0.00  0.00    +0.000 N 
ATOM     18  C   UNL     1       1.665   8.256  19.634  0.00  0.00    +0.000 A 
ATOM     19  C   UNL     1       2.496   7.515  18.822  0.00  0.00    +0.000 A 
ATOM     20  N   UNL     1       2.614   8.161  17.618  0.00  0.00    +0.000 NA
ATOM     21  N   UNL     1       1.854   9.252  17.645  0.00  0.00    +0.000 NA
BRANCH  19  22
ATOM     22  C   UNL     1       3.218   6.233  19.104  0.00  0.00    +0.000 C 
BRANCH  22  23
ATOM     23  C   UNL     1       2.289   5.005  19.265  0.00  0.00    +0.000 C 
ATOM     24  C   UNL     1       1.830   4.395  17.930  0.00  0.00    +0.000 C 
ATOM     25  C   UNL     1       2.926   3.625  17.195  0.00  0.00    +0.000 C 
ATOM     26  C   UNL     1       3.624   2.590  18.071  0.00  0.00    +0.000 C 
ATOM     27  C   UNL     1       4.039   3.130  19.435  0.00  0.00    +0.000 C 
ATOM     28  C   UNL     1       2.923   3.903  20.133  0.00  0.00    +0.000 C 
ENDBRANCH  22  23
ENDBRANCH  19  22
ENDBRANCH   3  17
BRANCH   4  29
ATOM     29  O   UNL     1       1.625  11.921  17.914  0.00  0.00    +0.000 OA
ATOM     30  H   UNL     1       1.270  12.366  17.123  0.00  0.00    +0.000 HD
ENDBRANCH   4  29
BRANCH   3  31
ATOM     31  C   UNL     1      -0.264   9.994  20.628  0.00  0.00    +0.000 C 
BRANCH  31  32
ATOM     32  O   UNL     1       0.367  10.769  21.645  0.00  0.00    +0.000 OA
ATOM     33  H   UNL     1       0.038  11.687  21.643  0.00  0.00    +0.000 HD
ENDBRANCH  31  32
ENDBRANCH   3  31
TORSDOF 7
ENDMDL
MODEL 4
REMARK VINA RESULT:      -7.3      7.440     10.024
REMARK  Name = 
REMARK  7 active torsions:
REMARK  status: ('A' for Active; 'I' for Inactive)
REMARK    1  A    between atoms: N_5  and  C_6
REMARK    2  A    between atoms: C_8  and  C_9
REMARK    3  A    between atoms: C_8  and  N_11
REMARK    4  A    between atoms: C_9  and  O_10
REMARK    5  A    between atoms: C_13  and  C_14
REMARK    6  A    between atoms: C_14  and  C_15
REMARK    7  A    between atoms: C_23  and  O_24
REMARK                            x       y       z     vdW  Elec       q    Type
REMARK                         _______ _______ _______ _____ _____    ______ ____
ROOT
ATOM      1  C   UNL     1      -1.541  11.367  18.052  0.00  0.00    +0.000 C 
ATOM      2  O   UNL     1      -1.094  10.121  18.618  0.00  0.00    +0.000 OA
ATOM      3  C   UNL     1       0.119  10.357  19.392  0.00  0.00    +0.000 C 
ATOM      4  C   UNL     1       0.602  11.779  19.027  0.00  0.00    +0.000 C 
ATOM      5  C   UNL     1      -0.671  12.489  18.631  0.00  0.00    +0.000 C 
ATOM      6  F   UNL     1      -1.219  13.001  19.772  0.00  0.00    +0.000 F 
ENDROOT
BRANCH   1  11
ATOM      7  N   UNL     1      -6.868  12.738  18.376  0.00  0.00    +0.000 N 
ATOM      8  C   UNL     1      -5.555  12.361  18.331  0.00  0.00    +0.000 A 
ATOM      9  C   UNL     1      -4.717  12.536  19.530  0.00  0.00    +0.000 A 
ATOM     10  C   UNL     1      -3.459  12.111  19.432  0.00  0.00    +0.000 A 
ATOM     11  N   UNL     1      -2.967  11.592  18.255  0.00  0.00    +0.000 N 
ATOM     12  C   UNL     1      -3.776  11.508  17.118  0.00  0.00    +0.000 A 
ATOM     13  O   UNL     1      -3.299  11.153  16.039  0.00  0.00    +0.000 OA
ATOM     14  N   UNL     1      -5.105  11.858  17.218  0.00  0.00    +0.000 NA
ATOM     15  H   UNL     1      -7.326  12.774  19.278  0.00  0.00    +0.000 HD
ATOM     16  H   UNL     1      -7.432  12.327  17.640  0.00  0.00    +0.000 HD
ENDBRANCH   1  11
BRANCH   3  17
ATOM     17  N   UNL     1       1.143   9.333  19.103  0.00  0.00    +0.000 N 
ATOM     18  C   UNL     1       1.555   8.325  19.943  0.00  0.00    +0.000 A 
ATOM     19  C   UNL     1       2.311   7.491  19.148  0.00  0.00    +0.000 A 
ATOM     20  N   UNL     1       2.385   8.039  17.892  0.00  0.00    +0.000 NA
ATOM     21  N   UNL     1       1.668   9.159  17.875  0.00  0.00    +0.000 NA
BRANCH  19  22
ATOM     22  C   UNL     1       2.999   6.206  19.490  0.00  0.00    +0.000 C 
BRANCH  22  23
ATOM     23  C   UNL     1       2.193   4.937  19.121  0.00  0.00    +0.000 C 
ATOM     24  C   UNL     1       3.065   3.764  18.641  0.00  0.00    +0.000 C 
ATOM     25  C   UNL     1       3.855   3.086  19.759  0.00  0.00    +0.000 C 
ATOM     26  C   UNL     1       2.991   2.688  20.951  0.00  0.00    +0.000 C 
ATOM     27  C   UNL     1       2.058   3.798  21.423  0.00  0.00    +0.000 C 
ATOM     28  C   UNL     1       1.294   4.459  20.278  0.00  0.00    +0.000 C 
ENDBRANCH  22  23
ENDBRANCH  19  22
ENDBRANCH   3  17
BRANCH   4  29
ATOM     29  O   UNL     1       1.572  11.858  17.977  0.00  0.00    +0.000 OA
ATOM     30  H   UNL     1       1.652  11.013  17.498  0.00  0.00    +0.000 HD
ENDBRANCH   4  29
BRANCH   3  31
ATOM     31  C   UNL     1      -0.265  10.198  20.895  0.00  0.00    +0.000 C 
BRANCH  31  32
ATOM     32  O   UNL     1       0.387  11.064  21.820  0.00  0.00    +0.000 OA
ATOM     33  H   UNL     1      -0.158  11.202  22.617  0.00  0.00    +0.000 HD
ENDBRANCH  31  32
ENDBRANCH   3  31
TORSDOF 7
ENDMDL
MODEL 5
REMARK VINA RESULT:      -7.2      7.645     10.182
REMARK  Name = 
REMARK  7 active torsions:
REMARK  status: ('A' for Active; 'I' for Inactive)
REMARK    1  A    between atoms: N_5  and  C_6
REMARK    2  A    between atoms: C_8  and  C_9
REMARK    3  A    between atoms: C_8  and  N_11
REMARK    4  A    between atoms: C_9  and  O_10
REMARK    5  A    between atoms: C_13  and  C_14
REMARK    6  A    between atoms: C_14  and  C_15
REMARK    7  A    between atoms: C_23  and  O_24
REMARK                            x       y       z     vdW  Elec       q    Type
REMARK                         _______ _______ _______ _____ _____    ______ ____
ROOT
ATOM      1  C   UNL     1      -0.635  11.718  20.826  0.00  0.00    +0.000 C 
ATOM      2  O   UNL     1       0.702  11.231  20.604  0.00  0.00    +0.000 OA
ATOM      3  C   UNL     1       0.931  11.106  19.169  0.00  0.00    +0.000 C 
ATOM      4  C   UNL     1      -0.451  11.241  18.491  0.00  0.00    +0.000 C 
ATOM      5  C   UNL     1      -1.237  12.087  19.465  0.00  0.00    +0.000 C 
ATOM      6  F   UNL     1      -0.990  13.394  19.153  0.00  0.00    +0.000 F 
ENDROOT
BRANCH   1  11
ATOM      7  N   UNL     1      -1.327  16.110  24.080  0.00  0.00    +0.000 N 
ATOM      8  C   UNL     1      -1.114  15.007  23.301  0.00  0.00    +0.000 A 
ATOM      9  C   UNL     1       0.119  14.922  22.500  0.00  0.00    +0.000 A 
ATOM     10  C   UNL     1       0.283  13.804  21.796  0.00  0.00    +0.000 A 
ATOM     11  N   UNL     1      -0.677  12.818  21.783  0.00  0.00    +0.000 N 
ATOM     12  C   UNL     1      -1.866  12.968  22.503  0.00  0.00    +0.000 A 
ATOM     13  O   UNL     1      -2.769  12.137  22.394  0.00  0.00    +0.000 OA
ATOM     14  N   UNL     1      -2.022  14.074  23.309  0.00  0.00    +0.000 NA
ATOM     15  H   UNL     1      -0.523  16.647  24.381  0.00  0.00    +0.000 HD
ATOM     16  H   UNL     1      -2.025  15.966  24.803  0.00  0.00    +0.000 HD
ENDBRANCH   1  11
BRANCH   3  17
ATOM     17  N   UNL     1       1.585   9.823  18.845  0.00  0.00    +0.000 N 
ATOM     18  C   UNL     1       1.730   8.741  19.681  0.00  0.00    +0.000 A 
ATOM     19  C   UNL     1       2.155   7.717  18.862  0.00  0.00    +0.000 A 
ATOM     20  N   UNL     1       2.311   8.213  17.593  0.00  0.00    +0.000 NA
ATOM     21  N   UNL     1       1.959   9.496  17.592  0.00  0.00    +0.000 NA
BRANCH  19  22
ATOM     22  C   UNL     1       2.451   6.287  19.193  0.00  0.00    +0.000 C 
BRANCH  22  23
ATOM     23  C   UNL     1       2.686   5.386  17.956  0.00  0.00    +0.000 C 
ATOM     24  C   UNL     1       4.013   4.609  17.996  0.00  0.00    +0.000 C 
ATOM     25  C   UNL     1       4.019   3.452  18.993  0.00  0.00    +0.000 C 
ATOM     26  C   UNL     1       2.827   2.513  18.833  0.00  0.00    +0.000 C 
ATOM     27  C   UNL     1       1.492   3.241  18.721  0.00  0.00    +0.000 C 
ATOM     28  C   UNL     1       1.527   4.397  17.725  0.00  0.00    +0.000 C 
ENDBRANCH  22  23
ENDBRANCH  19  22
ENDBRANCH   3  17
BRANCH   4  29
ATOM     29  O   UNL     1      -1.137  10.013  18.222  0.00  0.00    +0.000 OA
ATOM     30  H   UNL     1      -0.603   9.240  18.481  0.00  0.00    +0.000 HD
ENDBRANCH   4  29
BRANCH   3  31
ATOM     31  C   UNL     1       1.932  12.234  18.772  0.00  0.00    +0.000 C 
BRANCH  31  32
ATOM     32  O   UNL     1       2.292  12.316  17.395  0.00  0.00    +0.000 OA
ATOM     33  H   UNL     1       2.668  13.191  17.182  0.00  0.00    +0.000 HD
ENDBRANCH  31  32
ENDBRANCH   3  31
TORSDOF 7
ENDMDL
MODEL 6
REMARK VINA RESULT:      -7.1      7.055      9.779
REMARK  Name = 
REMARK  7 active torsions:
REMARK  status: ('A' for Active; 'I' for Inactive)
REMARK    1  A    between atoms: N_5  and  C_6
REMARK    2  A    between atoms: C_8  and  C_9
REMARK    3  A    between atoms: C_8  and  N_11
REMARK    4  A    between atoms: C_9  and  O_10
REMARK    5  A    between atoms: C_13  and  C_14
REMARK    6  A    between atoms: C_14  and  C_15
REMARK    7  A    between atoms: C_23  and  O_24
REMARK                            x       y       z     vdW  Elec       q    Type
REMARK                         _______ _______ _______ _____ _____    ______ ____
ROOT
ATOM      1  C   UNL     1      -0.904  11.259  18.338  0.00  0.00    +0.000 C 
ATOM      2  O   UNL     1      -0.466   9.965  18.797  0.00  0.00    +0.000 OA
ATOM      3  C   UNL     1       0.880  10.085  19.345  0.00  0.00    +0.000 C 
ATOM      4  C   UNL     1       1.405  11.475  18.921  0.00  0.00    +0.000 C 
ATOM      5  C   UNL     1       0.143  12.292  18.769  0.00  0.00    +0.000 C 
ATOM      6  F   UNL     1      -0.150  12.812  19.997  0.00  0.00    +0.000 F 
ENDROOT
BRANCH   1  11
ATOM      7  N   UNL     1      -5.992  12.975  19.572  0.00  0.00    +0.000 N 
ATOM      8  C   UNL     1      -4.732  12.517  19.305  0.00  0.00    +0.000 A 
ATOM      9  C   UNL     1      -3.662  12.747  20.291  0.00  0.00    +0.000 A 
ATOM     10  C   UNL     1      -2.469  12.239  19.989  0.00  0.00    +0.000 A 
ATOM     11  N   UNL     1      -2.248  11.588  18.796  0.00  0.00    +0.000 N 
ATOM     12  C   UNL     1      -3.274  11.451  17.856  0.00  0.00    +0.000 A 
ATOM     13  O   UNL     1      -3.040  10.973  16.745  0.00  0.00    +0.000 OA
ATOM     14  N   UNL     1      -4.539  11.889  18.181  0.00  0.00    +0.000 NA
ATOM     15  H   UNL     1      -6.255  13.120  20.538  0.00  0.00    +0.000 HD
ATOM     16  H   UNL     1      -6.711  12.534  19.006  0.00  0.00    +0.000 HD
ENDBRANCH   1  11
BRANCH   3  17
ATOM     17  N   UNL     1       1.749   8.993  18.863  0.00  0.00    +0.000 N 
ATOM     18  C   UNL     1       2.134   7.878  19.568  0.00  0.00    +0.000 A 
ATOM     19  C   UNL     1       2.707   7.047  18.630  0.00  0.00    +0.000 A 
ATOM     20  N   UNL     1       2.710   7.695  17.421  0.00  0.00    +0.000 NA
ATOM     21  N   UNL     1       2.122   8.879  17.573  0.00  0.00    +0.000 NA
BRANCH  19  22
ATOM     22  C   UNL     1       3.282   5.673  18.790  0.00  0.00    +0.000 C 
BRANCH  22  23
ATOM     23  C   UNL     1       2.938   4.703  17.634  0.00  0.00    +0.000 C 
ATOM     24  C   UNL     1       3.857   3.472  17.561  0.00  0.00    +0.000 C 
ATOM     25  C   UNL     1       3.601   2.446  18.663  0.00  0.00    +0.000 C 
ATOM     26  C   UNL     1       2.135   2.041  18.779  0.00  0.00    +0.000 C 
ATOM     27  C   UNL     1       1.177   3.227  18.788  0.00  0.00    +0.000 C 
ATOM     28  C   UNL     1       1.470   4.236  17.681  0.00  0.00    +0.000 C 
ENDBRANCH  22  23
ENDBRANCH  19  22
ENDBRANCH   3  17
BRANCH   4  29
ATOM     29  O   UNL     1       2.177  11.509  17.716  0.00  0.00    +0.000 OA
ATOM     30  H   UNL     1       2.372  10.612  17.388  0.00  0.00    +0.000 HD
ENDBRANCH   4  29
BRANCH   3  31
ATOM     31  C   UNL     1       0.755   9.912  20.889  0.00  0.00    +0.000 C 
BRANCH  31  32
ATOM     32  O   UNL     1      -0.542   9.607  21.399  0.00  0.00    +0.000 OA
ATOM     33  H   UNL     1      -1.038  10.421  21.605  0.00  0.00    +0.000 HD
ENDBRANCH  31  32
ENDBRANCH   3  31
TORSDOF 7
ENDMDL
MODEL 7
REMARK VINA RESULT:      -7.0      7.540      9.893
REMARK  Name = 
REMARK  7 active torsions:
REMARK  status: ('A' for Active; 'I' for Inactive)
REMARK    1  A    between atoms: N_5  and  C_6
REMARK    2  A    between atoms: C_8  and  C_9
REMARK    3  A    between atoms: C_8  and  N_11
REMARK    4  A    between atoms: C_9  and  O_10
REMARK    5  A    between atoms: C_13  and  C_14
REMARK    6  A    between atoms: C_14  and  C_15
REMARK    7  A    between atoms: C_23  and  O_24
REMARK                            x       y       z     vdW  Elec       q    Type
REMARK                         _______ _______ _______ _____ _____    ______ ____
ROOT
ATOM      1  C   UNL     1      -1.154  11.311  20.230  0.00  0.00    +0.000 C 
ATOM      2  O   UNL     1       0.226  10.903  20.286  0.00  0.00    +0.000 OA
ATOM      3  C   UNL     1       0.776  10.895  18.936  0.00  0.00    +0.000 C 
ATOM      4  C   UNL     1      -0.426  11.017  17.972  0.00  0.00    +0.000 C 
ATOM      5  C   UNL     1      -1.459  11.753  18.795  0.00  0.00    +0.000 C 
ATOM      6  F   UNL     1      -1.229  13.089  18.628  0.00  0.00    +0.000 F 
ENDROOT
BRANCH   1  11
ATOM      7  N   UNL     1      -2.633  14.669  24.341  0.00  0.00    +0.000 N 
ATOM      8  C   UNL     1      -2.249  13.877  23.295  0.00  0.00    +0.000 A 
ATOM      9  C   UNL     1      -2.916  14.036  21.991  0.00  0.00    +0.000 A 
ATOM     10  C   UNL     1      -2.467  13.264  21.005  0.00  0.00    +0.000 A 
ATOM     11  N   UNL     1      -1.474  12.334  21.219  0.00  0.00    +0.000 N 
ATOM     12  C   UNL     1      -0.914  12.165  22.489  0.00  0.00    +0.000 A 
ATOM     13  O   UNL     1      -0.112  11.254  22.700  0.00  0.00    +0.000 OA
ATOM     14  N   UNL     1      -1.299  13.012  23.505  0.00  0.00    +0.000 NA
ATOM     15  H   UNL     1      -3.072  15.557  24.134  0.00  0.00    +0.000 HD
ATOM     16  H   UNL     1      -1.951  14.706  25.092  0.00  0.00    +0.000 HD
ENDBRANCH   1  11
BRANCH   3  17
ATOM     17  N   UNL     1       1.562   9.670  18.688  0.00  0.00    +0.000 N 
ATOM     18  C   UNL     1       1.669   8.581  19.521  0.00  0.00    +0.000 A 
ATOM     19  C   UNL     1       2.278   7.611  18.756  0.00  0.00    +0.000 A 
ATOM     20  N   UNL     1       2.574   8.148  17.529  0.00  0.00    +0.000 NA
ATOM     21  N   UNL     1       2.131   9.402  17.497  0.00  0.00    +0.000 NA
BRANCH  19  22
ATOM     22  C   UNL     1       2.630   6.197  19.104  0.00  0.00    +0.000 C 
BRANCH  22  23
ATOM     23  C   UNL     1       2.757   5.256  17.881  0.00  0.00    +0.000 C 
ATOM     24  C   UNL     1       4.005   4.358  17.915  0.00  0.00    +0.000 C 
ATOM     25  C   UNL     1       3.920   3.223  18.935  0.00  0.00    +0.000 C 
ATOM     26  C   UNL     1       2.642   2.399  18.812  0.00  0.00    +0.000 C 
ATOM     27  C   UNL     1       1.380   3.248  18.707  0.00  0.00    +0.000 C 
ATOM     28  C   UNL     1       1.506   4.377  17.688  0.00  0.00    +0.000 C 
ENDBRANCH  22  23
ENDBRANCH  19  22
ENDBRANCH   3  17
BRANCH   4  29
ATOM     29  O   UNL     1      -0.959   9.783  17.479  0.00  0.00    +0.000 OA
ATOM     30  H   UNL     1      -1.545   9.926  16.713  0.00  0.00    +0.000 HD
ENDBRANCH   4  29
BRANCH   3  31
ATOM     31  C   UNL     1       1.770  12.093  18.845  0.00  0.00    +0.000 C 
BRANCH  31  32
ATOM     32  O   UNL     1       2.387  12.321  17.580  0.00  0.00    +0.000 OA
ATOM     33  H   UNL     1       3.078  13.006  17.645  0.00  0.00    +0.000 HD
ENDBRANCH  31  32
ENDBRANCH   3  31
TORSDOF 7
ENDMDL
MODEL 8
REMARK VINA RESULT:      -7.0      7.670     10.122
REMARK  Name = 
REMARK  7 active torsions:
REMARK  status: ('A' for Active; 'I' for Inactive)
REMARK    1  A    between atoms: N_5  and  C_6
REMARK    2  A    between atoms: C_8  and  C_9
REMARK    3  A    between atoms: C_8  and  N_11
REMARK    4  A    between atoms: C_9  and  O_10
REMARK    5  A    between atoms: C_13  and  C_14
REMARK    6  A    between atoms: C_14  and  C_15
REMARK    7  A    between atoms: C_23  and  O_24
REMARK                            x       y       z     vdW  Elec       q    Type
REMARK                         _______ _______ _______ _____ _____    ______ ____
ROOT
ATOM      1  C   UNL     1      -0.518  11.728  20.890  0.00  0.00    +0.000 C 
ATOM      2  O   UNL     1       0.811  11.267  20.581  0.00  0.00    +0.000 OA
ATOM      3  C   UNL     1       0.989  11.261  19.134  0.00  0.00    +0.000 C 
ATOM      4  C   UNL     1      -0.417  11.444  18.518  0.00  0.00    +0.000 C 
ATOM      5  C   UNL     1      -1.168  12.205  19.586  0.00  0.00    +0.000 C 
ATOM      6  F   UNL     1      -0.936  13.533  19.374  0.00  0.00    +0.000 F 
ENDROOT
BRANCH   1  11
ATOM      7  N   UNL     1      -1.183  15.733  24.615  0.00  0.00    +0.000 N 
ATOM      8  C   UNL     1      -0.970  14.732  23.709  0.00  0.00    +0.000 A 
ATOM      9  C   UNL     1       0.059  14.911  22.670  0.00  0.00    +0.000 A 
ATOM     10  C   UNL     1       0.244  13.883  21.846  0.00  0.00    +0.000 A 
ATOM     11  N   UNL     1      -0.528  12.745  21.934  0.00  0.00    +0.000 N 
ATOM     12  C   UNL     1      -1.542  12.642  22.891  0.00  0.00    +0.000 A 
ATOM     13  O   UNL     1      -2.304  11.674  22.889  0.00  0.00    +0.000 OA
ATOM     14  N   UNL     1      -1.695  13.655  23.812  0.00  0.00    +0.000 NA
ATOM     15  H   UNL     1      -0.429  16.384  24.796  0.00  0.00    +0.000 HD
ATOM     16  H   UNL     1      -1.677  15.427  25.447  0.00  0.00    +0.000 HD
ENDBRANCH   1  11
BRANCH   3  17
ATOM     17  N   UNL     1       1.632  10.011  18.682  0.00  0.00    +0.000 N 
ATOM     18  C   UNL     1       1.578   8.788  19.307  0.00  0.00    +0.000 A 
ATOM     19  C   UNL     1       2.096   7.900  18.389  0.00  0.00    +0.000 A 
ATOM     20  N   UNL     1       2.499   8.605  17.283  0.00  0.00    +0.000 NA
ATOM     21  N   UNL     1       2.210   9.890  17.471  0.00  0.00    +0.000 NA
BRANCH  19  22
ATOM     22  C   UNL     1       2.265   6.415  18.482  0.00  0.00    +0.000 C 
BRANCH  22  23
ATOM     23  C   UNL     1       2.777   5.920  19.857  0.00  0.00    +0.000 C 
ATOM     24  C   UNL     1       1.670   5.364  20.769  0.00  0.00    +0.000 C 
ATOM     25  C   UNL     1       1.144   3.996  20.335  0.00  0.00    +0.000 C 
ATOM     26  C   UNL     1       2.250   2.971  20.109  0.00  0.00    +0.000 C 
ATOM     27  C   UNL     1       3.405   3.498  19.265  0.00  0.00    +0.000 C 
ATOM     28  C   UNL     1       3.895   4.870  19.720  0.00  0.00    +0.000 C 
ENDBRANCH  22  23
ENDBRANCH  19  22
ENDBRANCH   3  17
BRANCH   4  29
ATOM     29  O   UNL     1      -1.110  10.240  18.173  0.00  0.00    +0.000 OA
ATOM     30  H   UNL     1      -2.074  10.340  18.270  0.00  0.00    +0.000 HD
ENDBRANCH   4  29
BRANCH   3  31
ATOM     31  C   UNL     1       1.973  12.421  18.795  0.00  0.00    +0.000 C 
BRANCH  31  32
ATOM     32  O   UNL     1       2.162  12.720  17.413  0.00  0.00    +0.000 OA
ATOM     33  H   UNL     1       3.025  13.150  17.262  0.00  0.00    +0.000 HD
ENDBRANCH  31  32
ENDBRANCH   3  31
TORSDOF 7
ENDMDL
MODEL 9
REMARK VINA RESULT:      -7.0      8.481     10.425
REMARK  Name = 
REMARK  7 active torsions:
REMARK  status: ('A' for Active; 'I' for Inactive)
REMARK    1  A    between atoms: N_5  and  C_6
REMARK    2  A    between atoms: C_8  and  C_9
REMARK    3  A    between atoms: C_8  and  N_11
REMARK    4  A    between atoms: C_9  and  O_10
REMARK    5  A    between atoms: C_13  and  C_14
REMARK    6  A    between atoms: C_14  and  C_15
REMARK    7  A    between atoms: C_23  and  O_24
REMARK                            x       y       z     vdW  Elec       q    Type
REMARK                         _______ _______ _______ _____ _____    ______ ____
ROOT
ATOM      1  C   UNL     1      -2.190  12.090  20.255  0.00  0.00    +0.000 C 
ATOM      2  O   UNL     1      -1.025  11.284  20.514  0.00  0.00    +0.000 OA
ATOM      3  C   UNL     1       0.154  11.972  20.001  0.00  0.00    +0.000 C 
ATOM      4  C   UNL     1      -0.363  13.124  19.111  0.00  0.00    +0.000 C 
ATOM      5  C   UNL     1      -1.718  13.440  19.701  0.00  0.00    +0.000 C 
ATOM      6  F   UNL     1      -1.520  14.344  20.704  0.00  0.00    +0.000 F 
ENDROOT
BRANCH   1  11
ATOM      7  N   UNL     1      -5.557  13.240  24.461  0.00  0.00    +0.000 N 
ATOM      8  C   UNL     1      -4.713  12.909  23.439  0.00  0.00    +0.000 A 
ATOM      9  C   UNL     1      -3.287  12.682  23.731  0.00  0.00    +0.000 A 
ATOM     10  C   UNL     1      -2.529  12.322  22.698  0.00  0.00    +0.000 A 
ATOM     11  N   UNL     1      -3.048  12.226  21.426  0.00  0.00    +0.000 N 
ATOM     12  C   UNL     1      -4.393  12.517  21.179  0.00  0.00    +0.000 A 
ATOM     13  O   UNL     1      -4.822  12.544  20.025  0.00  0.00    +0.000 OA
ATOM     14  N   UNL     1      -5.218  12.806  22.243  0.00  0.00    +0.000 NA
ATOM     15  H   UNL     1      -5.299  12.972  25.403  0.00  0.00    +0.000 HD
ATOM     16  H   UNL     1      -6.537  13.092  24.241  0.00  0.00    +0.000 HD
ENDBRANCH   1  11
BRANCH   3  17
ATOM     17  N   UNL     1       1.027  11.044  19.255  0.00  0.00    +0.000 N 
ATOM     18  C   UNL     1       0.950   9.672  19.245  0.00  0.00    +0.000 A 
ATOM     19  C   UNL     1       1.783   9.279  18.221  0.00  0.00    +0.000 A 
ATOM     20  N   UNL     1       2.377  10.396  17.692  0.00  0.00    +0.000 NA
ATOM     21  N   UNL     1       1.909  11.467  18.327  0.00  0.00    +0.000 NA
BRANCH  19  22
ATOM     22  C   UNL     1       2.086   7.905  17.705  0.00  0.00    +0.000 C 
BRANCH  22  23
ATOM     23  C   UNL     1       2.916   7.032  18.678  0.00  0.00    +0.000 C 
ATOM     24  C   UNL     1       2.181   5.770  19.160  0.00  0.00    +0.000 C 
ATOM     25  C   UNL     1       2.059   4.682  18.094  0.00  0.00    +0.000 C 
ATOM     26  C   UNL     1       3.388   4.336  17.432  0.00  0.00    +0.000 C 
ATOM     27  C   UNL     1       4.186   5.560  16.996  0.00  0.00    +0.000 C 
ATOM     28  C   UNL     1       4.278   6.629  18.082  0.00  0.00    +0.000 C 
ENDBRANCH  22  23
ENDBRANCH  19  22
ENDBRANCH   3  17
BRANCH   4  29
ATOM     29  O   UNL     1      -0.476  12.832  17.714  0.00  0.00    +0.000 OA
ATOM     30  H   UNL     1       0.236  12.240  17.413  0.00  0.00    +0.000 HD
ENDBRANCH   4  29
BRANCH   3  31
ATOM     31  C   UNL     1       0.968  12.458  21.239  0.00  0.00    +0.000 C 
BRANCH  31  32
ATOM     32  O   UNL     1       2.279  12.959  20.988  0.00  0.00    +0.000 OA
ATOM     33  H   UNL     1       2.271  13.929  20.881  0.00  0.00    +0.000 HD
ENDBRANCH  31  32
ENDBRANCH   3  31
TORSDOF 7
ENDMDL
