MODEL 1
REMARK VINA RESULT:      -9.6      0.000      0.000
REMARK  Name = 
REMARK  4 active torsions:
REMARK  status: ('A' for Active; 'I' for Inactive)
REMARK    1  A    between atoms: C_1  and  S_2
REMARK    2  A    between atoms: S_2  and  C_5
REMARK    3  A    between atoms: C_8  and  C_9
REMARK    4  A    between atoms: C_18  and  C_19
REMARK                            x       y       z     vdW  Elec       q    Type
REMARK                         _______ _______ _______ _____ _____    ______ ____
ROOT
ATOM      1  C   UNL     1       3.726   5.839  17.729  0.00  0.00    +0.000 A 
ATOM      2  C   UNL     1       4.502   6.236  16.603  0.00  0.00    +0.000 A 
ATOM      3  F   UNL     1       4.586   7.532  16.260  0.00  0.00    +0.000 F 
ATOM      4  C   UNL     1       5.197   5.333  15.807  0.00  0.00    +0.000 A 
ATOM      5  F   UNL     1       5.873   5.766  14.734  0.00  0.00    +0.000 F 
ATOM      6  C   UNL     1       5.177   3.996  16.118  0.00  0.00    +0.000 A 
ATOM      7  F   UNL     1       5.859   3.119  15.368  0.00  0.00    +0.000 F 
ATOM      8  C   UNL     1       4.437   3.554  17.206  0.00  0.00    +0.000 A 
ATOM      9  F   UNL     1       4.436   2.230  17.436  0.00  0.00    +0.000 F 
ATOM     10  C   UNL     1       3.678   4.430  18.035  0.00  0.00    +0.000 A 
ENDROOT
BRANCH  10  11
ATOM     11  C   UNL     1       2.868   3.812  19.139  0.00  0.00    +0.000 A 
ATOM     12  C   UNL     1       3.476   3.342  20.326  0.00  0.00    +0.000 A 
ATOM     13  C   UNL     1       2.728   2.787  21.373  0.00  0.00    +0.000 A 
ATOM     14  C   UNL     1       1.348   2.755  21.281  0.00  0.00    +0.000 A 
ATOM     15  F   UNL     1       0.624   2.285  22.304  0.00  0.00    +0.000 F 
ATOM     16  C   UNL     1       0.710   3.203  20.137  0.00  0.00    +0.000 A 
ATOM     17  C   UNL     1       1.469   3.662  19.055  0.00  0.00    +0.000 A 
ENDBRANCH  10  11
BRANCH   1  21
ATOM     18  C   UNL     1       1.344   8.808  19.804  0.00  0.00    +0.000 A 
ATOM     19  C   UNL     1       1.699   9.010  18.474  0.00  0.00    +0.000 A 
ATOM     20  C   UNL     1       2.486   8.052  17.821  0.00  0.00    +0.000 A 
ATOM     21  C   UNL     1       2.988   6.909  18.484  0.00  0.00    +0.000 A 
ATOM     22  C   UNL     1       2.716   6.819  19.864  0.00  0.00    +0.000 A 
ATOM     23  C   UNL     1       1.857   7.722  20.508  0.00  0.00    +0.000 A 
BRANCH  18  25
ATOM     24  C   UNL     1      -0.401   9.025  21.957  0.00  0.00    +0.000 C 
ATOM     25  S   UNL     1       0.258   9.956  20.604  0.00  0.00    +0.000 S 
ATOM     26  O   UNL     1      -0.826  10.252  19.680  0.00  0.00    +0.000 OA
ATOM     27  O   UNL     1       1.077  11.026  21.152  0.00  0.00    +0.000 OA
ENDBRANCH  18  25
ENDBRANCH   1  21
TORSDOF 3
ENDMDL
MODEL 2
REMARK VINA RESULT:      -9.4      0.650      1.405
REMARK  Name = 
REMARK  4 active torsions:
REMARK  status: ('A' for Active; 'I' for Inactive)
REMARK    1  A    between atoms: C_1  and  S_2
REMARK    2  A    between atoms: S_2  and  C_5
REMARK    3  A    between atoms: C_8  and  C_9
REMARK    4  A    between atoms: C_18  and  C_19
REMARK                            x       y       z     vdW  Elec       q    Type
REMARK                         _______ _______ _______ _____ _____    ______ ____
ROOT
ATOM      1  C   UNL     1       3.595   5.870  17.680  0.00  0.00    +0.000 A 
ATOM      2  C   UNL     1       4.389   6.268  16.567  0.00  0.00    +0.000 A 
ATOM      3  F   UNL     1       4.393   7.548  16.159  0.00  0.00    +0.000 F 
ATOM      4  C   UNL     1       5.183   5.381  15.849  0.00  0.00    +0.000 A 
ATOM      5  F   UNL     1       5.873   5.810  14.782  0.00  0.00    +0.000 F 
ATOM      6  C   UNL     1       5.248   4.064  16.229  0.00  0.00    +0.000 A 
ATOM      7  F   UNL     1       6.024   3.204  15.556  0.00  0.00    +0.000 F 
ATOM      8  C   UNL     1       4.494   3.622  17.308  0.00  0.00    +0.000 A 
ATOM      9  F   UNL     1       4.580   2.315  17.608  0.00  0.00    +0.000 F 
ATOM     10  C   UNL     1       3.637   4.479  18.058  0.00  0.00    +0.000 A 
ENDROOT
BRANCH  10  11
ATOM     11  C   UNL     1       2.826   3.858  19.160  0.00  0.00    +0.000 A 
ATOM     12  C   UNL     1       3.422   3.454  20.378  0.00  0.00    +0.000 A 
ATOM     13  C   UNL     1       2.672   2.897  21.421  0.00  0.00    +0.000 A 
ATOM     14  C   UNL     1       1.297   2.796  21.294  0.00  0.00    +0.000 A 
ATOM     15  F   UNL     1       0.568   2.324  22.312  0.00  0.00    +0.000 F 
ATOM     16  C   UNL     1       0.672   3.176  20.119  0.00  0.00    +0.000 A 
ATOM     17  C   UNL     1       1.439   3.638  19.044  0.00  0.00    +0.000 A 
ENDBRANCH  10  11
BRANCH   1  21
ATOM     18  C   UNL     1       1.405   9.024  19.691  0.00  0.00    +0.000 A 
ATOM     19  C   UNL     1       1.825   7.907  20.406  0.00  0.00    +0.000 A 
ATOM     20  C   UNL     1       2.514   6.886  19.740  0.00  0.00    +0.000 A 
ATOM     21  C   UNL     1       2.748   6.918  18.346  0.00  0.00    +0.000 A 
ATOM     22  C   UNL     1       2.184   8.003  17.645  0.00  0.00    +0.000 A 
ATOM     23  C   UNL     1       1.571   9.074  18.310  0.00  0.00    +0.000 A 
BRANCH  18  25
ATOM     24  C   UNL     1       1.255  11.800  19.708  0.00  0.00    +0.000 C 
ATOM     25  S   UNL     1       0.632  10.371  20.545  0.00  0.00    +0.000 S 
ATOM     26  O   UNL     1       1.142  10.378  21.907  0.00  0.00    +0.000 OA
ATOM     27  O   UNL     1      -0.798  10.289  20.290  0.00  0.00    +0.000 OA
ENDBRANCH  18  25
ENDBRANCH   1  21
TORSDOF 3
ENDMDL
MODEL 3
REMARK VINA RESULT:      -9.4      0.744      1.284
REMARK  Name = 
REMARK  4 active torsions:
REMARK  status: ('A' for Active; 'I' for Inactive)
REMARK    1  A    between atoms: C_1  and  S_2
REMARK    2  A    between atoms: S_2  and  C_5
REMARK    3  A    between atoms: C_8  and  C_9
REMARK    4  A    between atoms: C_18  and  C_19
REMARK                            x       y       z     vdW  Elec       q    Type
REMARK                         _______ _______ _______ _____ _____    ______ ____
ROOT
ATOM      1  C   UNL     1       3.732   5.924  17.632  0.00  0.00    +0.000 A 
ATOM      2  C   UNL     1       4.531   6.250  16.499  0.00  0.00    +0.000 A 
ATOM      3  F   UNL     1       4.616   7.521  16.072  0.00  0.00    +0.000 F 
ATOM      4  C   UNL     1       5.246   5.300  15.780  0.00  0.00    +0.000 A 
ATOM      5  F   UNL     1       5.944   5.665  14.694  0.00  0.00    +0.000 F 
ATOM      6  C   UNL     1       5.226   3.987  16.179  0.00  0.00    +0.000 A 
ATOM      7  F   UNL     1       5.928   3.065  15.504  0.00  0.00    +0.000 F 
ATOM      8  C   UNL     1       4.464   3.614  17.278  0.00  0.00    +0.000 A 
ATOM      9  F   UNL     1       4.465   2.309  17.596  0.00  0.00    +0.000 F 
ATOM     10  C   UNL     1       3.684   4.539  18.031  0.00  0.00    +0.000 A 
ENDROOT
BRANCH  10  11
ATOM     11  C   UNL     1       2.853   3.991  19.157  0.00  0.00    +0.000 A 
ATOM     12  C   UNL     1       1.471   3.736  18.997  0.00  0.00    +0.000 A 
ATOM     13  C   UNL     1       0.693   3.202  20.032  0.00  0.00    +0.000 A 
ATOM     14  C   UNL     1       1.297   2.849  21.227  0.00  0.00    +0.000 A 
ATOM     15  F   UNL     1       0.570   2.280  22.196  0.00  0.00    +0.000 F 
ATOM     16  C   UNL     1       2.646   3.083  21.427  0.00  0.00    +0.000 A 
ATOM     17  C   UNL     1       3.396   3.709  20.426  0.00  0.00    +0.000 A 
ENDBRANCH  10  11
BRANCH   1  21
ATOM     18  C   UNL     1       1.294   9.012  19.453  0.00  0.00    +0.000 A 
ATOM     19  C   UNL     1       1.682   9.129  18.122  0.00  0.00    +0.000 A 
ATOM     20  C   UNL     1       2.487   8.134  17.552  0.00  0.00    +0.000 A 
ATOM     21  C   UNL     1       2.974   7.038  18.298  0.00  0.00    +0.000 A 
ATOM     22  C   UNL     1       2.667   7.036  19.674  0.00  0.00    +0.000 A 
ATOM     23  C   UNL     1       1.791   7.974  20.237  0.00  0.00    +0.000 A 
BRANCH  18  25
ATOM     24  C   UNL     1      -1.093  10.339  18.934  0.00  0.00    +0.000 C 
ATOM     25  S   UNL     1       0.185  10.204  20.150  0.00  0.00    +0.000 S 
ATOM     26  O   UNL     1       0.891  11.474  20.217  0.00  0.00    +0.000 OA
ATOM     27  O   UNL     1      -0.395   9.617  21.348  0.00  0.00    +0.000 OA
ENDBRANCH  18  25
ENDBRANCH   1  21
TORSDOF 3
ENDMDL
MODEL 4
REMARK VINA RESULT:      -9.2      1.838      4.544
REMARK  Name = 
REMARK  4 active torsions:
REMARK  status: ('A' for Active; 'I' for Inactive)
REMARK    1  A    between atoms: C_1  and  S_2
REMARK    2  A    between atoms: S_2  and  C_5
REMARK    3  A    between atoms: C_8  and  C_9
REMARK    4  A    between atoms: C_18  and  C_19
REMARK                            x       y       z     vdW  Elec       q    Type
REMARK                         _______ _______ _______ _____ _____    ______ ____
ROOT
ATOM      1  C   UNL     1       2.626   5.018  19.020  0.00  0.00    +0.000 A 
ATOM      2  C   UNL     1       1.678   3.997  19.315  0.00  0.00    +0.000 A 
ATOM      3  F   UNL     1       0.489   4.311  19.855  0.00  0.00    +0.000 F 
ATOM      4  C   UNL     1       1.919   2.650  19.074  0.00  0.00    +0.000 A 
ATOM      5  F   UNL     1       1.003   1.733  19.416  0.00  0.00    +0.000 F 
ATOM      6  C   UNL     1       3.102   2.262  18.498  0.00  0.00    +0.000 A 
ATOM      7  F   UNL     1       3.338   0.967  18.245  0.00  0.00    +0.000 F 
ATOM      8  C   UNL     1       4.062   3.217  18.190  0.00  0.00    +0.000 A 
ATOM      9  F   UNL     1       5.210   2.766  17.656  0.00  0.00    +0.000 F 
ATOM     10  C   UNL     1       3.884   4.607  18.446  0.00  0.00    +0.000 A 
ENDROOT
BRANCH  10  11
ATOM     11  C   UNL     1       5.029   5.525  18.125  0.00  0.00    +0.000 A 
ATOM     12  C   UNL     1       6.215   5.521  18.894  0.00  0.00    +0.000 A 
ATOM     13  C   UNL     1       7.299   6.355  18.589  0.00  0.00    +0.000 A 
ATOM     14  C   UNL     1       7.243   7.161  17.465  0.00  0.00    +0.000 A 
ATOM     15  F   UNL     1       8.300   7.912  17.132  0.00  0.00    +0.000 F 
ATOM     16  C   UNL     1       6.101   7.198  16.684  0.00  0.00    +0.000 A 
ATOM     17  C   UNL     1       4.985   6.438  17.052  0.00  0.00    +0.000 A 
ENDBRANCH  10  11
BRANCH   1  21
ATOM     18  C   UNL     1       1.296   9.046  19.916  0.00  0.00    +0.000 A 
ATOM     19  C   UNL     1       1.748   8.733  18.638  0.00  0.00    +0.000 A 
ATOM     20  C   UNL     1       2.194   7.433  18.367  0.00  0.00    +0.000 A 
ATOM     21  C   UNL     1       2.260   6.435  19.365  0.00  0.00    +0.000 A 
ATOM     22  C   UNL     1       1.922   6.838  20.673  0.00  0.00    +0.000 A 
ATOM     23  C   UNL     1       1.390   8.108  20.940  0.00  0.00    +0.000 A 
BRANCH  18  25
ATOM     24  C   UNL     1       1.348  11.662  18.976  0.00  0.00    +0.000 C 
ATOM     25  S   UNL     1       0.626  10.654  20.239  0.00  0.00    +0.000 S 
ATOM     26  O   UNL     1       1.139  11.093  21.527  0.00  0.00    +0.000 OA
ATOM     27  O   UNL     1      -0.807  10.589  19.996  0.00  0.00    +0.000 OA
ENDBRANCH  18  25
ENDBRANCH   1  21
TORSDOF 3
ENDMDL
MODEL 5
REMARK VINA RESULT:      -9.2      1.897      4.555
REMARK  Name = 
REMARK  4 active torsions:
REMARK  status: ('A' for Active; 'I' for Inactive)
REMARK    1  A    between atoms: C_1  and  S_2
REMARK    2  A    between atoms: S_2  and  C_5
REMARK    3  A    between atoms: C_8  and  C_9
REMARK    4  A    between atoms: C_18  and  C_19
REMARK                            x       y       z     vdW  Elec       q    Type
REMARK                         _______ _______ _______ _____ _____    ______ ____
ROOT
ATOM      1  C   UNL     1       2.659   5.005  18.920  0.00  0.00    +0.000 A 
ATOM      2  C   UNL     1       1.684   4.015  19.232  0.00  0.00    +0.000 A 
ATOM      3  F   UNL     1       0.500   4.371  19.758  0.00  0.00    +0.000 F 
ATOM      4  C   UNL     1       1.891   2.657  19.024  0.00  0.00    +0.000 A 
ATOM      5  F   UNL     1       0.950   1.771  19.381  0.00  0.00    +0.000 F 
ATOM      6  C   UNL     1       3.067   2.226  18.463  0.00  0.00    +0.000 A 
ATOM      7  F   UNL     1       3.271   0.920  18.240  0.00  0.00    +0.000 F 
ATOM      8  C   UNL     1       4.053   3.148  18.139  0.00  0.00    +0.000 A 
ATOM      9  F   UNL     1       5.192   2.657  17.622  0.00  0.00    +0.000 F 
ATOM     10  C   UNL     1       3.909   4.548  18.362  0.00  0.00    +0.000 A 
ENDROOT
BRANCH  10  11
ATOM     11  C   UNL     1       5.079   5.429  18.027  0.00  0.00    +0.000 A 
ATOM     12  C   UNL     1       5.072   6.261  16.883  0.00  0.00    +0.000 A 
ATOM     13  C   UNL     1       6.147   7.104  16.574  0.00  0.00    +0.000 A 
ATOM     14  C   UNL     1       7.222   7.184  17.443  0.00  0.00    +0.000 A 
ATOM     15  F   UNL     1       8.223   8.035  17.186  0.00  0.00    +0.000 F 
ATOM     16  C   UNL     1       7.272   6.386  18.572  0.00  0.00    +0.000 A 
ATOM     17  C   UNL     1       6.242   5.473  18.821  0.00  0.00    +0.000 A 
ENDBRANCH  10  11
BRANCH   1  21
ATOM     18  C   UNL     1       1.428   9.083  19.721  0.00  0.00    +0.000 A 
ATOM     19  C   UNL     1       1.861   8.727  18.448  0.00  0.00    +0.000 A 
ATOM     20  C   UNL     1       2.276   7.410  18.208  0.00  0.00    +0.000 A 
ATOM     21  C   UNL     1       2.329   6.437  19.231  0.00  0.00    +0.000 A 
ATOM     22  C   UNL     1       2.011   6.882  20.531  0.00  0.00    +0.000 A 
ATOM     23  C   UNL     1       1.510   8.170  20.769  0.00  0.00    +0.000 A 
BRANCH  18  25
ATOM     24  C   UNL     1      -0.916  10.571  19.588  0.00  0.00    +0.000 C 
ATOM     25  S   UNL     1       0.797  10.713  20.007  0.00  0.00    +0.000 S 
ATOM     26  O   UNL     1       1.431  11.605  19.049  0.00  0.00    +0.000 OA
ATOM     27  O   UNL     1       0.889  10.975  21.436  0.00  0.00    +0.000 OA
ENDBRANCH  18  25
ENDBRANCH   1  21
TORSDOF 3
ENDMDL
MODEL 6
REMARK VINA RESULT:      -8.4      1.931      4.581
REMARK  Name = 
REMARK  4 active torsions:
REMARK  status: ('A' for Active; 'I' for Inactive)
REMARK    1  A    between atoms: C_1  and  S_2
REMARK    2  A    between atoms: S_2  and  C_5
REMARK    3  A    between atoms: C_8  and  C_9
REMARK    4  A    between atoms: C_18  and  C_19
REMARK                            x       y       z     vdW  Elec       q    Type
REMARK                         _______ _______ _______ _____ _____    ______ ____
ROOT
ATOM      1  C   UNL     1       2.613   4.897  18.924  0.00  0.00    +0.000 A 
ATOM      2  C   UNL     1       1.725   3.827  19.231  0.00  0.00    +0.000 A 
ATOM      3  F   UNL     1       0.479   4.083  19.666  0.00  0.00    +0.000 F 
ATOM      4  C   UNL     1       2.081   2.490  19.110  0.00  0.00    +0.000 A 
ATOM      5  F   UNL     1       1.213   1.529  19.458  0.00  0.00    +0.000 F 
ATOM      6  C   UNL     1       3.329   2.157  18.645  0.00  0.00    +0.000 A 
ATOM      7  F   UNL     1       3.677   0.870  18.506  0.00  0.00    +0.000 F 
ATOM      8  C   UNL     1       4.235   3.160  18.330  0.00  0.00    +0.000 A 
ATOM      9  F   UNL     1       5.448   2.766  17.909  0.00  0.00    +0.000 F 
ATOM     10  C   UNL     1       3.936   4.547  18.468  0.00  0.00    +0.000 A 
ENDROOT
BRANCH  10  11
ATOM     11  C   UNL     1       5.030   5.528  18.155  0.00  0.00    +0.000 A 
ATOM     12  C   UNL     1       6.226   5.564  18.910  0.00  0.00    +0.000 A 
ATOM     13  C   UNL     1       7.263   6.457  18.612  0.00  0.00    +0.000 A 
ATOM     14  C   UNL     1       7.153   7.286  17.509  0.00  0.00    +0.000 A 
ATOM     15  F   UNL     1       8.167   8.096  17.181  0.00  0.00    +0.000 F 
ATOM     16  C   UNL     1       6.000   7.286  16.744  0.00  0.00    +0.000 A 
ATOM     17  C   UNL     1       4.927   6.463  17.107  0.00  0.00    +0.000 A 
ENDBRANCH  10  11
BRANCH   1  21
ATOM     18  C   UNL     1       1.467   9.020  19.616  0.00  0.00    +0.000 A 
ATOM     19  C   UNL     1       1.486   8.118  20.675  0.00  0.00    +0.000 A 
ATOM     20  C   UNL     1       1.839   6.784  20.435  0.00  0.00    +0.000 A 
ATOM     21  C   UNL     1       2.120   6.300  19.137  0.00  0.00    +0.000 A 
ATOM     22  C   UNL     1       1.953   7.219  18.080  0.00  0.00    +0.000 A 
ATOM     23  C   UNL     1       1.689   8.576  18.316  0.00  0.00    +0.000 A 
BRANCH  18  25
ATOM     24  C   UNL     1      -0.608  10.869  19.641  0.00  0.00    +0.000 C 
ATOM     25  S   UNL     1       1.132  10.731  19.929  0.00  0.00    +0.000 S 
ATOM     26  O   UNL     1       1.828  11.507  18.915  0.00  0.00    +0.000 OA
ATOM     27  O   UNL     1       1.374  10.975  21.343  0.00  0.00    +0.000 OA
ENDBRANCH  18  25
ENDBRANCH   1  21
TORSDOF 3
ENDMDL
MODEL 7
REMARK VINA RESULT:      -8.0      2.064      4.807
REMARK  Name = 
REMARK  4 active torsions:
REMARK  status: ('A' for Active; 'I' for Inactive)
REMARK    1  A    between atoms: C_1  and  S_2
REMARK    2  A    between atoms: S_2  and  C_5
REMARK    3  A    between atoms: C_8  and  C_9
REMARK    4  A    between atoms: C_18  and  C_19
REMARK                            x       y       z     vdW  Elec       q    Type
REMARK                         _______ _______ _______ _____ _____    ______ ____
ROOT
ATOM      1  C   UNL     1       2.744   5.120  19.161  0.00  0.00    +0.000 A 
ATOM      2  C   UNL     1       1.848   4.126  19.647  0.00  0.00    +0.000 A 
ATOM      3  F   UNL     1       0.590   4.454  19.987  0.00  0.00    +0.000 F 
ATOM      4  C   UNL     1       2.209   2.794  19.802  0.00  0.00    +0.000 A 
ATOM      5  F   UNL     1       1.332   1.914  20.308  0.00  0.00    +0.000 F 
ATOM      6  C   UNL     1       3.470   2.384  19.447  0.00  0.00    +0.000 A 
ATOM      7  F   UNL     1       3.823   1.097  19.575  0.00  0.00    +0.000 F 
ATOM      8  C   UNL     1       4.384   3.312  18.966  0.00  0.00    +0.000 A 
ATOM      9  F   UNL     1       5.609   2.850  18.666  0.00  0.00    +0.000 F 
ATOM     10  C   UNL     1       4.080   4.696  18.820  0.00  0.00    +0.000 A 
ENDROOT
BRANCH  10  11
ATOM     11  C   UNL     1       5.182   5.604  18.351  0.00  0.00    +0.000 A 
ATOM     12  C   UNL     1       5.014   6.449  17.230  0.00  0.00    +0.000 A 
ATOM     13  C   UNL     1       6.026   7.318  16.800  0.00  0.00    +0.000 A 
ATOM     14  C   UNL     1       7.202   7.407  17.525  0.00  0.00    +0.000 A 
ATOM     15  F   UNL     1       8.146   8.280  17.156  0.00  0.00    +0.000 F 
ATOM     16  C   UNL     1       7.409   6.596  18.627  0.00  0.00    +0.000 A 
ATOM     17  C   UNL     1       6.436   5.660  18.992  0.00  0.00    +0.000 A 
ENDBRANCH  10  11
BRANCH   1  21
ATOM     18  C   UNL     1       1.576   9.292  18.983  0.00  0.00    +0.000 A 
ATOM     19  C   UNL     1       1.606   8.631  20.207  0.00  0.00    +0.000 A 
ATOM     20  C   UNL     1       1.966   7.278  20.248  0.00  0.00    +0.000 A 
ATOM     21  C   UNL     1       2.243   6.535  19.078  0.00  0.00    +0.000 A 
ATOM     22  C   UNL     1       2.066   7.212  17.854  0.00  0.00    +0.000 A 
ATOM     23  C   UNL     1       1.795   8.587  17.803  0.00  0.00    +0.000 A 
BRANCH  18  25
ATOM     24  C   UNL     1       1.202  11.491  20.641  0.00  0.00    +0.000 C 
ATOM     25  S   UNL     1       1.233  11.029  18.933  0.00  0.00    +0.000 S 
ATOM     26  O   UNL     1      -0.105  11.197  18.388  0.00  0.00    +0.000 OA
ATOM     27  O   UNL     1       2.374  11.684  18.312  0.00  0.00    +0.000 OA
ENDBRANCH  18  25
ENDBRANCH   1  21
TORSDOF 3
ENDMDL
