MODEL 1
REMARK VINA RESULT:      -8.3      0.000      0.000
REMARK  Name = 
REMARK  10 active torsions:
REMARK  status: ('A' for Active; 'I' for Inactive)
REMARK    1  A    between atoms: C_1  and  C_2
REMARK    2  A    between atoms: C_5  and  N_6
REMARK    3  A    between atoms: C_7  and  C_9
REMARK    4  A    between atoms: C_11  and  C_12
REMARK    5  A    between atoms: C_12  and  C_13
REMARK    6  A    between atoms: C_12  and  C_14
REMARK    7  A    between atoms: C_16  and  C_17
REMARK    8  A    between atoms: C_17  and  C_18
REMARK    9  A    between atoms: C_17  and  C_19
REMARK   10  A    between atoms: C_20  and  O_21
REMARK                            x       y       z     vdW  Elec       q    Type
REMARK                         _______ _______ _______ _____ _____    ______ ____
ROOT
ATOM      1  C   UNL     1       3.095   6.398  18.076  0.00  0.00    +0.000 A 
ATOM      2  C   UNL     1       2.373   5.205  18.255  0.00  0.00    +0.000 A 
ATOM      3  C   UNL     1       2.833   3.987  17.744  0.00  0.00    +0.000 A 
ATOM      4  C   UNL     1       4.006   3.993  16.976  0.00  0.00    +0.000 A 
ATOM      5  C   UNL     1       4.737   5.175  16.730  0.00  0.00    +0.000 A 
ATOM      6  C   UNL     1       4.294   6.366  17.347  0.00  0.00    +0.000 A 
ENDROOT
BRANCH   1   8
ATOM      7  N   UNL     1       1.934   7.585  19.899  0.00  0.00    +0.000 N 
ATOM      8  C   UNL     1       2.459   7.641  18.620  0.00  0.00    +0.000 C 
ATOM      9  O   UNL     1       2.470   8.632  17.896  0.00  0.00    +0.000 OA
ATOM     10  H   UNL     1       2.105   6.727  20.414  0.00  0.00    +0.000 HD
BRANCH   7  15
ATOM     11  C   UNL     1      -1.143  11.537  22.712  0.00  0.00    +0.000 C 
ATOM     12  C   UNL     1      -0.298  10.551  21.968  0.00  0.00    +0.000 A 
ATOM     13  C   UNL     1      -0.263  10.548  20.571  0.00  0.00    +0.000 A 
ATOM     14  C   UNL     1       0.484   9.594  19.878  0.00  0.00    +0.000 A 
ATOM     15  C   UNL     1       1.210   8.608  20.555  0.00  0.00    +0.000 A 
ATOM     16  C   UNL     1       1.188   8.619  21.954  0.00  0.00    +0.000 A 
ATOM     17  C   UNL     1       0.448   9.581  22.654  0.00  0.00    +0.000 A 
ENDBRANCH   7  15
ENDBRANCH   1   8
BRANCH   3  18
ATOM     18  C   UNL     1       2.074   2.706  18.043  0.00  0.00    +0.000 C 
ATOM     19  C   UNL     1       2.997   1.555  18.448  0.00  0.00    +0.000 C 
ATOM     20  C   UNL     1       1.002   2.943  19.111  0.00  0.00    +0.000 C 
ENDBRANCH   3  18
BRANCH   5  21
ATOM     21  C   UNL     1       5.974   5.123  15.834  0.00  0.00    +0.000 C 
ATOM     22  C   UNL     1       7.185   4.581  16.590  0.00  0.00    +0.000 C 
ATOM     23  C   UNL     1       5.770   4.323  14.533  0.00  0.00    +0.000 C 
ENDBRANCH   5  21
BRANCH   6  24
ATOM     24  O   UNL     1       5.032   7.517  17.250  0.00  0.00    +0.000 OA
ATOM     25  H   UNL     1       5.097   7.742  16.307  0.00  0.00    +0.000 HD
ENDBRANCH   6  24
TORSDOF 5
ENDMDL
MODEL 2
REMARK VINA RESULT:      -8.3      1.956      2.129
REMARK  Name = 
REMARK  10 active torsions:
REMARK  status: ('A' for Active; 'I' for Inactive)
REMARK    1  A    between atoms: C_1  and  C_2
REMARK    2  A    between atoms: C_5  and  N_6
REMARK    3  A    between atoms: C_7  and  C_9
REMARK    4  A    between atoms: C_11  and  C_12
REMARK    5  A    between atoms: C_12  and  C_13
REMARK    6  A    between atoms: C_12  and  C_14
REMARK    7  A    between atoms: C_16  and  C_17
REMARK    8  A    between atoms: C_17  and  C_18
REMARK    9  A    between atoms: C_17  and  C_19
REMARK   10  A    between atoms: C_20  and  O_21
REMARK                            x       y       z     vdW  Elec       q    Type
REMARK                         _______ _______ _______ _____ _____    ______ ____
ROOT
ATOM      1  C   UNL     1       3.104   6.226  17.992  0.00  0.00    +0.000 A 
ATOM      2  C   UNL     1       2.435   5.000  18.153  0.00  0.00    +0.000 A 
ATOM      3  C   UNL     1       2.935   3.816  17.601  0.00  0.00    +0.000 A 
ATOM      4  C   UNL     1       4.093   3.890  16.814  0.00  0.00    +0.000 A 
ATOM      5  C   UNL     1       4.770   5.107  16.586  0.00  0.00    +0.000 A 
ATOM      6  C   UNL     1       4.290   6.263  17.242  0.00  0.00    +0.000 A 
ENDROOT
BRANCH   1   8
ATOM      7  N   UNL     1       2.065   8.446  17.714  0.00  0.00    +0.000 N 
ATOM      8  C   UNL     1       2.427   7.427  18.579  0.00  0.00    +0.000 C 
ATOM      9  O   UNL     1       2.221   7.412  19.789  0.00  0.00    +0.000 OA
ATOM     10  H   UNL     1       2.200   8.259  16.726  0.00  0.00    +0.000 HD
BRANCH   7  15
ATOM     11  C   UNL     1      -0.370  13.496  18.964  0.00  0.00    +0.000 C 
ATOM     12  C   UNL     1       0.285  12.176  18.698  0.00  0.00    +0.000 A 
ATOM     13  C   UNL     1       1.666  12.088  18.507  0.00  0.00    +0.000 A 
ATOM     14  C   UNL     1       2.268  10.865  18.206  0.00  0.00    +0.000 A 
ATOM     15  C   UNL     1       1.512   9.696  18.075  0.00  0.00    +0.000 A 
ATOM     16  C   UNL     1       0.130   9.780  18.281  0.00  0.00    +0.000 A 
ATOM     17  C   UNL     1      -0.477  11.003  18.594  0.00  0.00    +0.000 A 
ENDBRANCH   7  15
ENDBRANCH   1   8
BRANCH   3  18
ATOM     18  C   UNL     1       2.234   2.496  17.880  0.00  0.00    +0.000 C 
ATOM     19  C   UNL     1       3.154   1.470  18.545  0.00  0.00    +0.000 C 
ATOM     20  C   UNL     1       0.971   2.715  18.716  0.00  0.00    +0.000 C 
ENDBRANCH   3  18
BRANCH   5  21
ATOM     21  C   UNL     1       5.992   5.130  15.668  0.00  0.00    +0.000 C 
ATOM     22  C   UNL     1       7.259   4.728  16.420  0.00  0.00    +0.000 C 
ATOM     23  C   UNL     1       5.839   4.263  14.403  0.00  0.00    +0.000 C 
ENDBRANCH   5  21
BRANCH   6  24
ATOM     24  O   UNL     1       4.978   7.445  17.163  0.00  0.00    +0.000 OA
ATOM     25  H   UNL     1       4.324   8.163  17.180  0.00  0.00    +0.000 HD
ENDBRANCH   6  24
TORSDOF 5
ENDMDL
MODEL 3
REMARK VINA RESULT:      -8.2      1.918      2.107
REMARK  Name = 
REMARK  10 active torsions:
REMARK  status: ('A' for Active; 'I' for Inactive)
REMARK    1  A    between atoms: C_1  and  C_2
REMARK    2  A    between atoms: C_5  and  N_6
REMARK    3  A    between atoms: C_7  and  C_9
REMARK    4  A    between atoms: C_11  and  C_12
REMARK    5  A    between atoms: C_12  and  C_13
REMARK    6  A    between atoms: C_12  and  C_14
REMARK    7  A    between atoms: C_16  and  C_17
REMARK    8  A    between atoms: C_17  and  C_18
REMARK    9  A    between atoms: C_17  and  C_19
REMARK   10  A    between atoms: C_20  and  O_21
REMARK                            x       y       z     vdW  Elec       q    Type
REMARK                         _______ _______ _______ _____ _____    ______ ____
ROOT
ATOM      1  C   UNL     1       3.069   6.246  18.032  0.00  0.00    +0.000 A 
ATOM      2  C   UNL     1       2.391   5.027  18.199  0.00  0.00    +0.000 A 
ATOM      3  C   UNL     1       2.891   3.833  17.670  0.00  0.00    +0.000 A 
ATOM      4  C   UNL     1       4.060   3.890  16.898  0.00  0.00    +0.000 A 
ATOM      5  C   UNL     1       4.748   5.100  16.665  0.00  0.00    +0.000 A 
ATOM      6  C   UNL     1       4.266   6.267  17.299  0.00  0.00    +0.000 A 
ENDROOT
BRANCH   1   8
ATOM      7  N   UNL     1       2.016   8.453  17.706  0.00  0.00    +0.000 N 
ATOM      8  C   UNL     1       2.391   7.459  18.594  0.00  0.00    +0.000 C 
ATOM      9  O   UNL     1       2.196   7.474  19.805  0.00  0.00    +0.000 OA
ATOM     10  H   UNL     1       2.143   8.241  16.722  0.00  0.00    +0.000 HD
BRANCH   7  15
ATOM     11  C   UNL     1      -0.050  13.581  19.266  0.00  0.00    +0.000 C 
ATOM     12  C   UNL     1       0.464  12.253  18.803  0.00  0.00    +0.000 A 
ATOM     13  C   UNL     1      -0.388  11.150  18.708  0.00  0.00    +0.000 A 
ATOM     14  C   UNL     1       0.103   9.900  18.327  0.00  0.00    +0.000 A 
ATOM     15  C   UNL     1       1.459   9.709  18.039  0.00  0.00    +0.000 A 
ATOM     16  C   UNL     1       2.310  10.817  18.119  0.00  0.00    +0.000 A 
ATOM     17  C   UNL     1       1.820  12.076  18.491  0.00  0.00    +0.000 A 
ENDBRANCH   7  15
ENDBRANCH   1   8
BRANCH   3  18
ATOM     18  C   UNL     1       2.179   2.521  17.955  0.00  0.00    +0.000 C 
ATOM     19  C   UNL     1       3.117   1.452  18.519  0.00  0.00    +0.000 C 
ATOM     20  C   UNL     1       0.984   2.740  18.887  0.00  0.00    +0.000 C 
ENDBRANCH   3  18
BRANCH   5  21
ATOM     21  C   UNL     1       5.983   5.103  15.765  0.00  0.00    +0.000 C 
ATOM     22  C   UNL     1       7.236   4.695  16.538  0.00  0.00    +0.000 C 
ATOM     23  C   UNL     1       5.840   4.228  14.504  0.00  0.00    +0.000 C 
ENDBRANCH   5  21
BRANCH   6  24
ATOM     24  O   UNL     1       4.962   7.444  17.215  0.00  0.00    +0.000 OA
ATOM     25  H   UNL     1       5.327   7.629  18.096  0.00  0.00    +0.000 HD
ENDBRANCH   6  24
TORSDOF 5
ENDMDL
MODEL 4
REMARK VINA RESULT:      -8.1      0.240      1.026
REMARK  Name = 
REMARK  10 active torsions:
REMARK  status: ('A' for Active; 'I' for Inactive)
REMARK    1  A    between atoms: C_1  and  C_2
REMARK    2  A    between atoms: C_5  and  N_6
REMARK    3  A    between atoms: C_7  and  C_9
REMARK    4  A    between atoms: C_11  and  C_12
REMARK    5  A    between atoms: C_12  and  C_13
REMARK    6  A    between atoms: C_12  and  C_14
REMARK    7  A    between atoms: C_16  and  C_17
REMARK    8  A    between atoms: C_17  and  C_18
REMARK    9  A    between atoms: C_17  and  C_19
REMARK   10  A    between atoms: C_20  and  O_21
REMARK                            x       y       z     vdW  Elec       q    Type
REMARK                         _______ _______ _______ _____ _____    ______ ____
ROOT
ATOM      1  C   UNL     1       3.182   6.299  17.977  0.00  0.00    +0.000 A 
ATOM      2  C   UNL     1       2.464   5.103  18.144  0.00  0.00    +0.000 A 
ATOM      3  C   UNL     1       2.932   3.890  17.630  0.00  0.00    +0.000 A 
ATOM      4  C   UNL     1       4.111   3.904  16.872  0.00  0.00    +0.000 A 
ATOM      5  C   UNL     1       4.840   5.090  16.638  0.00  0.00    +0.000 A 
ATOM      6  C   UNL     1       4.387   6.276  17.258  0.00  0.00    +0.000 A 
ENDROOT
BRANCH   1   8
ATOM      7  N   UNL     1       2.040   7.485  19.814  0.00  0.00    +0.000 N 
ATOM      8  C   UNL     1       2.536   7.537  18.523  0.00  0.00    +0.000 C 
ATOM      9  O   UNL     1       2.515   8.520  17.790  0.00  0.00    +0.000 OA
ATOM     10  H   UNL     1       2.237   6.635  20.333  0.00  0.00    +0.000 HD
BRANCH   7  15
ATOM     11  C   UNL     1      -0.756  11.808  22.361  0.00  0.00    +0.000 C 
ATOM     12  C   UNL     1      -0.077  10.645  21.707  0.00  0.00    +0.000 A 
ATOM     13  C   UNL     1       0.492   9.625  22.474  0.00  0.00    +0.000 A 
ATOM     14  C   UNL     1       1.170   8.568  21.866  0.00  0.00    +0.000 A 
ATOM     15  C   UNL     1       1.312   8.501  20.475  0.00  0.00    +0.000 A 
ATOM     16  C   UNL     1       0.730   9.514  19.705  0.00  0.00    +0.000 A 
ATOM     17  C   UNL     1       0.038  10.571  20.311  0.00  0.00    +0.000 A 
ENDBRANCH   7  15
ENDBRANCH   1   8
BRANCH   3  18
ATOM     18  C   UNL     1       2.176   2.603  17.916  0.00  0.00    +0.000 C 
ATOM     19  C   UNL     1       3.076   1.504  18.484  0.00  0.00    +0.000 C 
ATOM     20  C   UNL     1       0.986   2.864  18.844  0.00  0.00    +0.000 C 
ENDBRANCH   3  18
BRANCH   5  21
ATOM     21  C   UNL     1       6.084   5.048  15.752  0.00  0.00    +0.000 C 
ATOM     22  C   UNL     1       7.324   4.658  16.554  0.00  0.00    +0.000 C 
ATOM     23  C   UNL     1       5.947   4.128  14.524  0.00  0.00    +0.000 C 
ENDBRANCH   5  21
BRANCH   6  24
ATOM     24  O   UNL     1       5.122   7.430  17.174  0.00  0.00    +0.000 OA
ATOM     25  H   UNL     1       4.627   8.124  17.641  0.00  0.00    +0.000 HD
ENDBRANCH   6  24
TORSDOF 5
ENDMDL
MODEL 5
REMARK VINA RESULT:      -7.8      1.225      3.313
REMARK  Name = 
REMARK  10 active torsions:
REMARK  status: ('A' for Active; 'I' for Inactive)
REMARK    1  A    between atoms: C_1  and  C_2
REMARK    2  A    between atoms: C_5  and  N_6
REMARK    3  A    between atoms: C_7  and  C_9
REMARK    4  A    between atoms: C_11  and  C_12
REMARK    5  A    between atoms: C_12  and  C_13
REMARK    6  A    between atoms: C_12  and  C_14
REMARK    7  A    between atoms: C_16  and  C_17
REMARK    8  A    between atoms: C_17  and  C_18
REMARK    9  A    between atoms: C_17  and  C_19
REMARK   10  A    between atoms: C_20  and  O_21
REMARK                            x       y       z     vdW  Elec       q    Type
REMARK                         _______ _______ _______ _____ _____    ______ ____
ROOT
ATOM      1  C   UNL     1       2.887   6.529  18.532  0.00  0.00    +0.000 A 
ATOM      2  C   UNL     1       3.917   6.724  17.596  0.00  0.00    +0.000 A 
ATOM      3  C   UNL     1       4.680   5.656  17.115  0.00  0.00    +0.000 A 
ATOM      4  C   UNL     1       4.442   4.381  17.645  0.00  0.00    +0.000 A 
ATOM      5  C   UNL     1       3.450   4.146  18.622  0.00  0.00    +0.000 A 
ATOM      6  C   UNL     1       2.634   5.233  19.009  0.00  0.00    +0.000 A 
ENDROOT
BRANCH   1   8
ATOM      7  N   UNL     1       1.795   7.805  20.339  0.00  0.00    +0.000 N 
ATOM      8  C   UNL     1       2.190   7.766  19.013  0.00  0.00    +0.000 C 
ATOM      9  O   UNL     1       2.040   8.671  18.197  0.00  0.00    +0.000 OA
ATOM     10  H   UNL     1       2.094   7.025  20.915  0.00  0.00    +0.000 HD
BRANCH   7  15
ATOM     11  C   UNL     1      -1.429  11.758  22.980  0.00  0.00    +0.000 C 
ATOM     12  C   UNL     1      -0.542  10.769  22.290  0.00  0.00    +0.000 A 
ATOM     13  C   UNL     1      -0.314  10.851  20.914  0.00  0.00    +0.000 A 
ATOM     14  C   UNL     1       0.471   9.898  20.263  0.00  0.00    +0.000 A 
ATOM     15  C   UNL     1       1.042   8.828  20.961  0.00  0.00    +0.000 A 
ATOM     16  C   UNL     1       0.827   8.753  22.341  0.00  0.00    +0.000 A 
ATOM     17  C   UNL     1       0.049   9.714  23.001  0.00  0.00    +0.000 A 
ENDBRANCH   7  15
ENDBRANCH   1   8
BRANCH   3  18
ATOM     18  C   UNL     1       5.718   5.896  16.031  0.00  0.00    +0.000 C 
ATOM     19  C   UNL     1       7.135   6.033  16.593  0.00  0.00    +0.000 C 
ATOM     20  C   UNL     1       5.661   4.797  14.967  0.00  0.00    +0.000 C 
ENDBRANCH   3  18
BRANCH   5  21
ATOM     21  C   UNL     1       3.281   2.743  19.203  0.00  0.00    +0.000 C 
ATOM     22  C   UNL     1       3.089   1.704  18.101  0.00  0.00    +0.000 C 
ATOM     23  C   UNL     1       4.431   2.310  20.134  0.00  0.00    +0.000 C 
ENDBRANCH   5  21
BRANCH   6  24
ATOM     24  O   UNL     1       1.574   5.041  19.855  0.00  0.00    +0.000 OA
ATOM     25  H   UNL     1       1.915   5.089  20.763  0.00  0.00    +0.000 HD
ENDBRANCH   6  24
TORSDOF 5
ENDMDL
MODEL 6
REMARK VINA RESULT:      -7.7      0.810      1.190
REMARK  Name = 
REMARK  10 active torsions:
REMARK  status: ('A' for Active; 'I' for Inactive)
REMARK    1  A    between atoms: C_1  and  C_2
REMARK    2  A    between atoms: C_5  and  N_6
REMARK    3  A    between atoms: C_7  and  C_9
REMARK    4  A    between atoms: C_11  and  C_12
REMARK    5  A    between atoms: C_12  and  C_13
REMARK    6  A    between atoms: C_12  and  C_14
REMARK    7  A    between atoms: C_16  and  C_17
REMARK    8  A    between atoms: C_17  and  C_18
REMARK    9  A    between atoms: C_17  and  C_19
REMARK   10  A    between atoms: C_20  and  O_21
REMARK                            x       y       z     vdW  Elec       q    Type
REMARK                         _______ _______ _______ _____ _____    ______ ____
ROOT
ATOM      1  C   UNL     1       3.049   6.112  18.676  0.00  0.00    +0.000 A 
ATOM      2  C   UNL     1       2.363   4.981  19.148  0.00  0.00    +0.000 A 
ATOM      3  C   UNL     1       2.787   3.685  18.837  0.00  0.00    +0.000 A 
ATOM      4  C   UNL     1       3.882   3.537  17.973  0.00  0.00    +0.000 A 
ATOM      5  C   UNL     1       4.571   4.645  17.437  0.00  0.00    +0.000 A 
ATOM      6  C   UNL     1       4.173   5.935  17.854  0.00  0.00    +0.000 A 
ENDROOT
BRANCH   1   8
ATOM      7  N   UNL     1       1.899   7.578  20.292  0.00  0.00    +0.000 N 
ATOM      8  C   UNL     1       2.451   7.441  19.030  0.00  0.00    +0.000 C 
ATOM      9  O   UNL     1       2.516   8.323  18.180  0.00  0.00    +0.000 OA
ATOM     10  H   UNL     1       2.026   6.793  20.922  0.00  0.00    +0.000 HD
BRANCH   7  15
ATOM     11  C   UNL     1      -1.106  11.982  22.431  0.00  0.00    +0.000 C 
ATOM     12  C   UNL     1      -0.274  10.873  21.867  0.00  0.00    +0.000 A 
ATOM     13  C   UNL     1      -0.040  10.781  20.493  0.00  0.00    +0.000 A 
ATOM     14  C   UNL     1       0.692   9.717  19.963  0.00  0.00    +0.000 A 
ATOM     15  C   UNL     1       1.203   8.706  20.785  0.00  0.00    +0.000 A 
ATOM     16  C   UNL     1       0.982   8.805  22.163  0.00  0.00    +0.000 A 
ATOM     17  C   UNL     1       0.258   9.877  22.700  0.00  0.00    +0.000 A 
ENDBRANCH   7  15
ENDBRANCH   1   8
BRANCH   3  18
ATOM     18  C   UNL     1       2.076   2.488  19.448  0.00  0.00    +0.000 C 
ATOM     19  C   UNL     1       1.885   2.626  20.960  0.00  0.00    +0.000 C 
ATOM     20  C   UNL     1       0.737   2.236  18.752  0.00  0.00    +0.000 C 
ENDBRANCH   3  18
BRANCH   5  21
ATOM     21  C   UNL     1       5.717   4.416  16.453  0.00  0.00    +0.000 C 
ATOM     22  C   UNL     1       5.524   5.229  15.175  0.00  0.00    +0.000 C 
ATOM     23  C   UNL     1       7.113   4.697  17.043  0.00  0.00    +0.000 C 
ENDBRANCH   5  21
BRANCH   6  24
ATOM     24  O   UNL     1       4.884   7.042  17.469  0.00  0.00    +0.000 OA
ATOM     25  H   UNL     1       4.832   7.098  16.501  0.00  0.00    +0.000 HD
ENDBRANCH   6  24
TORSDOF 5
ENDMDL
MODEL 7
REMARK VINA RESULT:      -7.7      1.550      3.597
REMARK  Name = 
REMARK  10 active torsions:
REMARK  status: ('A' for Active; 'I' for Inactive)
REMARK    1  A    between atoms: C_1  and  C_2
REMARK    2  A    between atoms: C_5  and  N_6
REMARK    3  A    between atoms: C_7  and  C_9
REMARK    4  A    between atoms: C_11  and  C_12
REMARK    5  A    between atoms: C_12  and  C_13
REMARK    6  A    between atoms: C_12  and  C_14
REMARK    7  A    between atoms: C_16  and  C_17
REMARK    8  A    between atoms: C_17  and  C_18
REMARK    9  A    between atoms: C_17  and  C_19
REMARK   10  A    between atoms: C_20  and  O_21
REMARK                            x       y       z     vdW  Elec       q    Type
REMARK                         _______ _______ _______ _____ _____    ______ ____
ROOT
ATOM      1  C   UNL     1       2.593   6.738  19.064  0.00  0.00    +0.000 A 
ATOM      2  C   UNL     1       3.580   6.882  18.076  0.00  0.00    +0.000 A 
ATOM      3  C   UNL     1       4.357   5.798  17.653  0.00  0.00    +0.000 A 
ATOM      4  C   UNL     1       4.177   4.566  18.297  0.00  0.00    +0.000 A 
ATOM      5  C   UNL     1       3.230   4.387  19.327  0.00  0.00    +0.000 A 
ATOM      6  C   UNL     1       2.397   5.480  19.656  0.00  0.00    +0.000 A 
ENDROOT
BRANCH   1   8
ATOM      7  N   UNL     1       1.523   8.126  20.800  0.00  0.00    +0.000 N 
ATOM      8  C   UNL     1       1.877   7.992  19.469  0.00  0.00    +0.000 C 
ATOM      9  O   UNL     1       1.676   8.824  18.590  0.00  0.00    +0.000 OA
ATOM     10  H   UNL     1       1.862   7.403  21.426  0.00  0.00    +0.000 HD
BRANCH   7  15
ATOM     11  C   UNL     1      -1.329  12.550  23.101  0.00  0.00    +0.000 C 
ATOM     12  C   UNL     1      -0.640  11.376  22.477  0.00  0.00    +0.000 A 
ATOM     13  C   UNL     1      -0.722  10.108  23.056  0.00  0.00    +0.000 A 
ATOM     14  C   UNL     1      -0.035   9.025  22.504  0.00  0.00    +0.000 A 
ATOM     15  C   UNL     1       0.762   9.177  21.364  0.00  0.00    +0.000 A 
ATOM     16  C   UNL     1       0.833  10.443  20.774  0.00  0.00    +0.000 A 
ATOM     17  C   UNL     1       0.136  11.530  21.320  0.00  0.00    +0.000 A 
ENDBRANCH   7  15
ENDBRANCH   1   8
BRANCH   3  18
ATOM     18  C   UNL     1       5.347   5.975  16.514  0.00  0.00    +0.000 C 
ATOM     19  C   UNL     1       6.757   6.307  17.004  0.00  0.00    +0.000 C 
ATOM     20  C   UNL     1       5.364   4.740  15.610  0.00  0.00    +0.000 C 
ENDBRANCH   3  18
BRANCH   5  21
ATOM     21  C   UNL     1       3.126   3.034  20.029  0.00  0.00    +0.000 C 
ATOM     22  C   UNL     1       2.021   2.174  19.418  0.00  0.00    +0.000 C 
ATOM     23  C   UNL     1       4.448   2.241  20.057  0.00  0.00    +0.000 C 
ENDBRANCH   5  21
BRANCH   6  24
ATOM     24  O   UNL     1       1.375   5.331  20.556  0.00  0.00    +0.000 OA
ATOM     25  H   UNL     1       1.776   5.164  21.425  0.00  0.00    +0.000 HD
ENDBRANCH   6  24
TORSDOF 5
ENDMDL
MODEL 8
REMARK VINA RESULT:      -7.6      2.168      3.945
REMARK  Name = 
REMARK  10 active torsions:
REMARK  status: ('A' for Active; 'I' for Inactive)
REMARK    1  A    between atoms: C_1  and  C_2
REMARK    2  A    between atoms: C_5  and  N_6
REMARK    3  A    between atoms: C_7  and  C_9
REMARK    4  A    between atoms: C_11  and  C_12
REMARK    5  A    between atoms: C_12  and  C_13
REMARK    6  A    between atoms: C_12  and  C_14
REMARK    7  A    between atoms: C_16  and  C_17
REMARK    8  A    between atoms: C_17  and  C_18
REMARK    9  A    between atoms: C_17  and  C_19
REMARK   10  A    between atoms: C_20  and  O_21
REMARK                            x       y       z     vdW  Elec       q    Type
REMARK                         _______ _______ _______ _____ _____    ______ ____
ROOT
ATOM      1  C   UNL     1       2.859   6.441  18.415  0.00  0.00    +0.000 A 
ATOM      2  C   UNL     1       3.863   6.575  17.441  0.00  0.00    +0.000 A 
ATOM      3  C   UNL     1       4.550   5.464  16.940  0.00  0.00    +0.000 A 
ATOM      4  C   UNL     1       4.263   4.207  17.489  0.00  0.00    +0.000 A 
ATOM      5  C   UNL     1       3.296   4.032  18.502  0.00  0.00    +0.000 A 
ATOM      6  C   UNL     1       2.555   5.163  18.910  0.00  0.00    +0.000 A 
ENDROOT
BRANCH   1   8
ATOM      7  N   UNL     1       1.900   8.670  17.968  0.00  0.00    +0.000 N 
ATOM      8  C   UNL     1       2.248   7.717  18.911  0.00  0.00    +0.000 C 
ATOM      9  O   UNL     1       2.077   7.816  20.122  0.00  0.00    +0.000 OA
ATOM     10  H   UNL     1       1.998   8.391  16.997  0.00  0.00    +0.000 HD
BRANCH   7  15
ATOM     11  C   UNL     1      -0.297  13.907  18.828  0.00  0.00    +0.000 C 
ATOM     12  C   UNL     1       0.297  12.543  18.663  0.00  0.00    +0.000 A 
ATOM     13  C   UNL     1       1.668  12.380  18.447  0.00  0.00    +0.000 A 
ATOM     14  C   UNL     1       2.213  11.112  18.240  0.00  0.00    +0.000 A 
ATOM     15  C   UNL     1       1.407   9.968  18.231  0.00  0.00    +0.000 A 
ATOM     16  C   UNL     1       0.036  10.128  18.462  0.00  0.00    +0.000 A 
ATOM     17  C   UNL     1      -0.513  11.398  18.681  0.00  0.00    +0.000 A 
ENDBRANCH   7  15
ENDBRANCH   1   8
BRANCH   3  18
ATOM     18  C   UNL     1       5.560   5.642  15.819  0.00  0.00    +0.000 C 
ATOM     19  C   UNL     1       6.991   5.807  16.335  0.00  0.00    +0.000 C 
ATOM     20  C   UNL     1       5.474   4.486  14.819  0.00  0.00    +0.000 C 
ENDBRANCH   3  18
BRANCH   5  21
ATOM     21  C   UNL     1       3.073   2.643  19.100  0.00  0.00    +0.000 C 
ATOM     22  C   UNL     1       3.542   1.546  18.146  0.00  0.00    +0.000 C 
ATOM     23  C   UNL     1       3.726   2.446  20.482  0.00  0.00    +0.000 C 
ENDBRANCH   5  21
BRANCH   6  24
ATOM     24  O   UNL     1       1.516   5.034  19.795  0.00  0.00    +0.000 OA
ATOM     25  H   UNL     1       1.898   5.010  20.688  0.00  0.00    +0.000 HD
ENDBRANCH   6  24
TORSDOF 5
ENDMDL
MODEL 9
REMARK VINA RESULT:      -7.6      1.124      1.642
REMARK  Name = 
REMARK  10 active torsions:
REMARK  status: ('A' for Active; 'I' for Inactive)
REMARK    1  A    between atoms: C_1  and  C_2
REMARK    2  A    between atoms: C_5  and  N_6
REMARK    3  A    between atoms: C_7  and  C_9
REMARK    4  A    between atoms: C_11  and  C_12
REMARK    5  A    between atoms: C_12  and  C_13
REMARK    6  A    between atoms: C_12  and  C_14
REMARK    7  A    between atoms: C_16  and  C_17
REMARK    8  A    between atoms: C_17  and  C_18
REMARK    9  A    between atoms: C_17  and  C_19
REMARK   10  A    between atoms: C_20  and  O_21
REMARK                            x       y       z     vdW  Elec       q    Type
REMARK                         _______ _______ _______ _____ _____    ______ ____
ROOT
ATOM      1  C   UNL     1       3.027   6.386  18.127  0.00  0.00    +0.000 A 
ATOM      2  C   UNL     1       2.289   5.387  18.784  0.00  0.00    +0.000 A 
ATOM      3  C   UNL     1       2.681   4.045  18.751  0.00  0.00    +0.000 A 
ATOM      4  C   UNL     1       3.801   3.703  17.980  0.00  0.00    +0.000 A 
ATOM      5  C   UNL     1       4.545   4.666  17.266  0.00  0.00    +0.000 A 
ATOM      6  C   UNL     1       4.175   6.023  17.405  0.00  0.00    +0.000 A 
ENDROOT
BRANCH   1   8
ATOM      7  N   UNL     1       1.731   8.117  19.314  0.00  0.00    +0.000 N 
ATOM      8  C   UNL     1       2.461   7.773  18.189  0.00  0.00    +0.000 C 
ATOM      9  O   UNL     1       2.707   8.515  17.244  0.00  0.00    +0.000 OA
ATOM     10  H   UNL     1       1.715   7.431  20.061  0.00  0.00    +0.000 HD
BRANCH   7  15
ATOM     11  C   UNL     1      -1.247  12.914  20.371  0.00  0.00    +0.000 C 
ATOM     12  C   UNL     1      -0.425  11.699  20.071  0.00  0.00    +0.000 A 
ATOM     13  C   UNL     1      -0.347  11.190  18.773  0.00  0.00    +0.000 A 
ATOM     14  C   UNL     1       0.377  10.027  18.504  0.00  0.00    +0.000 A 
ATOM     15  C   UNL     1       1.035   9.330  19.523  0.00  0.00    +0.000 A 
ATOM     16  C   UNL     1       0.970   9.847  20.822  0.00  0.00    +0.000 A 
ATOM     17  C   UNL     1       0.254  11.020  21.094  0.00  0.00    +0.000 A 
ENDBRANCH   7  15
ENDBRANCH   1   8
BRANCH   3  18
ATOM     18  C   UNL     1       1.910   3.011  19.554  0.00  0.00    +0.000 C 
ATOM     19  C   UNL     1       1.270   3.600  20.813  0.00  0.00    +0.000 C 
ATOM     20  C   UNL     1       0.858   2.318  18.684  0.00  0.00    +0.000 C 
ENDBRANCH   3  18
BRANCH   5  21
ATOM     21  C   UNL     1       5.719   4.219  16.396  0.00  0.00    +0.000 C 
ATOM     22  C   UNL     1       5.549   4.685  14.951  0.00  0.00    +0.000 C 
ATOM     23  C   UNL     1       7.096   4.661  16.928  0.00  0.00    +0.000 C 
ENDBRANCH   5  21
BRANCH   6  24
ATOM     24  O   UNL     1       4.935   7.013  16.841  0.00  0.00    +0.000 OA
ATOM     25  H   UNL     1       5.862   6.835  17.071  0.00  0.00    +0.000 HD
ENDBRANCH   6  24
TORSDOF 5
ENDMDL
