MODEL 1
REMARK VINA RESULT:      -7.4      0.000      0.000
REMARK  Name = 
REMARK  7 active torsions:
REMARK  status: ('A' for Active; 'I' for Inactive)
REMARK    1  A    between atoms: C_1  and  C_2
REMARK    2  A    between atoms: C_2  and  O_4
REMARK    3  A    between atoms: O_4  and  C_5
REMARK    4  A    between atoms: C_5  and  C_6
REMARK    5  A    between atoms: C_14  and  C_15
REMARK    6  A    between atoms: C_24  and  C_25
REMARK    7  A    between atoms: C_25  and  O_26
REMARK                            x       y       z     vdW  Elec       q    Type
REMARK                         _______ _______ _______ _____ _____    ______ ____
ROOT
ATOM      1  C   UNL     1       1.826   7.499  19.744  0.00  0.00    +0.000 A 
ATOM      2  C   UNL     1       1.473   6.438  20.595  0.00  0.00    +0.000 A 
ATOM      3  C   UNL     1       2.121   5.201  20.582  0.00  0.00    +0.000 A 
ATOM      4  C   UNL     1       1.635   4.206  21.469  0.00  0.00    +0.000 A 
ATOM      5  C   UNL     1       2.196   2.937  21.524  0.00  0.00    +0.000 A 
ATOM      6  C   UNL     1       3.248   2.695  20.688  0.00  0.00    +0.000 A 
ATOM      7  C   UNL     1       3.723   3.649  19.803  0.00  0.00    +0.000 A 
ATOM      8  C   UNL     1       3.201   4.973  19.697  0.00  0.00    +0.000 A 
ATOM      9  C   UNL     1       3.616   6.066  18.806  0.00  0.00    +0.000 A 
ATOM     10  C   UNL     1       2.935   7.350  18.871  0.00  0.00    +0.000 A 
ATOM     11  O   UNL     1       4.739   3.105  19.062  0.00  0.00    +0.000 OA
ATOM     12  C   UNL     1       4.952   1.837  19.697  0.00  0.00    +0.000 C 
ATOM     13  O   UNL     1       3.920   1.511  20.634  0.00  0.00    +0.000 OA
ENDROOT
BRANCH   9  14
ATOM     14  C   UNL     1       4.683   5.826  17.767  0.00  0.00    +0.000 A 
ATOM     15  C   UNL     1       6.031   6.224  17.959  0.00  0.00    +0.000 A 
ATOM     16  C   UNL     1       7.058   5.838  17.084  0.00  0.00    +0.000 A 
ATOM     17  C   UNL     1       6.698   5.206  15.918  0.00  0.00    +0.000 A 
ATOM     18  C   UNL     1       5.387   4.920  15.645  0.00  0.00    +0.000 A 
ATOM     19  C   UNL     1       4.385   5.153  16.563  0.00  0.00    +0.000 A 
ATOM     20  O   UNL     1       5.218   4.378  14.410  0.00  0.00    +0.000 OA
ATOM     21  C   UNL     1       6.581   4.361  13.937  0.00  0.00    +0.000 C 
ATOM     22  O   UNL     1       7.534   4.806  14.925  0.00  0.00    +0.000 OA
ENDBRANCH   9  14
BRANCH   1  23
ATOM     23  C   UNL     1       0.903   8.709  19.801  0.00  0.00    +0.000 C 
BRANCH  23  24
ATOM     24  O   UNL     1       0.153   8.791  21.012  0.00  0.00    +0.000 OA
BRANCH  24  26
ATOM     25  C   UNL     1      -0.047   9.501  23.227  0.00  0.00    +0.000 C 
ATOM     26  C   UNL     1       0.489   9.800  21.863  0.00  0.00    +0.000 C 
ATOM     27  O   UNL     1       1.135  10.792  21.567  0.00  0.00    +0.000 OA
ENDBRANCH  24  26
ENDBRANCH  23  24
ENDBRANCH   1  23
BRANCH  10  28
ATOM     28  C   UNL     1       3.346   8.474  17.915  0.00  0.00    +0.000 C 
BRANCH  28  29
ATOM     29  O   UNL     1       2.317   9.061  17.135  0.00  0.00    +0.000 OA
ATOM     30  H   UNL     1       1.494   9.008  17.650  0.00  0.00    +0.000 HD
ENDBRANCH  28  29
ENDBRANCH  10  28
TORSDOF 6
ENDMDL
MODEL 2
REMARK VINA RESULT:      -7.3      6.706     11.617
REMARK  Name = 
REMARK  7 active torsions:
REMARK  status: ('A' for Active; 'I' for Inactive)
REMARK    1  A    between atoms: C_1  and  C_2
REMARK    2  A    between atoms: C_2  and  O_4
REMARK    3  A    between atoms: O_4  and  C_5
REMARK    4  A    between atoms: C_5  and  C_6
REMARK    5  A    between atoms: C_14  and  C_15
REMARK    6  A    between atoms: C_24  and  C_25
REMARK    7  A    between atoms: C_25  and  O_26
REMARK                            x       y       z     vdW  Elec       q    Type
REMARK                         _______ _______ _______ _____ _____    ______ ____
ROOT
ATOM      1  C   UNL     1      -0.366  11.726  20.420  0.00  0.00    +0.000 A 
ATOM      2  C   UNL     1      -0.661  11.173  19.163  0.00  0.00    +0.000 A 
ATOM      3  C   UNL     1      -1.917  11.276  18.559  0.00  0.00    +0.000 A 
ATOM      4  C   UNL     1      -2.087  10.638  17.305  0.00  0.00    +0.000 A 
ATOM      5  C   UNL     1      -3.300  10.663  16.628  0.00  0.00    +0.000 A 
ATOM      6  C   UNL     1      -4.321  11.345  17.225  0.00  0.00    +0.000 A 
ATOM      7  C   UNL     1      -4.177  11.958  18.459  0.00  0.00    +0.000 A 
ATOM      8  C   UNL     1      -2.961  11.978  19.207  0.00  0.00    +0.000 A 
ATOM      9  C   UNL     1      -2.686  12.590  20.514  0.00  0.00    +0.000 A 
ATOM     10  C   UNL     1      -1.356  12.487  21.096  0.00  0.00    +0.000 A 
ATOM     11  O   UNL     1      -5.376  12.511  18.826  0.00  0.00    +0.000 OA
ATOM     12  C   UNL     1      -6.177  12.344  17.649  0.00  0.00    +0.000 C 
ATOM     13  O   UNL     1      -5.564  11.481  16.684  0.00  0.00    +0.000 OA
ENDROOT
BRANCH   9  14
ATOM     14  C   UNL     1      -3.802  13.245  21.290  0.00  0.00    +0.000 A 
ATOM     15  C   UNL     1      -4.117  14.621  21.151  0.00  0.00    +0.000 A 
ATOM     16  C   UNL     1      -5.266  15.188  21.724  0.00  0.00    +0.000 A 
ATOM     17  C   UNL     1      -5.998  14.410  22.587  0.00  0.00    +0.000 A 
ATOM     18  C   UNL     1      -5.647  13.111  22.839  0.00  0.00    +0.000 A 
ATOM     19  C   UNL     1      -4.613  12.493  22.167  0.00  0.00    +0.000 A 
ATOM     20  O   UNL     1      -6.434  12.532  23.785  0.00  0.00    +0.000 OA
ATOM     21  C   UNL     1      -7.321  13.625  24.099  0.00  0.00    +0.000 C 
ATOM     22  O   UNL     1      -7.103  14.792  23.278  0.00  0.00    +0.000 OA
ENDBRANCH   9  14
BRANCH   1  23
ATOM     23  C   UNL     1       1.008  11.374  20.974  0.00  0.00    +0.000 C 
BRANCH  23  24
ATOM     24  O   UNL     1       1.162   9.986  21.262  0.00  0.00    +0.000 OA
BRANCH  24  26
ATOM     25  C   UNL     1      -0.448   8.383  21.800  0.00  0.00    +0.000 C 
ATOM     26  C   UNL     1       0.420   9.497  22.294  0.00  0.00    +0.000 C 
ATOM     27  O   UNL     1       0.460   9.893  23.448  0.00  0.00    +0.000 OA
ENDBRANCH  24  26
ENDBRANCH  23  24
ENDBRANCH   1  23
BRANCH  10  28
ATOM     28  C   UNL     1      -1.083  13.094  22.475  0.00  0.00    +0.000 C 
BRANCH  28  29
ATOM     29  O   UNL     1      -1.319  12.263  23.600  0.00  0.00    +0.000 OA
ATOM     30  H   UNL     1      -2.251  11.986  23.568  0.00  0.00    +0.000 HD
ENDBRANCH  28  29
ENDBRANCH  10  28
TORSDOF 6
ENDMDL
MODEL 3
REMARK VINA RESULT:      -7.2      4.636     10.596
REMARK  Name = 
REMARK  7 active torsions:
REMARK  status: ('A' for Active; 'I' for Inactive)
REMARK    1  A    between atoms: C_1  and  C_2
REMARK    2  A    between atoms: C_2  and  O_4
REMARK    3  A    between atoms: O_4  and  C_5
REMARK    4  A    between atoms: C_5  and  C_6
REMARK    5  A    between atoms: C_14  and  C_15
REMARK    6  A    between atoms: C_24  and  C_25
REMARK    7  A    between atoms: C_25  and  O_26
REMARK                            x       y       z     vdW  Elec       q    Type
REMARK                         _______ _______ _______ _____ _____    ______ ____
ROOT
ATOM      1  C   UNL     1       0.324  10.224  18.698  0.00  0.00    +0.000 A 
ATOM      2  C   UNL     1      -0.548   9.918  17.640  0.00  0.00    +0.000 A 
ATOM      3  C   UNL     1      -1.855  10.407  17.562  0.00  0.00    +0.000 A 
ATOM      4  C   UNL     1      -2.639   9.987  16.458  0.00  0.00    +0.000 A 
ATOM      5  C   UNL     1      -3.955  10.398  16.295  0.00  0.00    +0.000 A 
ATOM      6  C   UNL     1      -4.457  11.239  17.246  0.00  0.00    +0.000 A 
ATOM      7  C   UNL     1      -3.711  11.644  18.341  0.00  0.00    +0.000 A 
ATOM      8  C   UNL     1      -2.353  11.266  18.569  0.00  0.00    +0.000 A 
ATOM      9  C   UNL     1      -1.464  11.628  19.682  0.00  0.00    +0.000 A 
ATOM     10  C   UNL     1      -0.099  11.123  19.711  0.00  0.00    +0.000 A 
ATOM     11  O   UNL     1      -4.490  12.433  19.146  0.00  0.00    +0.000 OA
ATOM     12  C   UNL     1      -5.676  12.615  18.361  0.00  0.00    +0.000 C 
ATOM     13  O   UNL     1      -5.720  11.748  17.222  0.00  0.00    +0.000 OA
ENDROOT
BRANCH   9  14
ATOM     14  C   UNL     1      -1.993  12.445  20.835  0.00  0.00    +0.000 A 
ATOM     15  C   UNL     1      -1.915  13.861  20.859  0.00  0.00    +0.000 A 
ATOM     16  C   UNL     1      -2.570  14.630  21.833  0.00  0.00    +0.000 A 
ATOM     17  C   UNL     1      -3.151  13.966  22.887  0.00  0.00    +0.000 A 
ATOM     18  C   UNL     1      -3.133  12.599  22.956  0.00  0.00    +0.000 A 
ATOM     19  C   UNL     1      -2.630  11.825  21.931  0.00  0.00    +0.000 A 
ATOM     20  O   UNL     1      -3.675  12.128  24.111  0.00  0.00    +0.000 OA
ATOM     21  C   UNL     1      -4.031  13.365  24.761  0.00  0.00    +0.000 C 
ATOM     22  O   UNL     1      -3.779  14.531  23.949  0.00  0.00    +0.000 OA
ENDBRANCH   9  14
BRANCH   1  23
ATOM     23  C   UNL     1       1.648   9.473  18.681  0.00  0.00    +0.000 C 
BRANCH  23  24
ATOM     24  O   UNL     1       1.706   8.408  19.628  0.00  0.00    +0.000 OA
BRANCH  24  26
ATOM     25  C   UNL     1       2.996   7.521  17.896  0.00  0.00    +0.000 C 
ATOM     26  C   UNL     1       2.377   7.289  19.238  0.00  0.00    +0.000 C 
ATOM     27  O   UNL     1       2.473   6.257  19.883  0.00  0.00    +0.000 OA
ENDBRANCH  24  26
ENDBRANCH  23  24
ENDBRANCH   1  23
BRANCH  10  28
ATOM     28  C   UNL     1       0.812  11.472  20.891  0.00  0.00    +0.000 C 
BRANCH  28  29
ATOM     29  O   UNL     1       0.954  10.490  21.904  0.00  0.00    +0.000 OA
ATOM     30  H   UNL     1       0.672  10.893  22.744  0.00  0.00    +0.000 HD
ENDBRANCH  28  29
ENDBRANCH  10  28
TORSDOF 6
ENDMDL
MODEL 4
REMARK VINA RESULT:      -7.1      1.867      6.817
REMARK  Name = 
REMARK  7 active torsions:
REMARK  status: ('A' for Active; 'I' for Inactive)
REMARK    1  A    between atoms: C_1  and  C_2
REMARK    2  A    between atoms: C_2  and  O_4
REMARK    3  A    between atoms: O_4  and  C_5
REMARK    4  A    between atoms: C_5  and  C_6
REMARK    5  A    between atoms: C_14  and  C_15
REMARK    6  A    between atoms: C_24  and  C_25
REMARK    7  A    between atoms: C_25  and  O_26
REMARK                            x       y       z     vdW  Elec       q    Type
REMARK                         _______ _______ _______ _____ _____    ______ ____
ROOT
ATOM      1  C   UNL     1       5.602   4.826  16.434  0.00  0.00    +0.000 A 
ATOM      2  C   UNL     1       5.198   3.524  16.775  0.00  0.00    +0.000 A 
ATOM      3  C   UNL     1       4.083   3.254  17.573  0.00  0.00    +0.000 A 
ATOM      4  C   UNL     1       3.813   1.895  17.870  0.00  0.00    +0.000 A 
ATOM      5  C   UNL     1       2.740   1.518  18.669  0.00  0.00    +0.000 A 
ATOM      6  C   UNL     1       1.949   2.523  19.145  0.00  0.00    +0.000 A 
ATOM      7  C   UNL     1       2.209   3.857  18.880  0.00  0.00    +0.000 A 
ATOM      8  C   UNL     1       3.287   4.316  18.064  0.00  0.00    +0.000 A 
ATOM      9  C   UNL     1       3.663   5.692  17.711  0.00  0.00    +0.000 A 
ATOM     10  C   UNL     1       4.814   5.930  16.853  0.00  0.00    +0.000 A 
ATOM     11  O   UNL     1       1.286   4.631  19.531  0.00  0.00    +0.000 OA
ATOM     12  C   UNL     1       0.360   3.661  20.041  0.00  0.00    +0.000 C 
ATOM     13  O   UNL     1       0.849   2.321  19.924  0.00  0.00    +0.000 OA
ENDROOT
BRANCH   9  14
ATOM     14  C   UNL     1       2.911   6.856  18.309  0.00  0.00    +0.000 A 
ATOM     15  C   UNL     1       2.412   7.923  17.519  0.00  0.00    +0.000 A 
ATOM     16  C   UNL     1       1.555   8.904  18.043  0.00  0.00    +0.000 A 
ATOM     17  C   UNL     1       1.351   8.914  19.401  0.00  0.00    +0.000 A 
ATOM     18  C   UNL     1       1.923   7.968  20.209  0.00  0.00    +0.000 A 
ATOM     19  C   UNL     1       2.640   6.908  19.693  0.00  0.00    +0.000 A 
ATOM     20  O   UNL     1       1.682   8.192  21.528  0.00  0.00    +0.000 OA
ATOM     21  C   UNL     1       0.891   9.397  21.452  0.00  0.00    +0.000 C 
ATOM     22  O   UNL     1       0.606   9.809  20.099  0.00  0.00    +0.000 OA
ENDBRANCH   9  14
BRANCH   1  23
ATOM     23  C   UNL     1       6.926   4.918  15.689  0.00  0.00    +0.000 C 
BRANCH  23  24
ATOM     24  O   UNL     1       6.950   4.158  14.483  0.00  0.00    +0.000 OA
BRANCH  24  26
ATOM     25  C   UNL     1       6.958   4.108  12.148  0.00  0.00    +0.000 C 
ATOM     26  C   UNL     1       7.462   4.782  13.386  0.00  0.00    +0.000 C 
ATOM     27  O   UNL     1       8.208   5.747  13.402  0.00  0.00    +0.000 OA
ENDBRANCH  24  26
ENDBRANCH  23  24
ENDBRANCH   1  23
BRANCH  10  28
ATOM     28  C   UNL     1       5.224   7.367  16.518  0.00  0.00    +0.000 C 
BRANCH  28  29
ATOM     29  O   UNL     1       6.447   7.830  17.066  0.00  0.00    +0.000 OA
ATOM     30  H   UNL     1       6.545   7.424  17.945  0.00  0.00    +0.000 HD
ENDBRANCH  28  29
ENDBRANCH  10  28
TORSDOF 6
ENDMDL
MODEL 5
REMARK VINA RESULT:      -7.1      7.238     11.646
REMARK  Name = 
REMARK  7 active torsions:
REMARK  status: ('A' for Active; 'I' for Inactive)
REMARK    1  A    between atoms: C_1  and  C_2
REMARK    2  A    between atoms: C_2  and  O_4
REMARK    3  A    between atoms: O_4  and  C_5
REMARK    4  A    between atoms: C_5  and  C_6
REMARK    5  A    between atoms: C_14  and  C_15
REMARK    6  A    between atoms: C_24  and  C_25
REMARK    7  A    between atoms: C_25  and  O_26
REMARK                            x       y       z     vdW  Elec       q    Type
REMARK                         _______ _______ _______ _____ _____    ______ ____
ROOT
ATOM      1  C   UNL     1      -3.404  10.955  16.773  0.00  0.00    +0.000 A 
ATOM      2  C   UNL     1      -2.078  10.640  17.118  0.00  0.00    +0.000 A 
ATOM      3  C   UNL     1      -1.523  10.933  18.365  0.00  0.00    +0.000 A 
ATOM      4  C   UNL     1      -0.161  10.594  18.564  0.00  0.00    +0.000 A 
ATOM      5  C   UNL     1       0.493  10.858  19.761  0.00  0.00    +0.000 A 
ATOM      6  C   UNL     1      -0.244  11.452  20.744  0.00  0.00    +0.000 A 
ATOM      7  C   UNL     1      -1.570  11.808  20.560  0.00  0.00    +0.000 A 
ATOM      8  C   UNL     1      -2.306  11.561  19.362  0.00  0.00    +0.000 A 
ATOM      9  C   UNL     1      -3.705  11.887  19.049  0.00  0.00    +0.000 A 
ATOM     10  C   UNL     1      -4.255  11.538  17.748  0.00  0.00    +0.000 A 
ATOM     11  O   UNL     1      -2.027  12.430  21.691  0.00  0.00    +0.000 OA
ATOM     12  C   UNL     1      -0.944  12.250  22.613  0.00  0.00    +0.000 C 
ATOM     13  O   UNL     1       0.242  11.759  21.979  0.00  0.00    +0.000 OA
ENDROOT
BRANCH   9  14
ATOM     14  C   UNL     1      -4.538  12.662  20.040  0.00  0.00    +0.000 A 
ATOM     15  C   UNL     1      -4.483  14.076  20.137  0.00  0.00    +0.000 A 
ATOM     16  C   UNL     1      -5.387  14.809  20.921  0.00  0.00    +0.000 A 
ATOM     17  C   UNL     1      -6.230  14.106  21.748  0.00  0.00    +0.000 A 
ATOM     18  C   UNL     1      -6.220  12.737  21.769  0.00  0.00    +0.000 A 
ATOM     19  C   UNL     1      -5.447  12.002  20.895  0.00  0.00    +0.000 A 
ATOM     20  O   UNL     1      -7.054  12.224  22.712  0.00  0.00    +0.000 OA
ATOM     21  C   UNL     1      -7.587  13.436  23.284  0.00  0.00    +0.000 C 
ATOM     22  O   UNL     1      -7.131  14.632  22.616  0.00  0.00    +0.000 OA
ENDBRANCH   9  14
BRANCH   1  23
ATOM     23  C   UNL     1      -3.773  10.696  15.319  0.00  0.00    +0.000 C 
BRANCH  23  24
ATOM     24  O   UNL     1      -2.660  10.315  14.513  0.00  0.00    +0.000 OA
BRANCH  24  26
ATOM     25  C   UNL     1      -4.434   9.790  13.089  0.00  0.00    +0.000 C 
ATOM     26  C   UNL     1      -2.952   9.780  13.295  0.00  0.00    +0.000 C 
ATOM     27  O   UNL     1      -2.136   9.366  12.487  0.00  0.00    +0.000 OA
ENDBRANCH  24  26
ENDBRANCH  23  24
ENDBRANCH   1  23
BRANCH  10  28
ATOM     28  C   UNL     1      -5.702  11.913  17.412  0.00  0.00    +0.000 C 
BRANCH  28  29
ATOM     29  O   UNL     1      -5.931  13.234  16.951  0.00  0.00    +0.000 OA
ATOM     30  H   UNL     1      -5.371  13.371  16.168  0.00  0.00    +0.000 HD
ENDBRANCH  28  29
ENDBRANCH  10  28
TORSDOF 6
ENDMDL
MODEL 6
REMARK VINA RESULT:      -7.0      4.774     10.733
REMARK  Name = 
REMARK  7 active torsions:
REMARK  status: ('A' for Active; 'I' for Inactive)
REMARK    1  A    between atoms: C_1  and  C_2
REMARK    2  A    between atoms: C_2  and  O_4
REMARK    3  A    between atoms: O_4  and  C_5
REMARK    4  A    between atoms: C_5  and  C_6
REMARK    5  A    between atoms: C_14  and  C_15
REMARK    6  A    between atoms: C_24  and  C_25
REMARK    7  A    between atoms: C_25  and  O_26
REMARK                            x       y       z     vdW  Elec       q    Type
REMARK                         _______ _______ _______ _____ _____    ______ ____
ROOT
ATOM      1  C   UNL     1       0.193  10.357  18.788  0.00  0.00    +0.000 A 
ATOM      2  C   UNL     1      -0.734  10.045  17.780  0.00  0.00    +0.000 A 
ATOM      3  C   UNL     1      -2.039  10.544  17.761  0.00  0.00    +0.000 A 
ATOM      4  C   UNL     1      -2.881  10.116  16.703  0.00  0.00    +0.000 A 
ATOM      5  C   UNL     1      -4.200  10.538  16.600  0.00  0.00    +0.000 A 
ATOM      6  C   UNL     1      -4.646  11.397  17.563  0.00  0.00    +0.000 A 
ATOM      7  C   UNL     1      -3.843  11.810  18.613  0.00  0.00    +0.000 A 
ATOM      8  C   UNL     1      -2.479  11.423  18.778  0.00  0.00    +0.000 A 
ATOM      9  C   UNL     1      -1.532  11.792  19.840  0.00  0.00    +0.000 A 
ATOM     10  C   UNL     1      -0.172  11.275  19.808  0.00  0.00    +0.000 A 
ATOM     11  O   UNL     1      -4.573  12.617  19.444  0.00  0.00    +0.000 OA
ATOM     12  C   UNL     1      -5.796  12.800  18.716  0.00  0.00    +0.000 C 
ATOM     13  O   UNL     1      -5.905  11.917  17.595  0.00  0.00    +0.000 OA
ENDROOT
BRANCH   9  14
ATOM     14  C   UNL     1      -1.995  12.631  21.006  0.00  0.00    +0.000 A 
ATOM     15  C   UNL     1      -2.473  12.056  22.211  0.00  0.00    +0.000 A 
ATOM     16  C   UNL     1      -2.726  12.824  23.358  0.00  0.00    +0.000 A 
ATOM     17  C   UNL     1      -2.672  14.191  23.235  0.00  0.00    +0.000 A 
ATOM     18  C   UNL     1      -2.334  14.781  22.046  0.00  0.00    +0.000 A 
ATOM     19  C   UNL     1      -1.934  14.040  20.954  0.00  0.00    +0.000 A 
ATOM     20  O   UNL     1      -2.422  16.137  22.093  0.00  0.00    +0.000 OA
ATOM     21  C   UNL     1      -2.860  16.329  23.454  0.00  0.00    +0.000 C 
ATOM     22  O   UNL     1      -2.936  15.100  24.208  0.00  0.00    +0.000 OA
ENDBRANCH   9  14
BRANCH   1  23
ATOM     23  C   UNL     1       1.508   9.594  18.717  0.00  0.00    +0.000 C 
BRANCH  23  24
ATOM     24  O   UNL     1       1.596   8.530  19.663  0.00  0.00    +0.000 OA
BRANCH  24  26
ATOM     25  C   UNL     1       2.882   7.667  17.915  0.00  0.00    +0.000 C 
ATOM     26  C   UNL     1       2.286   7.425  19.266  0.00  0.00    +0.000 C 
ATOM     27  O   UNL     1       2.412   6.397  19.912  0.00  0.00    +0.000 OA
ENDBRANCH  24  26
ENDBRANCH  23  24
ENDBRANCH   1  23
BRANCH  10  28
ATOM     28  C   UNL     1       0.801  11.632  20.936  0.00  0.00    +0.000 C 
BRANCH  28  29
ATOM     29  O   UNL     1       1.036  10.638  21.919  0.00  0.00    +0.000 OA
ATOM     30  H   UNL     1       0.767  11.007  22.778  0.00  0.00    +0.000 HD
ENDBRANCH  28  29
ENDBRANCH  10  28
TORSDOF 6
ENDMDL
MODEL 7
REMARK VINA RESULT:      -7.0      6.215     11.518
REMARK  Name = 
REMARK  7 active torsions:
REMARK  status: ('A' for Active; 'I' for Inactive)
REMARK    1  A    between atoms: C_1  and  C_2
REMARK    2  A    between atoms: C_2  and  O_4
REMARK    3  A    between atoms: O_4  and  C_5
REMARK    4  A    between atoms: C_5  and  C_6
REMARK    5  A    between atoms: C_14  and  C_15
REMARK    6  A    between atoms: C_24  and  C_25
REMARK    7  A    between atoms: C_25  and  O_26
REMARK                            x       y       z     vdW  Elec       q    Type
REMARK                         _______ _______ _______ _____ _____    ______ ____
ROOT
ATOM      1  C   UNL     1      -0.323  11.293  19.664  0.00  0.00    +0.000 A 
ATOM      2  C   UNL     1      -0.982  10.837  18.509  0.00  0.00    +0.000 A 
ATOM      3  C   UNL     1      -2.313  11.142  18.218  0.00  0.00    +0.000 A 
ATOM      4  C   UNL     1      -2.863  10.584  17.037  0.00  0.00    +0.000 A 
ATOM      5  C   UNL     1      -4.182  10.809  16.664  0.00  0.00    +0.000 A 
ATOM      6  C   UNL     1      -4.924  11.607  17.487  0.00  0.00    +0.000 A 
ATOM      7  C   UNL     1      -4.408  12.145  18.655  0.00  0.00    +0.000 A 
ATOM      8  C   UNL     1      -3.062  11.961  19.095  0.00  0.00    +0.000 A 
ATOM      9  C   UNL     1      -2.403  12.477  20.304  0.00  0.00    +0.000 A 
ATOM     10  C   UNL     1      -1.005  12.161  20.555  0.00  0.00    +0.000 A 
ATOM     11  O   UNL     1      -5.392  12.850  19.295  0.00  0.00    +0.000 OA
ATOM     12  C   UNL     1      -6.461  12.845  18.339  0.00  0.00    +0.000 C 
ATOM     13  O   UNL     1      -6.224  11.941  17.254  0.00  0.00    +0.000 OA
ENDROOT
BRANCH   9  14
ATOM     14  C   UNL     1      -3.199  13.255  21.322  0.00  0.00    +0.000 A 
ATOM     15  C   UNL     1      -3.898  12.623  22.383  0.00  0.00    +0.000 A 
ATOM     16  C   UNL     1      -4.479  13.349  23.434  0.00  0.00    +0.000 A 
ATOM     17  C   UNL     1      -4.514  14.718  23.321  0.00  0.00    +0.000 A 
ATOM     18  C   UNL     1      -3.956  15.353  22.244  0.00  0.00    +0.000 A 
ATOM     19  C   UNL     1      -3.247  14.665  21.281  0.00  0.00    +0.000 A 
ATOM     20  O   UNL     1      -4.167  16.696  22.263  0.00  0.00    +0.000 OA
ATOM     21  C   UNL     1      -4.929  16.828  23.481  0.00  0.00    +0.000 C 
ATOM     22  O   UNL     1      -5.077  15.586  24.201  0.00  0.00    +0.000 OA
ENDBRANCH   9  14
BRANCH   1  23
ATOM     23  C   UNL     1       1.073  10.726  19.878  0.00  0.00    +0.000 C 
BRANCH  23  24
ATOM     24  O   UNL     1       1.071   9.370  20.321  0.00  0.00    +0.000 OA
BRANCH  24  26
ATOM     25  C   UNL     1      -0.423   8.402  21.832  0.00  0.00    +0.000 C 
ATOM     26  C   UNL     1       0.849   9.170  21.650  0.00  0.00    +0.000 C 
ATOM     27  O   UNL     1       1.574   9.545  22.556  0.00  0.00    +0.000 OA
ENDBRANCH  24  26
ENDBRANCH  23  24
ENDBRANCH   1  23
BRANCH  10  28
ATOM     28  C   UNL     1      -0.333  12.669  21.834  0.00  0.00    +0.000 C 
BRANCH  28  29
ATOM     29  O   UNL     1      -0.483  11.874  22.998  0.00  0.00    +0.000 OA
ATOM     30  H   UNL     1      -1.338  11.414  22.929  0.00  0.00    +0.000 HD
ENDBRANCH  28  29
ENDBRANCH  10  28
TORSDOF 6
ENDMDL
MODEL 8
REMARK VINA RESULT:      -6.9      1.906      6.666
REMARK  Name = 
REMARK  7 active torsions:
REMARK  status: ('A' for Active; 'I' for Inactive)
REMARK    1  A    between atoms: C_1  and  C_2
REMARK    2  A    between atoms: C_2  and  O_4
REMARK    3  A    between atoms: O_4  and  C_5
REMARK    4  A    between atoms: C_5  and  C_6
REMARK    5  A    between atoms: C_14  and  C_15
REMARK    6  A    between atoms: C_24  and  C_25
REMARK    7  A    between atoms: C_25  and  O_26
REMARK                            x       y       z     vdW  Elec       q    Type
REMARK                         _______ _______ _______ _____ _____    ______ ____
ROOT
ATOM      1  C   UNL     1       5.498   4.974  16.502  0.00  0.00    +0.000 A 
ATOM      2  C   UNL     1       5.151   3.639  16.770  0.00  0.00    +0.000 A 
ATOM      3  C   UNL     1       4.051   3.278  17.551  0.00  0.00    +0.000 A 
ATOM      4  C   UNL     1       3.840   1.893  17.772  0.00  0.00    +0.000 A 
ATOM      5  C   UNL     1       2.788   1.426  18.549  0.00  0.00    +0.000 A 
ATOM      6  C   UNL     1       1.955   2.368  19.082  0.00  0.00    +0.000 A 
ATOM      7  C   UNL     1       2.158   3.725  18.892  0.00  0.00    +0.000 A 
ATOM      8  C   UNL     1       3.212   4.275  18.102  0.00  0.00    +0.000 A 
ATOM      9  C   UNL     1       3.528   5.684  17.827  0.00  0.00    +0.000 A 
ATOM     10  C   UNL     1       4.665   6.018  16.983  0.00  0.00    +0.000 A 
ATOM     11  O   UNL     1       1.205   4.421  19.587  0.00  0.00    +0.000 OA
ATOM     12  C   UNL     1       0.323   3.385  20.042  0.00  0.00    +0.000 C 
ATOM     13  O   UNL     1       0.868   2.075  19.849  0.00  0.00    +0.000 OA
ENDROOT
BRANCH   9  14
ATOM     14  C   UNL     1       2.730   6.778  18.491  0.00  0.00    +0.000 A 
ATOM     15  C   UNL     1       2.501   6.807  19.891  0.00  0.00    +0.000 A 
ATOM     16  C   UNL     1       1.925   7.915  20.532  0.00  0.00    +0.000 A 
ATOM     17  C   UNL     1       1.413   8.915  19.742  0.00  0.00    +0.000 A 
ATOM     18  C   UNL     1       1.508   8.855  18.377  0.00  0.00    +0.000 A 
ATOM     19  C   UNL     1       2.206   7.851  17.739  0.00  0.00    +0.000 A 
ATOM     20  O   UNL     1       0.867   9.886  17.764  0.00  0.00    +0.000 OA
ATOM     21  C   UNL     1       0.354  10.599  18.908  0.00  0.00    +0.000 C 
ATOM     22  O   UNL     1       0.772  10.033  20.169  0.00  0.00    +0.000 OA
ENDBRANCH   9  14
BRANCH   1  23
ATOM     23  C   UNL     1       6.815   5.165  15.763  0.00  0.00    +0.000 C 
BRANCH  23  24
ATOM     24  O   UNL     1       7.062   4.160  14.780  0.00  0.00    +0.000 OA
BRANCH  24  26
ATOM     25  C   UNL     1       6.306   3.702  12.618  0.00  0.00    +0.000 C 
ATOM     26  C   UNL     1       7.144   4.586  13.489  0.00  0.00    +0.000 C 
ATOM     27  O   UNL     1       7.789   5.545  13.097  0.00  0.00    +0.000 OA
ENDBRANCH  24  26
ENDBRANCH  23  24
ENDBRANCH   1  23
BRANCH  10  28
ATOM     28  C   UNL     1       5.013   7.488  16.729  0.00  0.00    +0.000 C 
BRANCH  28  29
ATOM     29  O   UNL     1       6.321   7.908  17.080  0.00  0.00    +0.000 OA
ATOM     30  H   UNL     1       6.638   8.497  16.374  0.00  0.00    +0.000 HD
ENDBRANCH  28  29
ENDBRANCH  10  28
TORSDOF 6
ENDMDL
MODEL 9
REMARK VINA RESULT:      -6.8      8.705     11.612
REMARK  Name = 
REMARK  7 active torsions:
REMARK  status: ('A' for Active; 'I' for Inactive)
REMARK    1  A    between atoms: C_1  and  C_2
REMARK    2  A    between atoms: C_2  and  O_4
REMARK    3  A    between atoms: O_4  and  C_5
REMARK    4  A    between atoms: C_5  and  C_6
REMARK    5  A    between atoms: C_14  and  C_15
REMARK    6  A    between atoms: C_24  and  C_25
REMARK    7  A    between atoms: C_25  and  O_26
REMARK                            x       y       z     vdW  Elec       q    Type
REMARK                         _______ _______ _______ _____ _____    ______ ____
ROOT
ATOM      1  C   UNL     1      -3.454  11.220  17.348  0.00  0.00    +0.000 A 
ATOM      2  C   UNL     1      -4.830  11.024  17.551  0.00  0.00    +0.000 A 
ATOM      3  C   UNL     1      -5.496  11.425  18.711  0.00  0.00    +0.000 A 
ATOM      4  C   UNL     1      -6.880  11.130  18.799  0.00  0.00    +0.000 A 
ATOM      5  C   UNL     1      -7.633  11.469  19.916  0.00  0.00    +0.000 A 
ATOM      6  C   UNL     1      -6.976  12.114  20.925  0.00  0.00    +0.000 A 
ATOM      7  C   UNL     1      -5.620  12.392  20.864  0.00  0.00    +0.000 A 
ATOM      8  C   UNL     1      -4.788  12.080  19.747  0.00  0.00    +0.000 A 
ATOM      9  C   UNL     1      -3.350  12.324  19.564  0.00  0.00    +0.000 A 
ATOM     10  C   UNL     1      -2.699  11.917  18.327  0.00  0.00    +0.000 A 
ATOM     11  O   UNL     1      -5.233  12.989  22.034  0.00  0.00    +0.000 OA
ATOM     12  C   UNL     1      -6.480  13.210  22.707  0.00  0.00    +0.000 C 
ATOM     13  O   UNL     1      -7.572  12.531  22.077  0.00  0.00    +0.000 OA
ENDROOT
BRANCH   9  14
ATOM     14  C   UNL     1      -2.536  12.911  20.690  0.00  0.00    +0.000 A 
ATOM     15  C   UNL     1      -1.891  12.103  21.661  0.00  0.00    +0.000 A 
ATOM     16  C   UNL     1      -0.984  12.633  22.593  0.00  0.00    +0.000 A 
ATOM     17  C   UNL     1      -0.868  14.000  22.664  0.00  0.00    +0.000 A 
ATOM     18  C   UNL     1      -1.576  14.814  21.821  0.00  0.00    +0.000 A 
ATOM     19  C   UNL     1      -2.352  14.306  20.800  0.00  0.00    +0.000 A 
ATOM     20  O   UNL     1      -1.402  16.133  22.101  0.00  0.00    +0.000 OA
ATOM     21  C   UNL     1      -0.501  16.050  23.225  0.00  0.00    +0.000 C 
ATOM     22  O   UNL     1      -0.092  14.700  23.531  0.00  0.00    +0.000 OA
ENDBRANCH   9  14
BRANCH   1  23
ATOM     23  C   UNL     1      -2.887  10.575  16.091  0.00  0.00    +0.000 C 
BRANCH  23  24
ATOM     24  O   UNL     1      -3.882  10.262  15.118  0.00  0.00    +0.000 OA
BRANCH  24  26
ATOM     25  C   UNL     1      -4.587   9.873  12.926  0.00  0.00    +0.000 C 
ATOM     26  C   UNL     1      -3.431   9.939  13.875  0.00  0.00    +0.000 C 
ATOM     27  O   UNL     1      -2.265   9.743  13.571  0.00  0.00    +0.000 OA
ENDBRANCH  24  26
ENDBRANCH  23  24
ENDBRANCH   1  23
BRANCH  10  28
ATOM     28  C   UNL     1      -1.193  12.139  18.156  0.00  0.00    +0.000 C 
BRANCH  28  29
ATOM     29  O   UNL     1      -0.790  13.347  17.532  0.00  0.00    +0.000 OA
ATOM     30  H   UNL     1      -0.102  13.749  18.090  0.00  0.00    +0.000 HD
ENDBRANCH  28  29
ENDBRANCH  10  28
TORSDOF 6
ENDMDL
