MODEL 1
REMARK VINA RESULT:      -8.1      0.000      0.000
REMARK  Name = 
REMARK  4 active torsions:
REMARK  status: ('A' for Active; 'I' for Inactive)
REMARK    1  A    between atoms: C_2  and  C_3
REMARK    2  A    between atoms: C_4  and  C_5
REMARK    3  A    between atoms: N_15  and  C_16
REMARK    4  A    between atoms: N_26  and  O_27
REMARK                            x       y       z     vdW  Elec       q    Type
REMARK                         _______ _______ _______ _____ _____    ______ ____
ROOT
ATOM      1  C   UNL     1       2.408   5.826  19.348  0.00  0.00    +0.000 A 
ATOM      2  C   UNL     1       1.739   6.129  20.556  0.00  0.00    +0.000 A 
ATOM      3  C   UNL     1       1.245   7.413  20.808  0.00  0.00    +0.000 A 
ATOM      4  C   UNL     1       1.441   8.368  19.834  0.00  0.00    +0.000 A 
ATOM      5  C   UNL     1       2.114   8.089  18.616  0.00  0.00    +0.000 A 
ATOM      6  C   UNL     1       2.600   6.816  18.365  0.00  0.00    +0.000 A 
ATOM      7  C   UNL     1       2.181   9.348  17.751  0.00  0.00    +0.000 C 
ATOM      8  C   UNL     1       1.489  10.307  18.659  0.00  0.00    +0.000 A 
ATOM      9  S   UNL     1       1.130  11.942  18.624  0.00  0.00    +0.000 S 
ATOM     10  C   UNL     1       0.341  11.764  20.193  0.00  0.00    +0.000 A 
ATOM     11  N   UNL     1      -0.267  12.828  20.769  0.00  0.00    +0.000 N 
ATOM     12  N   UNL     1       0.414  10.546  20.709  0.00  0.00    +0.000 NA
ATOM     13  C   UNL     1       1.060   9.747  19.832  0.00  0.00    +0.000 A 
ATOM     14  H   UNL     1      -0.114  13.744  20.359  0.00  0.00    +0.000 HD
ENDROOT
BRANCH  11  15
ATOM     15  C   UNL     1      -1.397  12.791  21.619  0.00  0.00    +0.000 A 
ATOM     16  C   UNL     1      -1.322  12.891  23.018  0.00  0.00    +0.000 A 
ATOM     17  C   UNL     1      -2.470  12.818  23.811  0.00  0.00    +0.000 A 
ATOM     18  C   UNL     1      -3.712  12.670  23.211  0.00  0.00    +0.000 A 
ATOM     19  F   UNL     1      -4.806  12.574  23.978  0.00  0.00    +0.000 F 
ATOM     20  C   UNL     1      -3.834  12.617  21.832  0.00  0.00    +0.000 A 
ATOM     21  C   UNL     1      -2.681  12.686  21.053  0.00  0.00    +0.000 A 
ATOM     22  F   UNL     1      -2.804  12.623  19.717  0.00  0.00    +0.000 F 
ENDBRANCH  11  15
BRANCH   1  24
ATOM     23  C   UNL     1       3.737   3.869  19.995  0.00  0.00    +0.000 C 
ATOM     24  C   UNL     1       2.912   4.468  19.122  0.00  0.00    +0.000 C 
BRANCH  23  26
ATOM     25  O   UNL     1       5.022   1.904  20.464  0.00  0.00    +0.000 OA
ATOM     26  C   UNL     1       4.248   2.499  19.727  0.00  0.00    +0.000 C 
ATOM     27  N   UNL     1       3.745   1.957  18.573  0.00  0.00    +0.000 N 
ATOM     28  H   UNL     1       3.076   2.396  17.954  0.00  0.00    +0.000 HD
BRANCH  27  29
ATOM     29  O   UNL     1       4.133   0.636  18.261  0.00  0.00    +0.000 OA
ATOM     30  H   UNL     1       3.826   0.539  17.333  0.00  0.00    +0.000 HD
ENDBRANCH  27  29
ENDBRANCH  23  26
ENDBRANCH   1  24
TORSDOF 4
ENDMDL
MODEL 2
REMARK VINA RESULT:      -8.0      6.407     10.623
REMARK  Name = 
REMARK  4 active torsions:
REMARK  status: ('A' for Active; 'I' for Inactive)
REMARK    1  A    between atoms: C_2  and  C_3
REMARK    2  A    between atoms: C_4  and  C_5
REMARK    3  A    between atoms: N_15  and  C_16
REMARK    4  A    between atoms: N_26  and  O_27
REMARK                            x       y       z     vdW  Elec       q    Type
REMARK                         _______ _______ _______ _____ _____    ______ ____
ROOT
ATOM      1  C   UNL     1       0.662   9.662  19.338  0.00  0.00    +0.000 A 
ATOM      2  C   UNL     1       1.504   9.812  18.212  0.00  0.00    +0.000 A 
ATOM      3  C   UNL     1       2.439   8.829  17.870  0.00  0.00    +0.000 A 
ATOM      4  C   UNL     1       2.508   7.714  18.677  0.00  0.00    +0.000 A 
ATOM      5  C   UNL     1       1.677   7.544  19.815  0.00  0.00    +0.000 A 
ATOM      6  C   UNL     1       0.748   8.516  20.151  0.00  0.00    +0.000 A 
ATOM      7  C   UNL     1       1.995   6.218  20.506  0.00  0.00    +0.000 C 
ATOM      8  C   UNL     1       3.090   5.733  19.615  0.00  0.00    +0.000 A 
ATOM      9  S   UNL     1       4.113   4.409  19.588  0.00  0.00    +0.000 S 
ATOM     10  C   UNL     1       4.828   5.040  18.103  0.00  0.00    +0.000 A 
ATOM     11  N   UNL     1       5.796   4.337  17.467  0.00  0.00    +0.000 N 
ATOM     12  N   UNL     1       4.342   6.209  17.713  0.00  0.00    +0.000 NA
ATOM     13  C   UNL     1       3.368   6.577  18.574  0.00  0.00    +0.000 A 
ATOM     14  H   UNL     1       6.202   3.541  17.949  0.00  0.00    +0.000 HD
ENDROOT
BRANCH  11  15
ATOM     15  C   UNL     1       6.042   4.317  16.074  0.00  0.00    +0.000 A 
ATOM     16  C   UNL     1       5.331   3.511  15.171  0.00  0.00    +0.000 A 
ATOM     17  C   UNL     1       5.637   3.509  13.808  0.00  0.00    +0.000 A 
ATOM     18  C   UNL     1       6.643   4.335  13.327  0.00  0.00    +0.000 A 
ATOM     19  F   UNL     1       6.949   4.309  12.023  0.00  0.00    +0.000 F 
ATOM     20  C   UNL     1       7.334   5.182  14.178  0.00  0.00    +0.000 A 
ATOM     21  C   UNL     1       7.023   5.171  15.536  0.00  0.00    +0.000 A 
ATOM     22  F   UNL     1       7.705   5.986  16.358  0.00  0.00    +0.000 F 
ENDBRANCH  11  15
BRANCH   1  24
ATOM     23  C   UNL     1      -1.378  10.948  18.893  0.00  0.00    +0.000 C 
ATOM     24  C   UNL     1      -0.304  10.716  19.663  0.00  0.00    +0.000 C 
BRANCH  23  26
ATOM     25  O   UNL     1      -2.052  12.974  19.977  0.00  0.00    +0.000 OA
ATOM     26  C   UNL     1      -2.327  12.038  19.238  0.00  0.00    +0.000 C 
ATOM     27  N   UNL     1      -3.545  11.902  18.624  0.00  0.00    +0.000 N 
ATOM     28  H   UNL     1      -3.805  11.167  17.978  0.00  0.00    +0.000 HD
BRANCH  27  29
ATOM     29  O   UNL     1      -4.497  12.919  18.850  0.00  0.00    +0.000 OA
ATOM     30  H   UNL     1      -5.245  12.424  19.251  0.00  0.00    +0.000 HD
ENDBRANCH  27  29
ENDBRANCH  23  26
ENDBRANCH   1  24
TORSDOF 4
ENDMDL
MODEL 3
REMARK VINA RESULT:      -8.0      1.226      1.395
REMARK  Name = 
REMARK  4 active torsions:
REMARK  status: ('A' for Active; 'I' for Inactive)
REMARK    1  A    between atoms: C_2  and  C_3
REMARK    2  A    between atoms: C_4  and  C_5
REMARK    3  A    between atoms: N_15  and  C_16
REMARK    4  A    between atoms: N_26  and  O_27
REMARK                            x       y       z     vdW  Elec       q    Type
REMARK                         _______ _______ _______ _____ _____    ______ ____
ROOT
ATOM      1  C   UNL     1       2.327   6.818  19.765  0.00  0.00    +0.000 A 
ATOM      2  C   UNL     1       1.644   7.080  20.976  0.00  0.00    +0.000 A 
ATOM      3  C   UNL     1       0.946   8.276  21.169  0.00  0.00    +0.000 A 
ATOM      4  C   UNL     1       0.955   9.188  20.136  0.00  0.00    +0.000 A 
ATOM      5  C   UNL     1       1.637   8.949  18.915  0.00  0.00    +0.000 A 
ATOM      6  C   UNL     1       2.326   7.762  18.721  0.00  0.00    +0.000 A 
ATOM      7  C   UNL     1       1.470  10.145  17.976  0.00  0.00    +0.000 C 
ATOM      8  C   UNL     1       0.647  11.030  18.850  0.00  0.00    +0.000 A 
ATOM      9  S   UNL     1       0.016  12.576  18.733  0.00  0.00    +0.000 S 
ATOM     10  C   UNL     1      -0.695  12.366  20.334  0.00  0.00    +0.000 A 
ATOM     11  N   UNL     1      -1.461  13.348  20.868  0.00  0.00    +0.000 N 
ATOM     12  N   UNL     1      -0.405  11.213  20.917  0.00  0.00    +0.000 NA
ATOM     13  C   UNL     1       0.346  10.480  20.067  0.00  0.00    +0.000 A 
ATOM     14  H   UNL     1      -1.474  14.249  20.400  0.00  0.00    +0.000 HD
ENDROOT
BRANCH  11  15
ATOM     15  C   UNL     1      -2.549  13.176  21.756  0.00  0.00    +0.000 A 
ATOM     16  C   UNL     1      -2.420  13.185  23.154  0.00  0.00    +0.000 A 
ATOM     17  C   UNL     1      -3.526  12.978  23.983  0.00  0.00    +0.000 A 
ATOM     18  C   UNL     1      -4.781  12.787  23.423  0.00  0.00    +0.000 A 
ATOM     19  F   UNL     1      -5.832  12.564  24.222  0.00  0.00    +0.000 F 
ATOM     20  C   UNL     1      -4.957  12.821  22.049  0.00  0.00    +0.000 A 
ATOM     21  C   UNL     1      -3.846  13.022  21.233  0.00  0.00    +0.000 A 
ATOM     22  F   UNL     1      -4.022  13.042  19.901  0.00  0.00    +0.000 F 
ENDBRANCH  11  15
BRANCH   1  24
ATOM     23  C   UNL     1       4.366   5.519  19.353  0.00  0.00    +0.000 C 
ATOM     24  C   UNL     1       3.048   5.552  19.602  0.00  0.00    +0.000 C 
BRANCH  23  26
ATOM     25  O   UNL     1       6.144   4.100  18.608  0.00  0.00    +0.000 OA
ATOM     26  C   UNL     1       5.064   4.220  19.171  0.00  0.00    +0.000 C 
ATOM     27  N   UNL     1       4.383   3.165  19.719  0.00  0.00    +0.000 N 
ATOM     28  H   UNL     1       3.508   3.222  20.224  0.00  0.00    +0.000 HD
BRANCH  27  29
ATOM     29  O   UNL     1       4.993   1.895  19.642  0.00  0.00    +0.000 OA
ATOM     30  H   UNL     1       5.891   2.111  19.306  0.00  0.00    +0.000 HD
ENDBRANCH  27  29
ENDBRANCH  23  26
ENDBRANCH   1  24
TORSDOF 4
ENDMDL
MODEL 4
REMARK VINA RESULT:      -7.8      1.458      1.976
REMARK  Name = 
REMARK  4 active torsions:
REMARK  status: ('A' for Active; 'I' for Inactive)
REMARK    1  A    between atoms: C_2  and  C_3
REMARK    2  A    between atoms: C_4  and  C_5
REMARK    3  A    between atoms: N_15  and  C_16
REMARK    4  A    between atoms: N_26  and  O_27
REMARK                            x       y       z     vdW  Elec       q    Type
REMARK                         _______ _______ _______ _____ _____    ______ ____
ROOT
ATOM      1  C   UNL     1       2.301   7.003  19.757  0.00  0.00    +0.000 A 
ATOM      2  C   UNL     1       1.602   7.248  20.962  0.00  0.00    +0.000 A 
ATOM      3  C   UNL     1       0.871   8.426  21.148  0.00  0.00    +0.000 A 
ATOM      4  C   UNL     1       0.865   9.336  20.114  0.00  0.00    +0.000 A 
ATOM      5  C   UNL     1       1.563   9.115  18.898  0.00  0.00    +0.000 A 
ATOM      6  C   UNL     1       2.285   7.946  18.712  0.00  0.00    +0.000 A 
ATOM      7  C   UNL     1       1.373  10.304  17.957  0.00  0.00    +0.000 C 
ATOM      8  C   UNL     1       0.520  11.168  18.823  0.00  0.00    +0.000 A 
ATOM      9  S   UNL     1      -0.150  12.698  18.699  0.00  0.00    +0.000 S 
ATOM     10  C   UNL     1      -0.869  12.471  20.295  0.00  0.00    +0.000 A 
ATOM     11  N   UNL     1      -1.664  13.433  20.821  0.00  0.00    +0.000 N 
ATOM     12  N   UNL     1      -0.554  11.326  20.881  0.00  0.00    +0.000 NA
ATOM     13  C   UNL     1       0.224  10.612  20.038  0.00  0.00    +0.000 A 
ATOM     14  H   UNL     1      -1.697  14.333  20.352  0.00  0.00    +0.000 HD
ENDROOT
BRANCH  11  15
ATOM     15  C   UNL     1      -2.755  13.233  21.700  0.00  0.00    +0.000 A 
ATOM     16  C   UNL     1      -4.082  13.076  21.270  0.00  0.00    +0.000 A 
ATOM     17  C   UNL     1      -5.124  12.912  22.186  0.00  0.00    +0.000 A 
ATOM     18  C   UNL     1      -4.848  12.876  23.545  0.00  0.00    +0.000 A 
ATOM     19  F   UNL     1      -5.854  12.746  24.418  0.00  0.00    +0.000 F 
ATOM     20  C   UNL     1      -3.545  12.979  24.007  0.00  0.00    +0.000 A 
ATOM     21  C   UNL     1      -2.515  13.147  23.084  0.00  0.00    +0.000 A 
ATOM     22  F   UNL     1      -1.257  13.257  23.539  0.00  0.00    +0.000 F 
ENDBRANCH  11  15
BRANCH   1  24
ATOM     23  C   UNL     1       3.340   5.250  18.391  0.00  0.00    +0.000 C 
ATOM     24  C   UNL     1       3.057   5.755  19.602  0.00  0.00    +0.000 C 
BRANCH  23  26
ATOM     25  O   UNL     1       4.493   3.520  17.205  0.00  0.00    +0.000 OA
ATOM     26  C   UNL     1       4.089   3.973  18.268  0.00  0.00    +0.000 C 
ATOM     27  N   UNL     1       4.301   3.358  19.473  0.00  0.00    +0.000 N 
ATOM     28  H   UNL     1       4.017   3.712  20.378  0.00  0.00    +0.000 HD
BRANCH  27  29
ATOM     29  O   UNL     1       5.051   2.161  19.463  0.00  0.00    +0.000 OA
ATOM     30  H   UNL     1       5.174   1.980  20.421  0.00  0.00    +0.000 HD
ENDBRANCH  27  29
ENDBRANCH  23  26
ENDBRANCH   1  24
TORSDOF 4
ENDMDL
MODEL 5
REMARK VINA RESULT:      -7.8      6.286     10.596
REMARK  Name = 
REMARK  4 active torsions:
REMARK  status: ('A' for Active; 'I' for Inactive)
REMARK    1  A    between atoms: C_2  and  C_3
REMARK    2  A    between atoms: C_4  and  C_5
REMARK    3  A    between atoms: N_15  and  C_16
REMARK    4  A    between atoms: N_26  and  O_27
REMARK                            x       y       z     vdW  Elec       q    Type
REMARK                         _______ _______ _______ _____ _____    ______ ____
ROOT
ATOM      1  C   UNL     1       0.867   9.147  19.716  0.00  0.00    +0.000 A 
ATOM      2  C   UNL     1       1.689   9.401  18.594  0.00  0.00    +0.000 A 
ATOM      3  C   UNL     1       2.623   8.459  18.151  0.00  0.00    +0.000 A 
ATOM      4  C   UNL     1       2.710   7.277  18.853  0.00  0.00    +0.000 A 
ATOM      5  C   UNL     1       1.900   7.001  19.985  0.00  0.00    +0.000 A 
ATOM      6  C   UNL     1       0.972   7.933  20.422  0.00  0.00    +0.000 A 
ATOM      7  C   UNL     1       2.236   5.621  20.550  0.00  0.00    +0.000 C 
ATOM      8  C   UNL     1       3.317   5.224  19.602  0.00  0.00    +0.000 A 
ATOM      9  S   UNL     1       4.347   3.914  19.440  0.00  0.00    +0.000 S 
ATOM     10  C   UNL     1       5.033   4.679  18.006  0.00  0.00    +0.000 A 
ATOM     11  N   UNL     1       5.994   4.042  17.294  0.00  0.00    +0.000 N 
ATOM     12  N   UNL     1       4.535   5.875  17.729  0.00  0.00    +0.000 NA
ATOM     13  C   UNL     1       3.575   6.159  18.635  0.00  0.00    +0.000 A 
ATOM     14  H   UNL     1       6.412   3.208  17.697  0.00  0.00    +0.000 HD
ENDROOT
BRANCH  11  15
ATOM     15  C   UNL     1       6.216   4.147  15.901  0.00  0.00    +0.000 A 
ATOM     16  C   UNL     1       5.577   3.338  14.948  0.00  0.00    +0.000 A 
ATOM     17  C   UNL     1       5.858   3.465  13.585  0.00  0.00    +0.000 A 
ATOM     18  C   UNL     1       6.764   4.425  13.156  0.00  0.00    +0.000 A 
ATOM     19  F   UNL     1       7.049   4.524  11.851  0.00  0.00    +0.000 F 
ATOM     20  C   UNL     1       7.379   5.276  14.061  0.00  0.00    +0.000 A 
ATOM     21  C   UNL     1       7.094   5.135  15.417  0.00  0.00    +0.000 A 
ATOM     22  F   UNL     1       7.701   5.956  16.289  0.00  0.00    +0.000 F 
ENDBRANCH  11  15
BRANCH   1  24
ATOM     23  C   UNL     1      -0.137  10.600  21.416  0.00  0.00    +0.000 C 
ATOM     24  C   UNL     1      -0.099  10.161  20.149  0.00  0.00    +0.000 C 
BRANCH  23  26
ATOM     25  O   UNL     1      -1.460  12.577  21.144  0.00  0.00    +0.000 OA
ATOM     26  C   UNL     1      -1.143  11.614  21.829  0.00  0.00    +0.000 C 
ATOM     27  N   UNL     1      -1.698  11.350  23.054  0.00  0.00    +0.000 N 
ATOM     28  H   UNL     1      -1.493  10.548  23.637  0.00  0.00    +0.000 HD
BRANCH  27  29
ATOM     29  O   UNL     1      -2.703  12.230  23.509  0.00  0.00    +0.000 OA
ATOM     30  H   UNL     1      -3.046  12.611  22.671  0.00  0.00    +0.000 HD
ENDBRANCH  27  29
ENDBRANCH  23  26
ENDBRANCH   1  24
TORSDOF 4
ENDMDL
MODEL 6
REMARK VINA RESULT:      -7.8      1.125      1.464
REMARK  Name = 
REMARK  4 active torsions:
REMARK  status: ('A' for Active; 'I' for Inactive)
REMARK    1  A    between atoms: C_2  and  C_3
REMARK    2  A    between atoms: C_4  and  C_5
REMARK    3  A    between atoms: N_15  and  C_16
REMARK    4  A    between atoms: N_26  and  O_27
REMARK                            x       y       z     vdW  Elec       q    Type
REMARK                         _______ _______ _______ _____ _____    ______ ____
ROOT
ATOM      1  C   UNL     1       2.447   6.535  19.604  0.00  0.00    +0.000 A 
ATOM      2  C   UNL     1       1.683   6.770  20.771  0.00  0.00    +0.000 A 
ATOM      3  C   UNL     1       1.019   7.985  20.969  0.00  0.00    +0.000 A 
ATOM      4  C   UNL     1       1.144   8.942  19.986  0.00  0.00    +0.000 A 
ATOM      5  C   UNL     1       1.909   8.731  18.809  0.00  0.00    +0.000 A 
ATOM      6  C   UNL     1       2.564   7.526  18.611  0.00  0.00    +0.000 A 
ATOM      7  C   UNL     1       1.862   9.974  17.920  0.00  0.00    +0.000 C 
ATOM      8  C   UNL     1       1.008  10.853  18.772  0.00  0.00    +0.000 A 
ATOM      9  S   UNL     1       0.449  12.428  18.683  0.00  0.00    +0.000 S 
ATOM     10  C   UNL     1      -0.392  12.175  20.214  0.00  0.00    +0.000 A 
ATOM     11  N   UNL     1      -1.158  13.163  20.735  0.00  0.00    +0.000 N 
ATOM     12  N   UNL     1      -0.193  10.985  20.760  0.00  0.00    +0.000 NA
ATOM     13  C   UNL     1       0.593  10.261  19.934  0.00  0.00    +0.000 A 
ATOM     14  H   UNL     1      -1.100  14.085  20.312  0.00  0.00    +0.000 HD
ENDROOT
BRANCH  11  15
ATOM     15  C   UNL     1      -2.318  12.997  21.528  0.00  0.00    +0.000 A 
ATOM     16  C   UNL     1      -3.615  12.905  21.000  0.00  0.00    +0.000 A 
ATOM     17  C   UNL     1      -4.728  12.772  21.835  0.00  0.00    +0.000 A 
ATOM     18  C   UNL     1      -4.553  12.701  23.209  0.00  0.00    +0.000 A 
ATOM     19  F   UNL     1      -5.626  12.600  24.005  0.00  0.00    +0.000 F 
ATOM     20  C   UNL     1      -3.285  12.738  23.767  0.00  0.00    +0.000 A 
ATOM     21  C   UNL     1      -2.184  12.877  22.925  0.00  0.00    +0.000 A 
ATOM     22  F   UNL     1      -0.959  12.923  23.472  0.00  0.00    +0.000 F 
ENDBRANCH  11  15
BRANCH   1  24
ATOM     23  C   UNL     1       2.748   4.155  20.111  0.00  0.00    +0.000 C 
ATOM     24  C   UNL     1       3.130   5.249  19.435  0.00  0.00    +0.000 C 
BRANCH  23  26
ATOM     25  O   UNL     1       4.060   2.288  20.835  0.00  0.00    +0.000 OA
ATOM     26  C   UNL     1       3.473   2.870  19.933  0.00  0.00    +0.000 C 
ATOM     27  N   UNL     1       3.402   2.388  18.652  0.00  0.00    +0.000 N 
ATOM     28  H   UNL     1       2.899   2.816  17.885  0.00  0.00    +0.000 HD
BRANCH  27  29
ATOM     29  O   UNL     1       4.019   1.144  18.397  0.00  0.00    +0.000 OA
ATOM     30  H   UNL     1       3.249   0.552  18.253  0.00  0.00    +0.000 HD
ENDBRANCH  27  29
ENDBRANCH  23  26
ENDBRANCH   1  24
TORSDOF 4
ENDMDL
MODEL 7
REMARK VINA RESULT:      -7.8      1.124      1.399
REMARK  Name = 
REMARK  4 active torsions:
REMARK  status: ('A' for Active; 'I' for Inactive)
REMARK    1  A    between atoms: C_2  and  C_3
REMARK    2  A    between atoms: C_4  and  C_5
REMARK    3  A    between atoms: N_15  and  C_16
REMARK    4  A    between atoms: N_26  and  O_27
REMARK                            x       y       z     vdW  Elec       q    Type
REMARK                         _______ _______ _______ _____ _____    ______ ____
ROOT
ATOM      1  C   UNL     1       2.266   5.833  19.576  0.00  0.00    +0.000 A 
ATOM      2  C   UNL     1       1.757   6.251  20.827  0.00  0.00    +0.000 A 
ATOM      3  C   UNL     1       1.353   7.573  21.040  0.00  0.00    +0.000 A 
ATOM      4  C   UNL     1       1.475   8.449  19.984  0.00  0.00    +0.000 A 
ATOM      5  C   UNL     1       1.987   8.054  18.720  0.00  0.00    +0.000 A 
ATOM      6  C   UNL     1       2.384   6.743  18.508  0.00  0.00    +0.000 A 
ATOM      7  C   UNL     1       2.008   9.247  17.764  0.00  0.00    +0.000 C 
ATOM      8  C   UNL     1       1.470  10.300  18.673  0.00  0.00    +0.000 A 
ATOM      9  S   UNL     1       1.182  11.945  18.561  0.00  0.00    +0.000 S 
ATOM     10  C   UNL     1       0.577  11.914  20.218  0.00  0.00    +0.000 A 
ATOM     11  N   UNL     1       0.088  13.045  20.782  0.00  0.00    +0.000 N 
ATOM     12  N   UNL     1       0.656  10.731  20.810  0.00  0.00    +0.000 NA
ATOM     13  C   UNL     1       1.158   9.842  19.925  0.00  0.00    +0.000 A 
ATOM     14  H   UNL     1       0.232  13.922  20.291  0.00  0.00    +0.000 HD
ENDROOT
BRANCH  11  15
ATOM     15  C   UNL     1      -0.934  13.124  21.756  0.00  0.00    +0.000 A 
ATOM     16  C   UNL     1      -2.081  12.314  21.748  0.00  0.00    +0.000 A 
ATOM     17  C   UNL     1      -3.075  12.457  22.720  0.00  0.00    +0.000 A 
ATOM     18  C   UNL     1      -2.920  13.397  23.729  0.00  0.00    +0.000 A 
ATOM     19  F   UNL     1      -3.889  13.547  24.642  0.00  0.00    +0.000 F 
ATOM     20  C   UNL     1      -1.781  14.182  23.800  0.00  0.00    +0.000 A 
ATOM     21  C   UNL     1      -0.800  14.033  22.822  0.00  0.00    +0.000 A 
ATOM     22  F   UNL     1       0.297  14.805  22.890  0.00  0.00    +0.000 F 
ENDBRANCH  11  15
BRANCH   1  24
ATOM     23  C   UNL     1       3.895   4.010  19.766  0.00  0.00    +0.000 C 
ATOM     24  C   UNL     1       2.679   4.438  19.393  0.00  0.00    +0.000 C 
BRANCH  23  26
ATOM     25  O   UNL     1       4.960   1.944  20.340  0.00  0.00    +0.000 OA
ATOM     26  C   UNL     1       4.292   2.594  19.548  0.00  0.00    +0.000 C 
ATOM     27  N   UNL     1       3.814   2.080  18.371  0.00  0.00    +0.000 N 
ATOM     28  H   UNL     1       3.229   2.568  17.704  0.00  0.00    +0.000 HD
BRANCH  27  29
ATOM     29  O   UNL     1       4.096   0.723  18.100  0.00  0.00    +0.000 OA
ATOM     30  H   UNL     1       3.268   0.275  18.382  0.00  0.00    +0.000 HD
ENDBRANCH  27  29
ENDBRANCH  23  26
ENDBRANCH   1  24
TORSDOF 4
ENDMDL
MODEL 8
REMARK VINA RESULT:      -7.7      2.804      4.244
REMARK  Name = 
REMARK  4 active torsions:
REMARK  status: ('A' for Active; 'I' for Inactive)
REMARK    1  A    between atoms: C_2  and  C_3
REMARK    2  A    between atoms: C_4  and  C_5
REMARK    3  A    between atoms: N_15  and  C_16
REMARK    4  A    between atoms: N_26  and  O_27
REMARK                            x       y       z     vdW  Elec       q    Type
REMARK                         _______ _______ _______ _____ _____    ______ ____
ROOT
ATOM      1  C   UNL     1       2.678   6.118  19.010  0.00  0.00    +0.000 A 
ATOM      2  C   UNL     1       2.926   7.099  18.023  0.00  0.00    +0.000 A 
ATOM      3  C   UNL     1       2.469   8.412  18.176  0.00  0.00    +0.000 A 
ATOM      4  C   UNL     1       1.765   8.707  19.323  0.00  0.00    +0.000 A 
ATOM      5  C   UNL     1       1.499   7.738  20.325  0.00  0.00    +0.000 A 
ATOM      6  C   UNL     1       1.955   6.438  20.175  0.00  0.00    +0.000 A 
ATOM      7  C   UNL     1       0.693   8.364  21.463  0.00  0.00    +0.000 C 
ATOM      8  C   UNL     1       0.556   9.752  20.933  0.00  0.00    +0.000 A 
ATOM      9  S   UNL     1      -0.212  11.153  21.430  0.00  0.00    +0.000 S 
ATOM     10  C   UNL     1       0.415  11.962  19.993  0.00  0.00    +0.000 A 
ATOM     11  N   UNL     1       0.167  13.279  19.795  0.00  0.00    +0.000 N 
ATOM     12  N   UNL     1       1.108  11.179  19.180  0.00  0.00    +0.000 NA
ATOM     13  C   UNL     1       1.175   9.945  19.727  0.00  0.00    +0.000 A 
ATOM     14  H   UNL     1      -0.513  13.732  20.399  0.00  0.00    +0.000 HD
ENDROOT
BRANCH  11  15
ATOM     15  C   UNL     1       1.007  14.202  19.128  0.00  0.00    +0.000 A 
ATOM     16  C   UNL     1       2.266  13.869  18.604  0.00  0.00    +0.000 A 
ATOM     17  C   UNL     1       3.067  14.830  17.982  0.00  0.00    +0.000 A 
ATOM     18  C   UNL     1       2.606  16.132  17.852  0.00  0.00    +0.000 A 
ATOM     19  F   UNL     1       3.390  17.054  17.278  0.00  0.00    +0.000 F 
ATOM     20  C   UNL     1       1.349  16.489  18.313  0.00  0.00    +0.000 A 
ATOM     21  C   UNL     1       0.562  15.523  18.936  0.00  0.00    +0.000 A 
ATOM     22  F   UNL     1      -0.651  15.878  19.390  0.00  0.00    +0.000 F 
ENDBRANCH  11  15
BRANCH   1  24
ATOM     23  C   UNL     1       3.631   4.013  19.834  0.00  0.00    +0.000 C 
ATOM     24  C   UNL     1       3.173   4.752  18.812  0.00  0.00    +0.000 C 
BRANCH  23  26
ATOM     25  O   UNL     1       4.979   2.093  20.307  0.00  0.00    +0.000 OA
ATOM     26  C   UNL     1       4.146   2.640  19.597  0.00  0.00    +0.000 C 
ATOM     27  N   UNL     1       3.576   2.035  18.508  0.00  0.00    +0.000 N 
ATOM     28  H   UNL     1       2.859   2.434  17.915  0.00  0.00    +0.000 HD
BRANCH  27  29
ATOM     29  O   UNL     1       3.966   0.706  18.232  0.00  0.00    +0.000 OA
ATOM     30  H   UNL     1       3.698   0.233  19.050  0.00  0.00    +0.000 HD
ENDBRANCH  27  29
ENDBRANCH  23  26
ENDBRANCH   1  24
TORSDOF 4
ENDMDL
MODEL 9
REMARK VINA RESULT:      -7.6      1.430      1.865
REMARK  Name = 
REMARK  4 active torsions:
REMARK  status: ('A' for Active; 'I' for Inactive)
REMARK    1  A    between atoms: C_2  and  C_3
REMARK    2  A    between atoms: C_4  and  C_5
REMARK    3  A    between atoms: N_15  and  C_16
REMARK    4  A    between atoms: N_26  and  O_27
REMARK                            x       y       z     vdW  Elec       q    Type
REMARK                         _______ _______ _______ _____ _____    ______ ____
ROOT
ATOM      1  C   UNL     1       2.024   7.347  19.855  0.00  0.00    +0.000 A 
ATOM      2  C   UNL     1       1.324   7.525  21.070  0.00  0.00    +0.000 A 
ATOM      3  C   UNL     1       0.566   8.676  21.308  0.00  0.00    +0.000 A 
ATOM      4  C   UNL     1       0.534   9.628  20.313  0.00  0.00    +0.000 A 
ATOM      5  C   UNL     1       1.233   9.475  19.087  0.00  0.00    +0.000 A 
ATOM      6  C   UNL     1       1.981   8.333  18.850  0.00  0.00    +0.000 A 
ATOM      7  C   UNL     1       1.012  10.698  18.197  0.00  0.00    +0.000 C 
ATOM      8  C   UNL     1       0.141  11.505  19.101  0.00  0.00    +0.000 A 
ATOM      9  S   UNL     1      -0.566  13.021  19.043  0.00  0.00    +0.000 S 
ATOM     10  C   UNL     1      -1.273  12.711  20.630  0.00  0.00    +0.000 A 
ATOM     11  N   UNL     1      -2.089  13.630  21.198  0.00  0.00    +0.000 N 
ATOM     12  N   UNL     1      -0.928  11.550  21.167  0.00  0.00    +0.000 NA
ATOM     13  C   UNL     1      -0.137  10.891  20.293  0.00  0.00    +0.000 A 
ATOM     14  H   UNL     1      -2.145  14.548  20.768  0.00  0.00    +0.000 HD
ENDROOT
BRANCH  11  15
ATOM     15  C   UNL     1      -3.171  13.368  22.071  0.00  0.00    +0.000 A 
ATOM     16  C   UNL     1      -3.040  13.272  23.465  0.00  0.00    +0.000 A 
ATOM     17  C   UNL     1      -4.139  12.980  24.277  0.00  0.00    +0.000 A 
ATOM     18  C   UNL     1      -5.391  12.806  23.705  0.00  0.00    +0.000 A 
ATOM     19  F   UNL     1      -6.435  12.500  24.485  0.00  0.00    +0.000 F 
ATOM     20  C   UNL     1      -5.571  12.941  22.337  0.00  0.00    +0.000 A 
ATOM     21  C   UNL     1      -4.466  13.228  21.538  0.00  0.00    +0.000 A 
ATOM     22  F   UNL     1      -4.646  13.346  20.213  0.00  0.00    +0.000 F 
ENDBRANCH  11  15
BRANCH   1  24
ATOM     23  C   UNL     1       2.466   4.962  20.216  0.00  0.00    +0.000 C 
ATOM     24  C   UNL     1       2.809   6.126  19.645  0.00  0.00    +0.000 C 
BRANCH  23  26
ATOM     25  O   UNL     1       2.948   2.620  20.329  0.00  0.00    +0.000 OA
ATOM     26  C   UNL     1       3.294   3.747  20.001  0.00  0.00    +0.000 C 
ATOM     27  N   UNL     1       4.483   4.014  19.376  0.00  0.00    +0.000 N 
ATOM     28  H   UNL     1       4.794   4.922  19.055  0.00  0.00    +0.000 HD
BRANCH  27  29
ATOM     29  O   UNL     1       5.317   2.913  19.081  0.00  0.00    +0.000 OA
ATOM     30  H   UNL     1       4.824   2.461  18.362  0.00  0.00    +0.000 HD
ENDBRANCH  27  29
ENDBRANCH  23  26
ENDBRANCH   1  24
TORSDOF 4
ENDMDL
