MODEL 1
REMARK VINA RESULT:      -6.6      0.000      0.000
REMARK  Name = 
REMARK  5 active torsions:
REMARK  status: ('A' for Active; 'I' for Inactive)
REMARK    1  A    between atoms: C_1  and  O_2
REMARK    2  A    between atoms: O_2  and  C_3
REMARK    3  A    between atoms: C_6  and  N_7
REMARK    4  A    between atoms: N_10  and  C_11
REMARK    5  A    between atoms: C_11  and  C_12
REMARK                            x       y       z     vdW  Elec       q    Type
REMARK                         _______ _______ _______ _____ _____    ______ ____
ROOT
ATOM      1  N   UNL     1       5.850   4.297  19.074  0.00  0.00    +0.000 N 
ATOM      2  C   UNL     1       4.633   4.112  19.667  0.00  0.00    +0.000 C 
ATOM      3  N   UNL     1       3.916   5.241  19.924  0.00  0.00    +0.000 N 
ATOM      4  N   UNL     1       4.284   2.909  19.987  0.00  0.00    +0.000 NA
ATOM      5  H   UNL     1       6.378   3.439  18.990  0.00  0.00    +0.000 HD
ATOM      6  H   UNL     1       4.492   5.995  20.276  0.00  0.00    +0.000 HD
ATOM      7  H   UNL     1       3.082   5.126  20.476  0.00  0.00    +0.000 HD
ENDROOT
BRANCH   1  11
ATOM      8  C   UNL     1       7.706   7.867  17.742  0.00  0.00    +0.000 A 
ATOM      9  C   UNL     1       8.265   7.093  18.758  0.00  0.00    +0.000 A 
ATOM     10  C   UNL     1       7.663   5.891  19.151  0.00  0.00    +0.000 A 
ATOM     11  C   UNL     1       6.482   5.438  18.546  0.00  0.00    +0.000 A 
ATOM     12  C   UNL     1       5.944   6.222  17.519  0.00  0.00    +0.000 A 
ATOM     13  C   UNL     1       6.539   7.428  17.124  0.00  0.00    +0.000 A 
BRANCH   8  15
ATOM     14  C   UNL     1       8.778   9.799  18.586  0.00  0.00    +0.000 C 
ATOM     15  O   UNL     1       8.366   9.030  17.461  0.00  0.00    +0.000 OA
ENDBRANCH   8  15
ENDBRANCH   1  11
BRANCH   4  16
ATOM     16  C   UNL     1       3.017   2.743  20.708  0.00  0.00    +0.000 C 
BRANCH  16  17
ATOM     17  C   UNL     1       1.942   2.088  19.831  0.00  0.00    +0.000 C 
ATOM     18  C   UNL     1       0.801   3.014  19.438  0.00  0.00    +0.000 C 
ATOM     19  C   UNL     1       1.318   3.673  18.184  0.00  0.00    +0.000 C 
ATOM     20  C   UNL     1       2.109   2.557  17.538  0.00  0.00    +0.000 C 
ATOM     21  O   UNL     1       2.570   1.694  18.588  0.00  0.00    +0.000 OA
ENDBRANCH  16  17
ENDBRANCH   4  16
TORSDOF 4
ENDMDL
MODEL 2
REMARK VINA RESULT:      -6.5      2.859      8.406
REMARK  Name = 
REMARK  5 active torsions:
REMARK  status: ('A' for Active; 'I' for Inactive)
REMARK    1  A    between atoms: C_1  and  O_2
REMARK    2  A    between atoms: O_2  and  C_3
REMARK    3  A    between atoms: C_6  and  N_7
REMARK    4  A    between atoms: N_10  and  C_11
REMARK    5  A    between atoms: C_11  and  C_12
REMARK                            x       y       z     vdW  Elec       q    Type
REMARK                         _______ _______ _______ _____ _____    ______ ____
ROOT
ATOM      1  N   UNL     1       6.922   7.834  17.188  0.00  0.00    +0.000 N 
ATOM      2  C   UNL     1       7.927   8.210  18.033  0.00  0.00    +0.000 C 
ATOM      3  N   UNL     1       8.341   7.267  18.924  0.00  0.00    +0.000 N 
ATOM      4  N   UNL     1       8.363   9.425  17.966  0.00  0.00    +0.000 NA
ATOM      5  H   UNL     1       6.590   8.597  16.613  0.00  0.00    +0.000 HD
ATOM      6  H   UNL     1       7.571   6.745  19.324  0.00  0.00    +0.000 HD
ATOM      7  H   UNL     1       8.987   7.573  19.634  0.00  0.00    +0.000 HD
ENDROOT
BRANCH   1  11
ATOM      8  C   UNL     1       5.036   4.060  16.785  0.00  0.00    +0.000 A 
ATOM      9  C   UNL     1       4.420   5.111  17.462  0.00  0.00    +0.000 A 
ATOM     10  C   UNL     1       5.037   6.366  17.543  0.00  0.00    +0.000 A 
ATOM     11  C   UNL     1       6.290   6.598  16.958  0.00  0.00    +0.000 A 
ATOM     12  C   UNL     1       6.886   5.534  16.272  0.00  0.00    +0.000 A 
ATOM     13  C   UNL     1       6.276   4.275  16.191  0.00  0.00    +0.000 A 
BRANCH   8  15
ATOM     14  C   UNL     1       3.353   2.742  17.798  0.00  0.00    +0.000 C 
ATOM     15  O   UNL     1       4.353   2.876  16.793  0.00  0.00    +0.000 OA
ENDBRANCH   8  15
ENDBRANCH   1  11
BRANCH   4  16
ATOM     16  C   UNL     1       9.375   9.835  18.946  0.00  0.00    +0.000 C 
BRANCH  16  17
ATOM     17  C   UNL     1       9.630  11.347  18.906  0.00  0.00    +0.000 C 
ATOM     18  C   UNL     1      10.505  11.867  20.037  0.00  0.00    +0.000 C 
ATOM     19  C   UNL     1      11.900  11.692  19.491  0.00  0.00    +0.000 C 
ATOM     20  C   UNL     1      11.708  11.980  18.019  0.00  0.00    +0.000 C 
ATOM     21  O   UNL     1      10.354  11.638  17.687  0.00  0.00    +0.000 OA
ENDBRANCH  16  17
ENDBRANCH   4  16
TORSDOF 4
ENDMDL
MODEL 3
REMARK VINA RESULT:      -6.5      2.807      3.685
REMARK  Name = 
REMARK  5 active torsions:
REMARK  status: ('A' for Active; 'I' for Inactive)
REMARK    1  A    between atoms: C_1  and  O_2
REMARK    2  A    between atoms: O_2  and  C_3
REMARK    3  A    between atoms: C_6  and  N_7
REMARK    4  A    between atoms: N_10  and  C_11
REMARK    5  A    between atoms: C_11  and  C_12
REMARK                            x       y       z     vdW  Elec       q    Type
REMARK                         _______ _______ _______ _____ _____    ______ ____
ROOT
ATOM      1  N   UNL     1       4.524   3.097  17.762  0.00  0.00    +0.000 N 
ATOM      2  C   UNL     1       3.176   3.044  17.979  0.00  0.00    +0.000 C 
ATOM      3  N   UNL     1       2.427   3.959  17.304  0.00  0.00    +0.000 N 
ATOM      4  N   UNL     1       2.726   2.187  18.836  0.00  0.00    +0.000 NA
ATOM      5  H   UNL     1       5.040   2.461  18.356  0.00  0.00    +0.000 HD
ATOM      6  H   UNL     1       2.857   4.875  17.283  0.00  0.00    +0.000 HD
ATOM      7  H   UNL     1       1.453   4.014  17.554  0.00  0.00    +0.000 HD
ENDROOT
BRANCH   1  11
ATOM      8  C   UNL     1       7.060   5.102  15.022  0.00  0.00    +0.000 A 
ATOM      9  C   UNL     1       6.244   4.046  14.618  0.00  0.00    +0.000 A 
ATOM     10  C   UNL     1       5.376   3.428  15.527  0.00  0.00    +0.000 A 
ATOM     11  C   UNL     1       5.310   3.842  16.865  0.00  0.00    +0.000 A 
ATOM     12  C   UNL     1       6.128   4.912  17.247  0.00  0.00    +0.000 A 
ATOM     13  C   UNL     1       7.001   5.532  16.343  0.00  0.00    +0.000 A 
BRANCH   8  15
ATOM     14  C   UNL     1       7.722   5.063  12.751  0.00  0.00    +0.000 C 
ATOM     15  O   UNL     1       7.883   5.610  14.056  0.00  0.00    +0.000 OA
ENDBRANCH   8  15
ENDBRANCH   1  11
BRANCH   4  16
ATOM     16  C   UNL     1       1.288   2.212  19.124  0.00  0.00    +0.000 C 
BRANCH  16  17
ATOM     17  C   UNL     1       0.988   2.865  20.479  0.00  0.00    +0.000 C 
ATOM     18  C   UNL     1       2.177   2.924  21.427  0.00  0.00    +0.000 C 
ATOM     19  C   UNL     1       2.854   4.215  21.038  0.00  0.00    +0.000 C 
ATOM     20  C   UNL     1       1.679   5.098  20.681  0.00  0.00    +0.000 C 
ATOM     21  O   UNL     1       0.619   4.243  20.231  0.00  0.00    +0.000 OA
ENDBRANCH  16  17
ENDBRANCH   4  16
TORSDOF 4
ENDMDL
MODEL 4
REMARK VINA RESULT:      -6.4      2.886      3.730
REMARK  Name = 
REMARK  5 active torsions:
REMARK  status: ('A' for Active; 'I' for Inactive)
REMARK    1  A    between atoms: C_1  and  O_2
REMARK    2  A    between atoms: O_2  and  C_3
REMARK    3  A    between atoms: C_6  and  N_7
REMARK    4  A    between atoms: N_10  and  C_11
REMARK    5  A    between atoms: C_11  and  C_12
REMARK                            x       y       z     vdW  Elec       q    Type
REMARK                         _______ _______ _______ _____ _____    ______ ____
ROOT
ATOM      1  N   UNL     1       3.586   3.967  16.723  0.00  0.00    +0.000 N 
ATOM      2  C   UNL     1       3.277   3.092  17.726  0.00  0.00    +0.000 C 
ATOM      3  N   UNL     1       4.273   2.245  18.107  0.00  0.00    +0.000 N 
ATOM      4  N   UNL     1       2.070   3.092  18.189  0.00  0.00    +0.000 NA
ATOM      5  H   UNL     1       2.788   4.506  16.415  0.00  0.00    +0.000 HD
ATOM      6  H   UNL     1       4.797   1.881  17.321  0.00  0.00    +0.000 HD
ATOM      7  H   UNL     1       4.018   1.514  18.751  0.00  0.00    +0.000 HD
ENDROOT
BRANCH   1  11
ATOM      8  C   UNL     1       7.119   5.140  14.697  0.00  0.00    +0.000 A 
ATOM      9  C   UNL     1       6.758   5.710  15.917  0.00  0.00    +0.000 A 
ATOM     10  C   UNL     1       5.613   5.275  16.596  0.00  0.00    +0.000 A 
ATOM     11  C   UNL     1       4.794   4.267  16.067  0.00  0.00    +0.000 A 
ATOM     12  C   UNL     1       5.181   3.698  14.848  0.00  0.00    +0.000 A 
ATOM     13  C   UNL     1       6.324   4.132  14.162  0.00  0.00    +0.000 A 
BRANCH   8  15
ATOM     14  C   UNL     1       8.264   5.655  12.692  0.00  0.00    +0.000 C 
ATOM     15  O   UNL     1       8.241   5.662  14.115  0.00  0.00    +0.000 OA
ENDBRANCH   8  15
ENDBRANCH   1  11
BRANCH   4  16
ATOM     16  C   UNL     1       1.734   2.082  19.197  0.00  0.00    +0.000 C 
BRANCH  16  17
ATOM     17  C   UNL     1       1.024   2.698  20.409  0.00  0.00    +0.000 C 
ATOM     18  C   UNL     1       1.877   2.773  21.667  0.00  0.00    +0.000 C 
ATOM     19  C   UNL     1       2.593   4.091  21.510  0.00  0.00    +0.000 C 
ATOM     20  C   UNL     1       1.547   4.946  20.830  0.00  0.00    +0.000 C 
ATOM     21  O   UNL     1       0.697   4.068  20.077  0.00  0.00    +0.000 OA
ENDBRANCH  16  17
ENDBRANCH   4  16
TORSDOF 4
ENDMDL
MODEL 5
REMARK VINA RESULT:      -6.3      1.229      1.661
REMARK  Name = 
REMARK  5 active torsions:
REMARK  status: ('A' for Active; 'I' for Inactive)
REMARK    1  A    between atoms: C_1  and  O_2
REMARK    2  A    between atoms: O_2  and  C_3
REMARK    3  A    between atoms: C_6  and  N_7
REMARK    4  A    between atoms: N_10  and  C_11
REMARK    5  A    between atoms: C_11  and  C_12
REMARK                            x       y       z     vdW  Elec       q    Type
REMARK                         _______ _______ _______ _____ _____    ______ ____
ROOT
ATOM      1  N   UNL     1       5.595   4.007  18.806  0.00  0.00    +0.000 N 
ATOM      2  C   UNL     1       4.348   3.521  18.533  0.00  0.00    +0.000 C 
ATOM      3  N   UNL     1       3.561   4.305  17.746  0.00  0.00    +0.000 N 
ATOM      4  N   UNL     1       3.992   2.404  19.078  0.00  0.00    +0.000 NA
ATOM      5  H   UNL     1       6.102   3.434  19.467  0.00  0.00    +0.000 HD
ATOM      6  H   UNL     1       3.633   5.288  17.979  0.00  0.00    +0.000 HD
ATOM      7  H   UNL     1       2.600   4.020  17.646  0.00  0.00    +0.000 HD
ENDROOT
BRANCH   1  11
ATOM      8  C   UNL     1       7.632   7.524  17.604  0.00  0.00    +0.000 A 
ATOM      9  C   UNL     1       8.022   6.810  18.735  0.00  0.00    +0.000 A 
ATOM     10  C   UNL     1       7.368   5.623  19.090  0.00  0.00    +0.000 A 
ATOM     11  C   UNL     1       6.301   5.126  18.328  0.00  0.00    +0.000 A 
ATOM     12  C   UNL     1       5.933   5.852  17.189  0.00  0.00    +0.000 A 
ATOM     13  C   UNL     1       6.580   7.042  16.832  0.00  0.00    +0.000 A 
BRANCH   8  15
ATOM     14  C   UNL     1       8.608   9.475  18.518  0.00  0.00    +0.000 C 
ATOM     15  O   UNL     1       8.325   8.679  17.373  0.00  0.00    +0.000 OA
ENDBRANCH   8  15
ENDBRANCH   1  11
BRANCH   4  16
ATOM     16  C   UNL     1       2.617   1.948  18.849  0.00  0.00    +0.000 C 
BRANCH  16  17
ATOM     17  C   UNL     1       1.749   2.096  20.104  0.00  0.00    +0.000 C 
ATOM     18  C   UNL     1       2.455   2.746  21.285  0.00  0.00    +0.000 C 
ATOM     19  C   UNL     1       2.228   4.218  21.044  0.00  0.00    +0.000 C 
ATOM     20  C   UNL     1       0.842   4.235  20.438  0.00  0.00    +0.000 C 
ATOM     21  O   UNL     1       0.648   2.977  19.775  0.00  0.00    +0.000 OA
ENDBRANCH  16  17
ENDBRANCH   4  16
TORSDOF 4
ENDMDL
MODEL 6
REMARK VINA RESULT:      -6.3      5.142      6.113
REMARK  Name = 
REMARK  5 active torsions:
REMARK  status: ('A' for Active; 'I' for Inactive)
REMARK    1  A    between atoms: C_1  and  O_2
REMARK    2  A    between atoms: O_2  and  C_3
REMARK    3  A    between atoms: C_6  and  N_7
REMARK    4  A    between atoms: N_10  and  C_11
REMARK    5  A    between atoms: C_11  and  C_12
REMARK                            x       y       z     vdW  Elec       q    Type
REMARK                         _______ _______ _______ _____ _____    ______ ____
ROOT
ATOM      1  N   UNL     1       2.756   7.076  18.357  0.00  0.00    +0.000 N 
ATOM      2  C   UNL     1       2.329   7.197  19.649  0.00  0.00    +0.000 C 
ATOM      3  N   UNL     1       2.674   6.182  20.489  0.00  0.00    +0.000 N 
ATOM      4  N   UNL     1       1.594   8.214  19.959  0.00  0.00    +0.000 NA
ATOM      5  H   UNL     1       2.396   7.805  17.756  0.00  0.00    +0.000 HD
ATOM      6  H   UNL     1       2.585   5.271  20.056  0.00  0.00    +0.000 HD
ATOM      7  H   UNL     1       2.256   6.197  21.405  0.00  0.00    +0.000 HD
ENDROOT
BRANCH   1  11
ATOM      8  C   UNL     1       5.268   4.433  16.196  0.00  0.00    +0.000 A 
ATOM      9  C   UNL     1       5.585   5.783  16.338  0.00  0.00    +0.000 A 
ATOM     10  C   UNL     1       4.768   6.631  17.097  0.00  0.00    +0.000 A 
ATOM     11  C   UNL     1       3.609   6.153  17.724  0.00  0.00    +0.000 A 
ATOM     12  C   UNL     1       3.315   4.792  17.580  0.00  0.00    +0.000 A 
ATOM     13  C   UNL     1       4.126   3.940  16.818  0.00  0.00    +0.000 A 
BRANCH   8  15
ATOM     14  C   UNL     1       6.112   4.025  14.025  0.00  0.00    +0.000 C 
ATOM     15  O   UNL     1       6.123   3.709  15.413  0.00  0.00    +0.000 OA
ENDBRANCH   8  15
ENDBRANCH   1  11
BRANCH   4  16
ATOM     16  C   UNL     1       1.068   8.275  21.327  0.00  0.00    +0.000 C 
BRANCH  16  17
ATOM     17  C   UNL     1       1.240   9.669  21.944  0.00  0.00    +0.000 C 
ATOM     18  C   UNL     1       0.691  10.805  21.095  0.00  0.00    +0.000 C 
ATOM     19  C   UNL     1      -0.755  10.876  21.520  0.00  0.00    +0.000 C 
ATOM     20  C   UNL     1      -0.674  10.534  22.991  0.00  0.00    +0.000 C 
ATOM     21  O   UNL     1       0.480   9.700  23.176  0.00  0.00    +0.000 OA
ENDBRANCH  16  17
ENDBRANCH   4  16
TORSDOF 4
ENDMDL
MODEL 7
REMARK VINA RESULT:      -6.3      1.454      2.056
REMARK  Name = 
REMARK  5 active torsions:
REMARK  status: ('A' for Active; 'I' for Inactive)
REMARK    1  A    between atoms: C_1  and  O_2
REMARK    2  A    between atoms: O_2  and  C_3
REMARK    3  A    between atoms: C_6  and  N_7
REMARK    4  A    between atoms: N_10  and  C_11
REMARK    5  A    between atoms: C_11  and  C_12
REMARK                            x       y       z     vdW  Elec       q    Type
REMARK                         _______ _______ _______ _____ _____    ______ ____
ROOT
ATOM      1  N   UNL     1       4.875   4.775  17.386  0.00  0.00    +0.000 N 
ATOM      2  C   UNL     1       3.571   4.772  17.792  0.00  0.00    +0.000 C 
ATOM      3  N   UNL     1       3.215   5.756  18.664  0.00  0.00    +0.000 N 
ATOM      4  N   UNL     1       2.800   3.822  17.374  0.00  0.00    +0.000 NA
ATOM      5  H   UNL     1       5.108   3.973  16.815  0.00  0.00    +0.000 HD
ATOM      6  H   UNL     1       3.920   5.922  19.371  0.00  0.00    +0.000 HD
ATOM      7  H   UNL     1       2.296   5.686  19.068  0.00  0.00    +0.000 HD
ENDROOT
BRANCH   1  11
ATOM      8  C   UNL     1       7.946   7.557  18.277  0.00  0.00    +0.000 A 
ATOM      9  C   UNL     1       7.869   6.327  18.928  0.00  0.00    +0.000 A 
ATOM     10  C   UNL     1       6.876   5.400  18.585  0.00  0.00    +0.000 A 
ATOM     11  C   UNL     1       5.929   5.684  17.591  0.00  0.00    +0.000 A 
ATOM     12  C   UNL     1       6.031   6.919  16.941  0.00  0.00    +0.000 A 
ATOM     13  C   UNL     1       7.020   7.852  17.282  0.00  0.00    +0.000 A 
BRANCH   8  15
ATOM     14  C   UNL     1       8.748   9.775  18.451  0.00  0.00    +0.000 C 
ATOM     15  O   UNL     1       8.939   8.389  18.712  0.00  0.00    +0.000 OA
ENDBRANCH   8  15
ENDBRANCH   1  11
BRANCH   4  16
ATOM     16  C   UNL     1       1.431   3.784  17.898  0.00  0.00    +0.000 C 
BRANCH  16  17
ATOM     17  C   UNL     1       1.190   2.551  18.779  0.00  0.00    +0.000 C 
ATOM     18  C   UNL     1       2.457   1.911  19.326  0.00  0.00    +0.000 C 
ATOM     19  C   UNL     1       2.702   2.682  20.598  0.00  0.00    +0.000 C 
ATOM     20  C   UNL     1       1.296   2.947  21.089  0.00  0.00    +0.000 C 
ATOM     21  O   UNL     1       0.439   2.982  19.939  0.00  0.00    +0.000 OA
ENDBRANCH  16  17
ENDBRANCH   4  16
TORSDOF 4
ENDMDL
MODEL 8
REMARK VINA RESULT:      -6.3      0.298      1.168
REMARK  Name = 
REMARK  5 active torsions:
REMARK  status: ('A' for Active; 'I' for Inactive)
REMARK    1  A    between atoms: C_1  and  O_2
REMARK    2  A    between atoms: O_2  and  C_3
REMARK    3  A    between atoms: C_6  and  N_7
REMARK    4  A    between atoms: N_10  and  C_11
REMARK    5  A    between atoms: C_11  and  C_12
REMARK                            x       y       z     vdW  Elec       q    Type
REMARK                         _______ _______ _______ _____ _____    ______ ____
ROOT
ATOM      1  N   UNL     1       5.852   4.241  19.141  0.00  0.00    +0.000 N 
ATOM      2  C   UNL     1       4.613   3.956  19.641  0.00  0.00    +0.000 C 
ATOM      3  N   UNL     1       3.846   5.028  19.983  0.00  0.00    +0.000 N 
ATOM      4  N   UNL     1       4.288   2.715  19.803  0.00  0.00    +0.000 NA
ATOM      5  H   UNL     1       6.413   3.413  18.991  0.00  0.00    +0.000 HD
ATOM      6  H   UNL     1       4.377   5.753  20.449  0.00  0.00    +0.000 HD
ATOM      7  H   UNL     1       2.988   4.828  20.471  0.00  0.00    +0.000 HD
ENDROOT
BRANCH   1  11
ATOM      8  C   UNL     1       7.773   7.770  17.793  0.00  0.00    +0.000 A 
ATOM      9  C   UNL     1       6.564   7.347  17.244  0.00  0.00    +0.000 A 
ATOM     10  C   UNL     1       5.919   6.205  17.736  0.00  0.00    +0.000 A 
ATOM     11  C   UNL     1       6.472   5.452  18.781  0.00  0.00    +0.000 A 
ATOM     12  C   UNL     1       7.680   5.901  19.327  0.00  0.00    +0.000 A 
ATOM     13  C   UNL     1       8.332   7.040  18.836  0.00  0.00    +0.000 A 
BRANCH   8  15
ATOM     14  C   UNL     1       8.654   9.944  18.102  0.00  0.00    +0.000 C 
ATOM     15  O   UNL     1       8.321   8.881  17.215  0.00  0.00    +0.000 OA
ENDBRANCH   8  15
ENDBRANCH   1  11
BRANCH   4  16
ATOM     16  C   UNL     1       2.992   2.433  20.429  0.00  0.00    +0.000 C 
BRANCH  16  17
ATOM     17  C   UNL     1       1.960   1.937  19.409  0.00  0.00    +0.000 C 
ATOM     18  C   UNL     1       0.787   2.881  19.189  0.00  0.00    +0.000 C 
ATOM     19  C   UNL     1       1.297   3.807  18.113  0.00  0.00    +0.000 C 
ATOM     20  C   UNL     1       2.145   2.882  17.269  0.00  0.00    +0.000 C 
ATOM     21  O   UNL     1       2.624   1.836  18.127  0.00  0.00    +0.000 OA
ENDBRANCH  16  17
ENDBRANCH   4  16
TORSDOF 4
ENDMDL
MODEL 9
REMARK VINA RESULT:      -6.2      1.089      1.654
REMARK  Name = 
REMARK  5 active torsions:
REMARK  status: ('A' for Active; 'I' for Inactive)
REMARK    1  A    between atoms: C_1  and  O_2
REMARK    2  A    between atoms: O_2  and  C_3
REMARK    3  A    between atoms: C_6  and  N_7
REMARK    4  A    between atoms: N_10  and  C_11
REMARK    5  A    between atoms: C_11  and  C_12
REMARK                            x       y       z     vdW  Elec       q    Type
REMARK                         _______ _______ _______ _____ _____    ______ ____
ROOT
ATOM      1  N   UNL     1       5.674   4.291  17.663  0.00  0.00    +0.000 N 
ATOM      2  C   UNL     1       4.743   3.650  18.431  0.00  0.00    +0.000 C 
ATOM      3  N   UNL     1       4.503   4.194  19.656  0.00  0.00    +0.000 N 
ATOM      4  N   UNL     1       4.213   2.564  17.972  0.00  0.00    +0.000 NA
ATOM      5  H   UNL     1       5.882   3.796  16.806  0.00  0.00    +0.000 HD
ATOM      6  H   UNL     1       5.349   4.503  20.117  0.00  0.00    +0.000 HD
ATOM      7  H   UNL     1       3.918   3.658  20.277  0.00  0.00    +0.000 HD
ENDROOT
BRANCH   1  11
ATOM      8  C   UNL     1       7.856   7.917  17.892  0.00  0.00    +0.000 A 
ATOM      9  C   UNL     1       6.746   7.789  17.058  0.00  0.00    +0.000 A 
ATOM     10  C   UNL     1       6.008   6.598  17.033  0.00  0.00    +0.000 A 
ATOM     11  C   UNL     1       6.367   5.504  17.832  0.00  0.00    +0.000 A 
ATOM     12  C   UNL     1       7.476   5.658  18.671  0.00  0.00    +0.000 A 
ATOM     13  C   UNL     1       8.221   6.844  18.699  0.00  0.00    +0.000 A 
BRANCH   8  15
ATOM     14  C   UNL     1       8.945   9.668  19.052  0.00  0.00    +0.000 C 
ATOM     15  O   UNL     1       8.512   9.113  17.814  0.00  0.00    +0.000 OA
ENDBRANCH   8  15
ENDBRANCH   1  11
BRANCH   4  16
ATOM     16  C   UNL     1       3.288   1.840  18.851  0.00  0.00    +0.000 C 
BRANCH  16  17
ATOM     17  C   UNL     1       1.824   2.076  18.458  0.00  0.00    +0.000 C 
ATOM     18  C   UNL     1       0.965   2.674  19.562  0.00  0.00    +0.000 C 
ATOM     19  C   UNL     1       1.174   4.157  19.386  0.00  0.00    +0.000 C 
ATOM     20  C   UNL     1       1.294   4.288  17.884  0.00  0.00    +0.000 C 
ATOM     21  O   UNL     1       1.808   3.045  17.384  0.00  0.00    +0.000 OA
ENDBRANCH  16  17
ENDBRANCH   4  16
TORSDOF 4
ENDMDL
