MODEL 1
REMARK VINA RESULT:      -8.4      0.000      0.000
REMARK  Name = 
REMARK  8 active torsions:
REMARK  status: ('A' for Active; 'I' for Inactive)
REMARK    1  A    between atoms: C_1  and  C_2
REMARK    2  A    between atoms: C_16  and  N_17
REMARK    3  A    between atoms: N_17  and  C_18
REMARK    4  A    between atoms: C_18  and  C_19
REMARK    5  A    between atoms: C_18  and  C_20
REMARK    6  A    between atoms: C_22  and  C_23
REMARK    7  A    between atoms: C_24  and  C_25
REMARK    8  A    between atoms: C_25  and  C_27
REMARK                            x       y       z     vdW  Elec       q    Type
REMARK                         _______ _______ _______ _____ _____    ______ ____
ROOT
ATOM      1  C   UNL     1       1.477   2.684  21.527  0.00  0.00    +0.000 C 
ATOM      2  C   UNL     1       1.780   3.984  20.836  0.00  0.00    +0.000 A 
ATOM      3  C   UNL     1       1.255   5.136  21.268  0.00  0.00    +0.000 A 
ATOM      4  C   UNL     1       1.508   6.428  20.623  0.00  0.00    +0.000 A 
ATOM      5  O   UNL     1       1.000   7.453  21.059  0.00  0.00    +0.000 OA
ATOM      6  O   UNL     1       2.335   6.409  19.512  0.00  0.00    +0.000 OA
ATOM      7  C   UNL     1       2.940   5.227  19.009  0.00  0.00    +0.000 A 
ATOM      8  C   UNL     1       3.786   5.329  17.875  0.00  0.00    +0.000 A 
ATOM      9  C   UNL     1       4.351   4.123  17.422  0.00  0.00    +0.000 A 
ATOM     10  C   UNL     1       4.086   2.899  18.058  0.00  0.00    +0.000 A 
ATOM     11  C   UNL     1       3.252   2.844  19.165  0.00  0.00    +0.000 A 
ATOM     12  C   UNL     1       2.665   4.009  19.661  0.00  0.00    +0.000 A 
ATOM     13  C   UNL     1       5.250   4.071  16.251  0.00  0.00    +0.000 C 
ATOM     14  O   UNL     1       5.764   3.004  15.920  0.00  0.00    +0.000 OA
ATOM     15  C   UNL     1       5.484   5.358  15.530  0.00  0.00    +0.000 C 
ATOM     16  C   UNL     1       6.247   5.344  14.419  0.00  0.00    +0.000 C 
ATOM     17  C   UNL     1       4.885   6.565  16.058  0.00  0.00    +0.000 C 
ATOM     18  C   UNL     1       4.086   6.609  17.147  0.00  0.00    +0.000 C 
ENDROOT
BRANCH  16  19
ATOM     19  N   UNL     1       6.855   4.252  13.842  0.00  0.00    +0.000 N 
ATOM     20  H   UNL     1       7.673   3.908  14.362  0.00  0.00    +0.000 HD
BRANCH  19  21
ATOM     21  C   UNL     1       6.573   3.616  12.572  0.00  0.00    +0.000 C 
ATOM     22  C   UNL     1       5.067   3.528  12.356  0.00  0.00    +0.000 C 
ATOM     23  C   UNL     1       7.225   4.440  11.462  0.00  0.00    +0.000 C 
ENDBRANCH  19  21
ENDBRANCH  16  19
BRANCH  18  24
ATOM     24  C   UNL     1       3.621   7.925  17.584  0.00  0.00    +0.000 C 
ATOM     25  C   UNL     1       2.358   8.369  17.476  0.00  0.00    +0.000 C 
BRANCH  25  26
ATOM     26  C   UNL     1       2.022   9.744  17.943  0.00  0.00    +0.000 C 
ATOM     27  O   UNL     1       2.858  10.638  17.993  0.00  0.00    +0.000 OA
BRANCH  26  28
ATOM     28  C   UNL     1       0.616  10.012  18.345  0.00  0.00    +0.000 A 
ATOM     29  C   UNL     1       0.377  10.678  19.554  0.00  0.00    +0.000 A 
ATOM     30  C   UNL     1      -0.929  11.007  19.927  0.00  0.00    +0.000 A 
ATOM     31  C   UNL     1      -1.996  10.685  19.090  0.00  0.00    +0.000 A 
ATOM     32  C   UNL     1      -1.764  10.026  17.883  0.00  0.00    +0.000 A 
ATOM     33  C   UNL     1      -0.461   9.689  17.509  0.00  0.00    +0.000 A 
ENDBRANCH  26  28
ENDBRANCH  25  26
ENDBRANCH  18  24
TORSDOF 5
ENDMDL
MODEL 2
REMARK VINA RESULT:      -7.9      2.543      7.474
REMARK  Name = 
REMARK  8 active torsions:
REMARK  status: ('A' for Active; 'I' for Inactive)
REMARK    1  A    between atoms: C_1  and  C_2
REMARK    2  A    between atoms: C_16  and  N_17
REMARK    3  A    between atoms: N_17  and  C_18
REMARK    4  A    between atoms: C_18  and  C_19
REMARK    5  A    between atoms: C_18  and  C_20
REMARK    6  A    between atoms: C_22  and  C_23
REMARK    7  A    between atoms: C_24  and  C_25
REMARK    8  A    between atoms: C_25  and  C_27
REMARK                            x       y       z     vdW  Elec       q    Type
REMARK                         _______ _______ _______ _____ _____    ______ ____
ROOT
ATOM      1  C   UNL     1       1.623   2.610  21.947  0.00  0.00    +0.000 C 
ATOM      2  C   UNL     1       2.551   3.237  20.944  0.00  0.00    +0.000 A 
ATOM      3  C   UNL     1       3.612   2.572  20.473  0.00  0.00    +0.000 A 
ATOM      4  C   UNL     1       4.553   3.142  19.504  0.00  0.00    +0.000 A 
ATOM      5  O   UNL     1       5.510   2.490  19.106  0.00  0.00    +0.000 OA
ATOM      6  O   UNL     1       4.296   4.437  19.085  0.00  0.00    +0.000 OA
ATOM      7  C   UNL     1       3.181   5.195  19.529  0.00  0.00    +0.000 A 
ATOM      8  C   UNL     1       3.005   6.505  19.017  0.00  0.00    +0.000 A 
ATOM      9  C   UNL     1       1.884   7.206  19.500  0.00  0.00    +0.000 A 
ATOM     10  C   UNL     1       1.002   6.635  20.432  0.00  0.00    +0.000 A 
ATOM     11  C   UNL     1       1.211   5.349  20.907  0.00  0.00    +0.000 A 
ATOM     12  C   UNL     1       2.304   4.605  20.462  0.00  0.00    +0.000 A 
ATOM     13  C   UNL     1       1.572   8.581  19.060  0.00  0.00    +0.000 C 
ATOM     14  O   UNL     1       0.554   9.138  19.467  0.00  0.00    +0.000 OA
ATOM     15  C   UNL     1       2.542   9.219  18.120  0.00  0.00    +0.000 C 
ATOM     16  C   UNL     1       2.329  10.496  17.743  0.00  0.00    +0.000 C 
ATOM     17  C   UNL     1       3.666   8.437  17.651  0.00  0.00    +0.000 C 
ATOM     18  C   UNL     1       3.929   7.169  18.036  0.00  0.00    +0.000 C 
ENDROOT
BRANCH  16  19
ATOM     19  N   UNL     1       1.296  11.316  18.136  0.00  0.00    +0.000 N 
ATOM     20  H   UNL     1       0.365  10.969  17.869  0.00  0.00    +0.000 HD
BRANCH  19  21
ATOM     21  C   UNL     1       1.353  12.625  18.751  0.00  0.00    +0.000 C 
ATOM     22  C   UNL     1       2.538  13.410  18.198  0.00  0.00    +0.000 C 
ATOM     23  C   UNL     1       0.044  13.357  18.457  0.00  0.00    +0.000 C 
ENDBRANCH  19  21
ENDBRANCH  16  19
BRANCH  18  24
ATOM     24  C   UNL     1       5.070   6.501  17.409  0.00  0.00    +0.000 C 
ATOM     25  C   UNL     1       5.111   6.087  16.132  0.00  0.00    +0.000 C 
BRANCH  25  26
ATOM     26  C   UNL     1       6.331   5.399  15.624  0.00  0.00    +0.000 C 
ATOM     27  O   UNL     1       7.363   5.334  16.280  0.00  0.00    +0.000 OA
BRANCH  26  28
ATOM     28  C   UNL     1       6.260   4.771  14.278  0.00  0.00    +0.000 A 
ATOM     29  C   UNL     1       7.345   4.926  13.405  0.00  0.00    +0.000 A 
ATOM     30  C   UNL     1       7.339   4.292  12.160  0.00  0.00    +0.000 A 
ATOM     31  C   UNL     1       6.259   3.491  11.790  0.00  0.00    +0.000 A 
ATOM     32  C   UNL     1       5.179   3.329  12.657  0.00  0.00    +0.000 A 
ATOM     33  C   UNL     1       5.177   3.968  13.900  0.00  0.00    +0.000 A 
ENDBRANCH  26  28
ENDBRANCH  25  26
ENDBRANCH  18  24
TORSDOF 5
ENDMDL
MODEL 3
REMARK VINA RESULT:      -7.8      2.540      7.435
REMARK  Name = 
REMARK  8 active torsions:
REMARK  status: ('A' for Active; 'I' for Inactive)
REMARK    1  A    between atoms: C_1  and  C_2
REMARK    2  A    between atoms: C_16  and  N_17
REMARK    3  A    between atoms: N_17  and  C_18
REMARK    4  A    between atoms: C_18  and  C_19
REMARK    5  A    between atoms: C_18  and  C_20
REMARK    6  A    between atoms: C_22  and  C_23
REMARK    7  A    between atoms: C_24  and  C_25
REMARK    8  A    between atoms: C_25  and  C_27
REMARK                            x       y       z     vdW  Elec       q    Type
REMARK                         _______ _______ _______ _____ _____    ______ ____
ROOT
ATOM      1  C   UNL     1       1.534   2.552  21.851  0.00  0.00    +0.000 C 
ATOM      2  C   UNL     1       2.492   3.179  20.876  0.00  0.00    +0.000 A 
ATOM      3  C   UNL     1       3.560   2.510  20.430  0.00  0.00    +0.000 A 
ATOM      4  C   UNL     1       4.530   3.079  19.488  0.00  0.00    +0.000 A 
ATOM      5  O   UNL     1       5.493   2.424  19.113  0.00  0.00    +0.000 OA
ATOM      6  O   UNL     1       4.291   4.378  19.070  0.00  0.00    +0.000 OA
ATOM      7  C   UNL     1       3.169   5.140  19.489  0.00  0.00    +0.000 A 
ATOM      8  C   UNL     1       3.013   6.454  18.979  0.00  0.00    +0.000 A 
ATOM      9  C   UNL     1       1.885   7.159  19.436  0.00  0.00    +0.000 A 
ATOM     10  C   UNL     1       0.976   6.589  20.342  0.00  0.00    +0.000 A 
ATOM     11  C   UNL     1       1.165   5.298  20.816  0.00  0.00    +0.000 A 
ATOM     12  C   UNL     1       2.265   4.550  20.395  0.00  0.00    +0.000 A 
ATOM     13  C   UNL     1       1.592   8.538  18.995  0.00  0.00    +0.000 C 
ATOM     14  O   UNL     1       0.567   9.099  19.378  0.00  0.00    +0.000 OA
ATOM     15  C   UNL     1       2.590   9.175  18.084  0.00  0.00    +0.000 C 
ATOM     16  C   UNL     1       2.394  10.455  17.708  0.00  0.00    +0.000 C 
ATOM     17  C   UNL     1       3.721   8.389  17.640  0.00  0.00    +0.000 C 
ATOM     18  C   UNL     1       3.967   7.117  18.025  0.00  0.00    +0.000 C 
ENDROOT
BRANCH  16  19
ATOM     19  N   UNL     1       1.356  11.279  18.077  0.00  0.00    +0.000 N 
ATOM     20  H   UNL     1       0.426  10.906  17.845  0.00  0.00    +0.000 HD
BRANCH  19  21
ATOM     21  C   UNL     1       1.404  12.618  18.626  0.00  0.00    +0.000 C 
ATOM     22  C   UNL     1       1.266  12.564  20.144  0.00  0.00    +0.000 C 
ATOM     23  C   UNL     1       2.737  13.255  18.234  0.00  0.00    +0.000 C 
ENDBRANCH  19  21
ENDBRANCH  16  19
BRANCH  18  24
ATOM     24  C   UNL     1       5.120   6.445  17.425  0.00  0.00    +0.000 C 
ATOM     25  C   UNL     1       5.162   5.966  16.171  0.00  0.00    +0.000 C 
BRANCH  25  26
ATOM     26  C   UNL     1       6.396   5.282  15.690  0.00  0.00    +0.000 C 
ATOM     27  O   UNL     1       7.408   5.204  16.376  0.00  0.00    +0.000 OA
BRANCH  26  28
ATOM     28  C   UNL     1       6.365   4.676  14.332  0.00  0.00    +0.000 A 
ATOM     29  C   UNL     1       5.223   3.967  13.938  0.00  0.00    +0.000 A 
ATOM     30  C   UNL     1       5.134   3.444  12.645  0.00  0.00    +0.000 A 
ATOM     31  C   UNL     1       6.177   3.639  11.740  0.00  0.00    +0.000 A 
ATOM     32  C   UNL     1       7.314   4.347  12.126  0.00  0.00    +0.000 A 
ATOM     33  C   UNL     1       7.410   4.866  13.420  0.00  0.00    +0.000 A 
ENDBRANCH  26  28
ENDBRANCH  25  26
ENDBRANCH  18  24
TORSDOF 5
ENDMDL
MODEL 4
REMARK VINA RESULT:      -7.0      3.948      7.747
REMARK  Name = 
REMARK  8 active torsions:
REMARK  status: ('A' for Active; 'I' for Inactive)
REMARK    1  A    between atoms: C_1  and  C_2
REMARK    2  A    between atoms: C_16  and  N_17
REMARK    3  A    between atoms: N_17  and  C_18
REMARK    4  A    between atoms: C_18  and  C_19
REMARK    5  A    between atoms: C_18  and  C_20
REMARK    6  A    between atoms: C_22  and  C_23
REMARK    7  A    between atoms: C_24  and  C_25
REMARK    8  A    between atoms: C_25  and  C_27
REMARK                            x       y       z     vdW  Elec       q    Type
REMARK                         _______ _______ _______ _____ _____    ______ ____
ROOT
ATOM      1  C   UNL     1      -2.378  12.928  24.282  0.00  0.00    +0.000 C 
ATOM      2  C   UNL     1      -2.552  12.689  22.808  0.00  0.00    +0.000 A 
ATOM      3  C   UNL     1      -3.552  13.259  22.127  0.00  0.00    +0.000 A 
ATOM      4  C   UNL     1      -3.772  13.049  20.693  0.00  0.00    +0.000 A 
ATOM      5  O   UNL     1      -4.705  13.595  20.118  0.00  0.00    +0.000 OA
ATOM      6  O   UNL     1      -2.879  12.207  20.051  0.00  0.00    +0.000 OA
ATOM      7  C   UNL     1      -1.786  11.581  20.706  0.00  0.00    +0.000 A 
ATOM      8  C   UNL     1      -0.922  10.754  19.944  0.00  0.00    +0.000 A 
ATOM      9  C   UNL     1       0.139  10.159  20.652  0.00  0.00    +0.000 A 
ATOM     10  C   UNL     1       0.321  10.376  22.027  0.00  0.00    +0.000 A 
ATOM     11  C   UNL     1      -0.548  11.194  22.735  0.00  0.00    +0.000 A 
ATOM     12  C   UNL     1      -1.616  11.813  22.086  0.00  0.00    +0.000 A 
ATOM     13  C   UNL     1       1.118   9.271  19.993  0.00  0.00    +0.000 C 
ATOM     14  O   UNL     1       2.060   8.814  20.637  0.00  0.00    +0.000 OA
ATOM     15  C   UNL     1       0.892   8.983  18.545  0.00  0.00    +0.000 C 
ATOM     16  C   UNL     1       1.725   8.126  17.920  0.00  0.00    +0.000 C 
ATOM     17  C   UNL     1      -0.210   9.639  17.873  0.00  0.00    +0.000 C 
ATOM     18  C   UNL     1      -1.085  10.474  18.477  0.00  0.00    +0.000 C 
ENDROOT
BRANCH  16  19
ATOM     19  N   UNL     1       2.792   7.456  18.472  0.00  0.00    +0.000 N 
ATOM     20  H   UNL     1       3.369   8.035  19.097  0.00  0.00    +0.000 HD
BRANCH  19  21
ATOM     21  C   UNL     1       3.266   6.114  18.203  0.00  0.00    +0.000 C 
ATOM     22  C   UNL     1       4.157   5.638  19.344  0.00  0.00    +0.000 C 
ATOM     23  C   UNL     1       2.055   5.194  18.051  0.00  0.00    +0.000 C 
ENDBRANCH  19  21
ENDBRANCH  16  19
BRANCH  18  24
ATOM     24  C   UNL     1      -2.099  11.106  17.632  0.00  0.00    +0.000 C 
ATOM     25  C   UNL     1      -3.218  10.507  17.195  0.00  0.00    +0.000 C 
BRANCH  25  26
ATOM     26  C   UNL     1      -4.160  11.261  16.321  0.00  0.00    +0.000 C 
ATOM     27  O   UNL     1      -3.975  11.381  15.116  0.00  0.00    +0.000 OA
BRANCH  26  28
ATOM     28  C   UNL     1      -5.359  11.867  16.957  0.00  0.00    +0.000 A 
ATOM     29  C   UNL     1      -5.862  13.068  16.439  0.00  0.00    +0.000 A 
ATOM     30  C   UNL     1      -7.027  13.627  16.970  0.00  0.00    +0.000 A 
ATOM     31  C   UNL     1      -7.700  12.983  18.007  0.00  0.00    +0.000 A 
ATOM     32  C   UNL     1      -7.207  11.785  18.524  0.00  0.00    +0.000 A 
ATOM     33  C   UNL     1      -6.038  11.226  18.001  0.00  0.00    +0.000 A 
ENDBRANCH  26  28
ENDBRANCH  25  26
ENDBRANCH  18  24
TORSDOF 5
ENDMDL
MODEL 5
REMARK VINA RESULT:      -7.0      5.125      9.534
REMARK  Name = 
REMARK  8 active torsions:
REMARK  status: ('A' for Active; 'I' for Inactive)
REMARK    1  A    between atoms: C_1  and  C_2
REMARK    2  A    between atoms: C_16  and  N_17
REMARK    3  A    between atoms: N_17  and  C_18
REMARK    4  A    between atoms: C_18  and  C_19
REMARK    5  A    between atoms: C_18  and  C_20
REMARK    6  A    between atoms: C_22  and  C_23
REMARK    7  A    between atoms: C_24  and  C_25
REMARK    8  A    between atoms: C_25  and  C_27
REMARK                            x       y       z     vdW  Elec       q    Type
REMARK                         _______ _______ _______ _____ _____    ______ ____
ROOT
ATOM      1  C   UNL     1      -7.252  12.659  17.532  0.00  0.00    +0.000 C 
ATOM      2  C   UNL     1      -6.234  12.889  18.614  0.00  0.00    +0.000 A 
ATOM      3  C   UNL     1      -6.504  13.674  19.663  0.00  0.00    +0.000 A 
ATOM      4  C   UNL     1      -5.543  13.940  20.738  0.00  0.00    +0.000 A 
ATOM      5  O   UNL     1      -5.841  14.668  21.675  0.00  0.00    +0.000 OA
ATOM      6  O   UNL     1      -4.304  13.331  20.619  0.00  0.00    +0.000 OA
ATOM      7  C   UNL     1      -3.955  12.473  19.543  0.00  0.00    +0.000 A 
ATOM      8  C   UNL     1      -2.664  11.888  19.535  0.00  0.00    +0.000 A 
ATOM      9  C   UNL     1      -2.377  11.052  18.439  0.00  0.00    +0.000 A 
ATOM     10  C   UNL     1      -3.317  10.820  17.423  0.00  0.00    +0.000 A 
ATOM     11  C   UNL     1      -4.570  11.412  17.470  0.00  0.00    +0.000 A 
ATOM     12  C   UNL     1      -4.912  12.249  18.533  0.00  0.00    +0.000 A 
ATOM     13  C   UNL     1      -1.072  10.374  18.293  0.00  0.00    +0.000 C 
ATOM     14  O   UNL     1      -0.881   9.611  17.348  0.00  0.00    +0.000 OA
ATOM     15  C   UNL     1      -0.044  10.669  19.336  0.00  0.00    +0.000 C 
ATOM     16  C   UNL     1       1.181  10.122  19.206  0.00  0.00    +0.000 C 
ATOM     17  C   UNL     1      -0.410  11.526  20.444  0.00  0.00    +0.000 C 
ATOM     18  C   UNL     1      -1.616  12.120  20.586  0.00  0.00    +0.000 C 
ENDROOT
BRANCH  16  19
ATOM     19  N   UNL     1       1.620   9.301  18.192  0.00  0.00    +0.000 N 
ATOM     20  H   UNL     1       1.552   9.723  17.256  0.00  0.00    +0.000 HD
BRANCH  19  21
ATOM     21  C   UNL     1       2.041   7.917  18.256  0.00  0.00    +0.000 C 
ATOM     22  C   UNL     1       3.402   7.756  17.586  0.00  0.00    +0.000 C 
ATOM     23  C   UNL     1       2.115   7.500  19.724  0.00  0.00    +0.000 C 
ENDBRANCH  19  21
ENDBRANCH  16  19
BRANCH  18  24
ATOM     24  C   UNL     1      -1.839  12.899  21.804  0.00  0.00    +0.000 C 
ATOM     25  C   UNL     1      -1.230  14.059  22.096  0.00  0.00    +0.000 C 
BRANCH  25  26
ATOM     26  C   UNL     1      -1.534  14.742  23.386  0.00  0.00    +0.000 C 
ATOM     27  O   UNL     1      -0.842  14.586  24.384  0.00  0.00    +0.000 OA
BRANCH  26  28
ATOM     28  C   UNL     1      -2.716  15.643  23.429  0.00  0.00    +0.000 A 
ATOM     29  C   UNL     1      -3.583  15.563  24.526  0.00  0.00    +0.000 A 
ATOM     30  C   UNL     1      -4.664  16.444  24.631  0.00  0.00    +0.000 A 
ATOM     31  C   UNL     1      -4.872  17.412  23.650  0.00  0.00    +0.000 A 
ATOM     32  C   UNL     1      -4.009  17.499  22.557  0.00  0.00    +0.000 A 
ATOM     33  C   UNL     1      -2.932  16.616  22.445  0.00  0.00    +0.000 A 
ENDBRANCH  26  28
ENDBRANCH  25  26
ENDBRANCH  18  24
TORSDOF 5
ENDMDL
MODEL 6
REMARK VINA RESULT:      -6.9      4.831      9.197
REMARK  Name = 
REMARK  8 active torsions:
REMARK  status: ('A' for Active; 'I' for Inactive)
REMARK    1  A    between atoms: C_1  and  C_2
REMARK    2  A    between atoms: C_16  and  N_17
REMARK    3  A    between atoms: N_17  and  C_18
REMARK    4  A    between atoms: C_18  and  C_19
REMARK    5  A    between atoms: C_18  and  C_20
REMARK    6  A    between atoms: C_22  and  C_23
REMARK    7  A    between atoms: C_24  and  C_25
REMARK    8  A    between atoms: C_25  and  C_27
REMARK                            x       y       z     vdW  Elec       q    Type
REMARK                         _______ _______ _______ _____ _____    ______ ____
ROOT
ATOM      1  C   UNL     1       1.660  17.302  18.169  0.00  0.00    +0.000 C 
ATOM      2  C   UNL     1       0.811  16.406  19.027  0.00  0.00    +0.000 A 
ATOM      3  C   UNL     1      -0.137  16.909  19.825  0.00  0.00    +0.000 A 
ATOM      4  C   UNL     1      -0.983  16.080  20.689  0.00  0.00    +0.000 A 
ATOM      5  O   UNL     1      -1.836  16.592  21.403  0.00  0.00    +0.000 OA
ATOM      6  O   UNL     1      -0.752  14.715  20.649  0.00  0.00    +0.000 OA
ATOM      7  C   UNL     1       0.225  14.112  19.814  0.00  0.00    +0.000 A 
ATOM      8  C   UNL     1       0.360  12.701  19.840  0.00  0.00    +0.000 A 
ATOM      9  C   UNL     1       1.349  12.164  18.995  0.00  0.00    +0.000 A 
ATOM     10  C   UNL     1       2.147  12.984  18.181  0.00  0.00    +0.000 A 
ATOM     11  C   UNL     1       1.981  14.362  18.186  0.00  0.00    +0.000 A 
ATOM     12  C   UNL     1       1.015  14.950  19.002  0.00  0.00    +0.000 A 
ATOM     13  C   UNL     1       1.607  10.712  18.916  0.00  0.00    +0.000 C 
ATOM     14  O   UNL     1       2.444  10.281  18.125  0.00  0.00    +0.000 OA
ATOM     15  C   UNL     1       0.807   9.840  19.827  0.00  0.00    +0.000 C 
ATOM     16  C   UNL     1       1.056   8.515  19.834  0.00  0.00    +0.000 C 
ATOM     17  C   UNL     1      -0.204  10.454  20.662  0.00  0.00    +0.000 C 
ATOM     18  C   UNL     1      -0.454  11.782  20.707  0.00  0.00    +0.000 C 
ENDROOT
BRANCH  16  19
ATOM     19  N   UNL     1       1.993   7.843  19.083  0.00  0.00    +0.000 N 
ATOM     20  H   UNL     1       2.092   8.200  18.123  0.00  0.00    +0.000 HD
BRANCH  19  21
ATOM     21  C   UNL     1       2.752   6.656  19.418  0.00  0.00    +0.000 C 
ATOM     22  C   UNL     1       1.928   5.751  20.327  0.00  0.00    +0.000 C 
ATOM     23  C   UNL     1       3.111   5.928  18.122  0.00  0.00    +0.000 C 
ENDBRANCH  19  21
ENDBRANCH  16  19
BRANCH  18  24
ATOM     24  C   UNL     1      -1.561  12.226  21.555  0.00  0.00    +0.000 C 
ATOM     25  C   UNL     1      -1.594  12.118  22.892  0.00  0.00    +0.000 C 
BRANCH  25  26
ATOM     26  C   UNL     1      -2.795  12.593  23.636  0.00  0.00    +0.000 C 
ATOM     27  O   UNL     1      -3.749  11.860  23.869  0.00  0.00    +0.000 OA
BRANCH  26  28
ATOM     28  C   UNL     1      -2.804  14.003  24.108  0.00  0.00    +0.000 A 
ATOM     29  C   UNL     1      -1.581  14.628  24.383  0.00  0.00    +0.000 A 
ATOM     30  C   UNL     1      -1.551  15.973  24.761  0.00  0.00    +0.000 A 
ATOM     31  C   UNL     1      -2.737  16.700  24.851  0.00  0.00    +0.000 A 
ATOM     32  C   UNL     1      -3.958  16.083  24.574  0.00  0.00    +0.000 A 
ATOM     33  C   UNL     1      -3.993  14.737  24.202  0.00  0.00    +0.000 A 
ENDBRANCH  26  28
ENDBRANCH  25  26
ENDBRANCH  18  24
TORSDOF 5
ENDMDL
MODEL 7
REMARK VINA RESULT:      -6.8      4.587      8.845
REMARK  Name = 
REMARK  8 active torsions:
REMARK  status: ('A' for Active; 'I' for Inactive)
REMARK    1  A    between atoms: C_1  and  C_2
REMARK    2  A    between atoms: C_16  and  N_17
REMARK    3  A    between atoms: N_17  and  C_18
REMARK    4  A    between atoms: C_18  and  C_19
REMARK    5  A    between atoms: C_18  and  C_20
REMARK    6  A    between atoms: C_22  and  C_23
REMARK    7  A    between atoms: C_24  and  C_25
REMARK    8  A    between atoms: C_25  and  C_27
REMARK                            x       y       z     vdW  Elec       q    Type
REMARK                         _______ _______ _______ _____ _____    ______ ____
ROOT
ATOM      1  C   UNL     1      -6.978  11.664  18.071  0.00  0.00    +0.000 C 
ATOM      2  C   UNL     1      -5.799  12.257  18.791  0.00  0.00    +0.000 A 
ATOM      3  C   UNL     1      -5.944  13.306  19.608  0.00  0.00    +0.000 A 
ATOM      4  C   UNL     1      -4.826  13.928  20.324  0.00  0.00    +0.000 A 
ATOM      5  O   UNL     1      -5.014  14.888  21.059  0.00  0.00    +0.000 OA
ATOM      6  O   UNL     1      -3.575  13.374  20.111  0.00  0.00    +0.000 OA
ATOM      7  C   UNL     1      -3.350  12.251  19.271  0.00  0.00    +0.000 A 
ATOM      8  C   UNL     1      -2.028  11.755  19.143  0.00  0.00    +0.000 A 
ATOM      9  C   UNL     1      -1.870  10.644  18.293  0.00  0.00    +0.000 A 
ATOM     10  C   UNL     1      -2.960  10.072  17.617  0.00  0.00    +0.000 A 
ATOM     11  C   UNL     1      -4.238  10.589  17.771  0.00  0.00    +0.000 A 
ATOM     12  C   UNL     1      -4.456  11.688  18.603  0.00  0.00    +0.000 A 
ATOM     13  C   UNL     1      -0.552  10.019  18.059  0.00  0.00    +0.000 C 
ATOM     14  O   UNL     1      -0.467   9.018  17.350  0.00  0.00    +0.000 OA
ATOM     15  C   UNL     1       0.621  10.663  18.722  0.00  0.00    +0.000 C 
ATOM     16  C   UNL     1       1.850  10.163  18.484  0.00  0.00    +0.000 C 
ATOM     17  C   UNL     1       0.387  11.793  19.596  0.00  0.00    +0.000 C 
ATOM     18  C   UNL     1      -0.826  12.342  19.828  0.00  0.00    +0.000 C 
ENDROOT
BRANCH  16  19
ATOM     19  N   UNL     1       2.171   9.099  17.672  0.00  0.00    +0.000 N 
ATOM     20  H   UNL     1       2.189   9.331  16.670  0.00  0.00    +0.000 HD
BRANCH  19  21
ATOM     21  C   UNL     1       2.362   7.708  18.024  0.00  0.00    +0.000 C 
ATOM     22  C   UNL     1       3.743   7.242  17.576  0.00  0.00    +0.000 C 
ATOM     23  C   UNL     1       2.215   7.565  19.538  0.00  0.00    +0.000 C 
ENDBRANCH  19  21
ENDBRANCH  16  19
BRANCH  18  24
ATOM     24  C   UNL     1      -0.892  13.438  20.794  0.00  0.00    +0.000 C 
ATOM     25  C   UNL     1      -0.497  13.358  22.075  0.00  0.00    +0.000 C 
BRANCH  25  26
ATOM     26  C   UNL     1      -0.639  14.547  22.962  0.00  0.00    +0.000 C 
ATOM     27  O   UNL     1       0.308  15.278  23.227  0.00  0.00    +0.000 OA
BRANCH  26  28
ATOM     28  C   UNL     1      -1.986  14.836  23.520  0.00  0.00    +0.000 A 
ATOM     29  C   UNL     1      -2.409  16.169  23.602  0.00  0.00    +0.000 A 
ATOM     30  C   UNL     1      -3.696  16.470  24.057  0.00  0.00    +0.000 A 
ATOM     31  C   UNL     1      -4.566  15.443  24.418  0.00  0.00    +0.000 A 
ATOM     32  C   UNL     1      -4.152  14.113  24.335  0.00  0.00    +0.000 A 
ATOM     33  C   UNL     1      -2.864  13.809  23.887  0.00  0.00    +0.000 A 
ENDBRANCH  26  28
ENDBRANCH  25  26
ENDBRANCH  18  24
TORSDOF 5
ENDMDL
MODEL 8
REMARK VINA RESULT:      -6.8      7.797      9.824
REMARK  Name = 
REMARK  8 active torsions:
REMARK  status: ('A' for Active; 'I' for Inactive)
REMARK    1  A    between atoms: C_1  and  C_2
REMARK    2  A    between atoms: C_16  and  N_17
REMARK    3  A    between atoms: N_17  and  C_18
REMARK    4  A    between atoms: C_18  and  C_19
REMARK    5  A    between atoms: C_18  and  C_20
REMARK    6  A    between atoms: C_22  and  C_23
REMARK    7  A    between atoms: C_24  and  C_25
REMARK    8  A    between atoms: C_25  and  C_27
REMARK                            x       y       z     vdW  Elec       q    Type
REMARK                         _______ _______ _______ _____ _____    ______ ____
ROOT
ATOM      1  C   UNL     1      -6.266  13.718  23.313  0.00  0.00    +0.000 C 
ATOM      2  C   UNL     1      -4.893  13.467  22.755  0.00  0.00    +0.000 A 
ATOM      3  C   UNL     1      -3.797  13.709  23.482  0.00  0.00    +0.000 A 
ATOM      4  C   UNL     1      -2.436  13.492  22.981  0.00  0.00    +0.000 A 
ATOM      5  O   UNL     1      -1.465  13.732  23.687  0.00  0.00    +0.000 OA
ATOM      6  O   UNL     1      -2.326  13.018  21.684  0.00  0.00    +0.000 OA
ATOM      7  C   UNL     1      -3.446  12.724  20.862  0.00  0.00    +0.000 A 
ATOM      8  C   UNL     1      -3.215  12.223  19.556  0.00  0.00    +0.000 A 
ATOM      9  C   UNL     1      -4.365  11.956  18.790  0.00  0.00    +0.000 A 
ATOM     10  C   UNL     1      -5.656  12.178  19.296  0.00  0.00    +0.000 A 
ATOM     11  C   UNL     1      -5.837  12.669  20.581  0.00  0.00    +0.000 A 
ATOM     12  C   UNL     1      -4.734  12.949  21.388  0.00  0.00    +0.000 A 
ATOM     13  C   UNL     1      -4.283  11.433  17.411  0.00  0.00    +0.000 C 
ATOM     14  O   UNL     1      -5.312  11.164  16.796  0.00  0.00    +0.000 OA
ATOM     15  C   UNL     1      -2.912  11.257  16.843  0.00  0.00    +0.000 C 
ATOM     16  C   UNL     1      -2.793  10.843  15.565  0.00  0.00    +0.000 C 
ATOM     17  C   UNL     1      -1.772  11.536  17.690  0.00  0.00    +0.000 C 
ATOM     18  C   UNL     1      -1.856  11.988  18.961  0.00  0.00    +0.000 C 
ENDROOT
BRANCH  16  19
ATOM     19  N   UNL     1      -3.812  10.557  14.687  0.00  0.00    +0.000 N 
ATOM     20  H   UNL     1      -4.692  11.048  14.896  0.00  0.00    +0.000 HD
BRANCH  19  21
ATOM     21  C   UNL     1      -3.844   9.592  13.608  0.00  0.00    +0.000 C 
ATOM     22  C   UNL     1      -4.771  10.079  12.500  0.00  0.00    +0.000 C 
ATOM     23  C   UNL     1      -2.422   9.413  13.076  0.00  0.00    +0.000 C 
ENDBRANCH  19  21
ENDBRANCH  16  19
BRANCH  18  24
ATOM     24  C   UNL     1      -0.602  12.150  19.698  0.00  0.00    +0.000 C 
ATOM     25  C   UNL     1       0.461  12.844  19.262  0.00  0.00    +0.000 C 
BRANCH  25  26
ATOM     26  C   UNL     1       1.688  12.913  20.105  0.00  0.00    +0.000 C 
ATOM     27  O   UNL     1       1.815  12.246  21.124  0.00  0.00    +0.000 OA
BRANCH  26  28
ATOM     28  C   UNL     1       2.779  13.821  19.664  0.00  0.00    +0.000 A 
ATOM     29  C   UNL     1       2.997  13.995  18.291  0.00  0.00    +0.000 A 
ATOM     30  C   UNL     1       3.969  14.895  17.844  0.00  0.00    +0.000 A 
ATOM     31  C   UNL     1       4.715  15.630  18.763  0.00  0.00    +0.000 A 
ATOM     32  C   UNL     1       4.500  15.464  20.131  0.00  0.00    +0.000 A 
ATOM     33  C   UNL     1       3.534  14.561  20.583  0.00  0.00    +0.000 A 
ENDBRANCH  26  28
ENDBRANCH  25  26
ENDBRANCH  18  24
TORSDOF 5
ENDMDL
MODEL 9
REMARK VINA RESULT:      -6.7      4.380      7.691
REMARK  Name = 
REMARK  8 active torsions:
REMARK  status: ('A' for Active; 'I' for Inactive)
REMARK    1  A    between atoms: C_1  and  C_2
REMARK    2  A    between atoms: C_16  and  N_17
REMARK    3  A    between atoms: N_17  and  C_18
REMARK    4  A    between atoms: C_18  and  C_19
REMARK    5  A    between atoms: C_18  and  C_20
REMARK    6  A    between atoms: C_22  and  C_23
REMARK    7  A    between atoms: C_24  and  C_25
REMARK    8  A    between atoms: C_25  and  C_27
REMARK                            x       y       z     vdW  Elec       q    Type
REMARK                         _______ _______ _______ _____ _____    ______ ____
ROOT
ATOM      1  C   UNL     1      -2.283  12.850  23.907  0.00  0.00    +0.000 C 
ATOM      2  C   UNL     1      -1.465  13.208  22.697  0.00  0.00    +0.000 A 
ATOM      3  C   UNL     1      -1.352  14.476  22.290  0.00  0.00    +0.000 A 
ATOM      4  C   UNL     1      -0.576  14.876  21.111  0.00  0.00    +0.000 A 
ATOM      5  O   UNL     1      -0.507  16.052  20.780  0.00  0.00    +0.000 OA
ATOM      6  O   UNL     1       0.049  13.857  20.412  0.00  0.00    +0.000 OA
ATOM      7  C   UNL     1      -0.014  12.492  20.797  0.00  0.00    +0.000 A 
ATOM      8  C   UNL     1       0.684  11.535  20.018  0.00  0.00    +0.000 A 
ATOM      9  C   UNL     1       0.577  10.199  20.448  0.00  0.00    +0.000 A 
ATOM     10  C   UNL     1      -0.176   9.846  21.578  0.00  0.00    +0.000 A 
ATOM     11  C   UNL     1      -0.844  10.815  22.314  0.00  0.00    +0.000 A 
ATOM     12  C   UNL     1      -0.773  12.156  21.936  0.00  0.00    +0.000 A 
ATOM     13  C   UNL     1       1.247   9.092  19.735  0.00  0.00    +0.000 C 
ATOM     14  O   UNL     1       1.172   7.946  20.174  0.00  0.00    +0.000 OA
ATOM     15  C   UNL     1       1.996   9.452  18.493  0.00  0.00    +0.000 C 
ATOM     16  C   UNL     1       2.569   8.463  17.777  0.00  0.00    +0.000 C 
ATOM     17  C   UNL     1       2.079  10.846  18.115  0.00  0.00    +0.000 C 
ATOM     18  C   UNL     1       1.487  11.858  18.789  0.00  0.00    +0.000 C 
ENDROOT
BRANCH  16  19
ATOM     19  N   UNL     1       2.543   7.115  18.054  0.00  0.00    +0.000 N 
ATOM     20  H   UNL     1       1.594   6.728  18.148  0.00  0.00    +0.000 HD
BRANCH  19  21
ATOM     21  C   UNL     1       3.645   6.221  18.341  0.00  0.00    +0.000 C 
ATOM     22  C   UNL     1       3.140   4.785  18.430  0.00  0.00    +0.000 C 
ATOM     23  C   UNL     1       4.682   6.356  17.227  0.00  0.00    +0.000 C 
ENDBRANCH  19  21
ENDBRANCH  16  19
BRANCH  18  24
ATOM     24  C   UNL     1       1.731  13.217  18.307  0.00  0.00    +0.000 C 
ATOM     25  C   UNL     1       2.812  13.955  18.604  0.00  0.00    +0.000 C 
BRANCH  25  26
ATOM     26  C   UNL     1       2.928  15.338  18.062  0.00  0.00    +0.000 C 
ATOM     27  O   UNL     1       3.370  15.565  16.943  0.00  0.00    +0.000 OA
BRANCH  26  28
ATOM     28  C   UNL     1       2.473  16.459  18.927  0.00  0.00    +0.000 A 
ATOM     29  C   UNL     1       2.987  16.557  20.227  0.00  0.00    +0.000 A 
ATOM     30  C   UNL     1       2.633  17.637  21.041  0.00  0.00    +0.000 A 
ATOM     31  C   UNL     1       1.780  18.627  20.555  0.00  0.00    +0.000 A 
ATOM     32  C   UNL     1       1.269  18.537  19.260  0.00  0.00    +0.000 A 
ATOM     33  C   UNL     1       1.614  17.455  18.446  0.00  0.00    +0.000 A 
ENDBRANCH  26  28
ENDBRANCH  25  26
ENDBRANCH  18  24
TORSDOF 5
ENDMDL
