MODEL 1
REMARK VINA RESULT:      -7.4      0.000      0.000
REMARK  Name = 
REMARK  3 active torsions:
REMARK  status: ('A' for Active; 'I' for Inactive)
REMARK    1  A    between atoms: N_1  and  S_2
REMARK    2  A    between atoms: S_2  and  C_5
REMARK    3  A    between atoms: C_8  and  N_9
REMARK                            x       y       z     vdW  Elec       q    Type
REMARK                         _______ _______ _______ _____ _____    ______ ____
ROOT
ATOM      1  N   UNL     1       1.278   7.483  20.640  0.00  0.00    +0.000 N 
ATOM      2  C   UNL     1       0.921   8.683  21.251  0.00  0.00    +0.000 A 
ATOM      3  N   UNL     1       0.119   8.525  22.319  0.00  0.00    +0.000 NA
ATOM      4  C   UNL     1      -0.467   9.622  22.822  0.00  0.00    +0.000 A 
ATOM      5  C   UNL     1      -0.298  10.863  22.273  0.00  0.00    +0.000 A 
ATOM      6  C   UNL     1       0.656  10.966  21.276  0.00  0.00    +0.000 A 
ATOM      7  N   UNL     1       1.281   9.887  20.763  0.00  0.00    +0.000 NA
ATOM      8  C   UNL     1       0.759  12.247  20.550  0.00  0.00    +0.000 A 
ATOM      9  C   UNL     1       1.916  13.033  20.518  0.00  0.00    +0.000 A 
ATOM     10  C   UNL     1       1.890  14.293  19.901  0.00  0.00    +0.000 A 
ATOM     11  C   UNL     1       0.751  14.719  19.211  0.00  0.00    +0.000 A 
ATOM     12 CL   UNL     1       0.741  16.249  18.424  0.00  0.00    +0.000 Cl
ATOM     13  C   UNL     1      -0.417  13.973  19.255  0.00  0.00    +0.000 A 
ATOM     14  C   UNL     1      -0.430  12.824  20.043  0.00  0.00    +0.000 A 
ATOM     15  S   UNL     1      -1.999  12.392  20.855  0.00  0.00    +0.000 S 
ATOM     16  C   UNL     1      -1.227  12.010  22.500  0.00  0.00    +0.000 C 
ATOM     17  H   UNL     1       0.811   6.721  21.113  0.00  0.00    +0.000 HD
ENDROOT
BRANCH   1  21
ATOM     18  C   UNL     1       4.157   6.593  17.715  0.00  0.00    +0.000 A 
ATOM     19  C   UNL     1       3.959   5.724  18.791  0.00  0.00    +0.000 A 
ATOM     20  C   UNL     1       2.944   6.003  19.713  0.00  0.00    +0.000 A 
ATOM     21  C   UNL     1       2.143   7.154  19.595  0.00  0.00    +0.000 A 
ATOM     22  C   UNL     1       2.333   7.974  18.479  0.00  0.00    +0.000 A 
ATOM     23  C   UNL     1       3.338   7.707  17.551  0.00  0.00    +0.000 A 
BRANCH  18  24
ATOM     24  S   UNL     1       5.497   6.348  16.596  0.00  0.00    +0.000 S 
ATOM     25  O   UNL     1       5.119   6.840  15.278  0.00  0.00    +0.000 OA
ATOM     26  O   UNL     1       6.056   5.028  16.802  0.00  0.00    +0.000 OA
BRANCH  24  27
ATOM     27  N   UNL     1       6.635   7.425  17.172  0.00  0.00    +0.000 NA
ATOM     28  H   UNL     1       7.478   7.366  16.601  0.00  0.00    +0.000 HD
ATOM     29  H   UNL     1       6.787   7.269  18.167  0.00  0.00    +0.000 HD
ENDBRANCH  24  27
ENDBRANCH  18  24
ENDBRANCH   1  21
TORSDOF 3
ENDMDL
MODEL 2
REMARK VINA RESULT:      -7.3      3.313      4.759
REMARK  Name = 
REMARK  3 active torsions:
REMARK  status: ('A' for Active; 'I' for Inactive)
REMARK    1  A    between atoms: N_1  and  S_2
REMARK    2  A    between atoms: S_2  and  C_5
REMARK    3  A    between atoms: C_8  and  N_9
REMARK                            x       y       z     vdW  Elec       q    Type
REMARK                         _______ _______ _______ _____ _____    ______ ____
ROOT
ATOM      1  N   UNL     1       0.589  10.958  18.561  0.00  0.00    +0.000 N 
ATOM      2  C   UNL     1       0.800  12.290  18.912  0.00  0.00    +0.000 A 
ATOM      3  N   UNL     1      -0.166  13.119  18.479  0.00  0.00    +0.000 NA
ATOM      4  C   UNL     1       0.067  14.438  18.559  0.00  0.00    +0.000 A 
ATOM      5  C   UNL     1       1.245  14.949  19.030  0.00  0.00    +0.000 A 
ATOM      6  C   UNL     1       2.124  14.040  19.594  0.00  0.00    +0.000 A 
ATOM      7  N   UNL     1       1.909  12.710  19.552  0.00  0.00    +0.000 NA
ATOM      8  C   UNL     1       3.467  14.523  19.970  0.00  0.00    +0.000 A 
ATOM      9  C   UNL     1       3.972  14.482  21.274  0.00  0.00    +0.000 A 
ATOM     10  C   UNL     1       5.213  15.070  21.563  0.00  0.00    +0.000 A 
ATOM     11  C   UNL     1       6.006  15.589  20.534  0.00  0.00    +0.000 A 
ATOM     12 CL   UNL     1       7.545  16.272  20.892  0.00  0.00    +0.000 Cl
ATOM     13  C   UNL     1       5.514  15.669  19.240  0.00  0.00    +0.000 A 
ATOM     14  C   UNL     1       4.200  15.265  19.013  0.00  0.00    +0.000 A 
ATOM     15  S   UNL     1       3.269  16.155  17.730  0.00  0.00    +0.000 S 
ATOM     16  C   UNL     1       1.726  16.334  18.748  0.00  0.00    +0.000 C 
ATOM     17  H   UNL     1      -0.248  10.894  17.999  0.00  0.00    +0.000 HD
ENDROOT
BRANCH   1  21
ATOM     18  C   UNL     1       2.324   7.199  19.266  0.00  0.00    +0.000 A 
ATOM     19  C   UNL     1       2.493   7.828  18.031  0.00  0.00    +0.000 A 
ATOM     20  C   UNL     1       1.968   9.112  17.844  0.00  0.00    +0.000 A 
ATOM     21  C   UNL     1       1.250   9.766  18.863  0.00  0.00    +0.000 A 
ATOM     22  C   UNL     1       1.145   9.130  20.102  0.00  0.00    +0.000 A 
ATOM     23  C   UNL     1       1.664   7.852  20.304  0.00  0.00    +0.000 A 
BRANCH  18  24
ATOM     24  S   UNL     1       2.862   5.538  19.511  0.00  0.00    +0.000 S 
ATOM     25  O   UNL     1       4.317   5.500  19.526  0.00  0.00    +0.000 OA
ATOM     26  O   UNL     1       2.069   4.652  18.683  0.00  0.00    +0.000 OA
BRANCH  24  27
ATOM     27  N   UNL     1       2.385   5.244  21.084  0.00  0.00    +0.000 NA
ATOM     28  H   UNL     1       2.887   5.870  21.714  0.00  0.00    +0.000 HD
ATOM     29  H   UNL     1       2.491   4.254  21.298  0.00  0.00    +0.000 HD
ENDBRANCH  24  27
ENDBRANCH  18  24
ENDBRANCH   1  21
TORSDOF 3
ENDMDL
MODEL 3
REMARK VINA RESULT:      -7.2      0.506      1.072
REMARK  Name = 
REMARK  3 active torsions:
REMARK  status: ('A' for Active; 'I' for Inactive)
REMARK    1  A    between atoms: N_1  and  S_2
REMARK    2  A    between atoms: S_2  and  C_5
REMARK    3  A    between atoms: C_8  and  N_9
REMARK                            x       y       z     vdW  Elec       q    Type
REMARK                         _______ _______ _______ _____ _____    ______ ____
ROOT
ATOM      1  N   UNL     1       1.407   7.418  20.649  0.00  0.00    +0.000 N 
ATOM      2  C   UNL     1       0.954   8.606  21.220  0.00  0.00    +0.000 A 
ATOM      3  N   UNL     1       0.027   8.422  22.177  0.00  0.00    +0.000 NA
ATOM      4  C   UNL     1      -0.638   9.504  22.612  0.00  0.00    +0.000 A 
ATOM      5  C   UNL     1      -0.424  10.753  22.098  0.00  0.00    +0.000 A 
ATOM      6  C   UNL     1       0.645  10.883  21.230  0.00  0.00    +0.000 A 
ATOM      7  N   UNL     1       1.349   9.821  20.791  0.00  0.00    +0.000 NA
ATOM      8  C   UNL     1       0.814  12.173  20.533  0.00  0.00    +0.000 A 
ATOM      9  C   UNL     1       1.951  12.979  20.653  0.00  0.00    +0.000 A 
ATOM     10  C   UNL     1       1.979  14.246  20.047  0.00  0.00    +0.000 A 
ATOM     11  C   UNL     1       0.927  14.658  19.224  0.00  0.00    +0.000 A 
ATOM     12 CL   UNL     1       0.988  16.196  18.454  0.00  0.00    +0.000 Cl
ATOM     13  C   UNL     1      -0.223  13.891  19.115  0.00  0.00    +0.000 A 
ATOM     14  C   UNL     1      -0.313  12.734  19.885  0.00  0.00    +0.000 A 
ATOM     15  S   UNL     1      -1.963  12.267  20.491  0.00  0.00    +0.000 S 
ATOM     16  C   UNL     1      -1.395  11.881  22.217  0.00  0.00    +0.000 C 
ATOM     17  H   UNL     1       0.899   6.644  21.053  0.00  0.00    +0.000 HD
ENDROOT
BRANCH   1  21
ATOM     18  C   UNL     1       4.131   6.381  17.626  0.00  0.00    +0.000 A 
ATOM     19  C   UNL     1       3.341   7.525  17.494  0.00  0.00    +0.000 A 
ATOM     20  C   UNL     1       2.494   7.891  18.547  0.00  0.00    +0.000 A 
ATOM     21  C   UNL     1       2.402   7.115  19.717  0.00  0.00    +0.000 A 
ATOM     22  C   UNL     1       3.244   6.007  19.838  0.00  0.00    +0.000 A 
ATOM     23  C   UNL     1       4.095   5.631  18.799  0.00  0.00    +0.000 A 
BRANCH  18  24
ATOM     24  S   UNL     1       5.124   5.814  16.284  0.00  0.00    +0.000 S 
ATOM     25  O   UNL     1       5.124   6.816  15.227  0.00  0.00    +0.000 OA
ATOM     26  O   UNL     1       4.831   4.417  16.031  0.00  0.00    +0.000 OA
BRANCH  24  27
ATOM     27  N   UNL     1       6.657   5.849  16.943  0.00  0.00    +0.000 NA
ATOM     28  H   UNL     1       7.347   5.701  16.207  0.00  0.00    +0.000 HD
ATOM     29  H   UNL     1       6.716   5.190  17.717  0.00  0.00    +0.000 HD
ENDBRANCH  24  27
ENDBRANCH  18  24
ENDBRANCH   1  21
TORSDOF 3
ENDMDL
MODEL 4
REMARK VINA RESULT:      -7.1      4.931      7.082
REMARK  Name = 
REMARK  3 active torsions:
REMARK  status: ('A' for Active; 'I' for Inactive)
REMARK    1  A    between atoms: N_1  and  S_2
REMARK    2  A    between atoms: S_2  and  C_5
REMARK    3  A    between atoms: C_8  and  N_9
REMARK                            x       y       z     vdW  Elec       q    Type
REMARK                         _______ _______ _______ _____ _____    ______ ____
ROOT
ATOM      1  N   UNL     1       2.333  14.765  19.014  0.00  0.00    +0.000 N 
ATOM      2  C   UNL     1       1.505  13.675  18.752  0.00  0.00    +0.000 A 
ATOM      3  N   UNL     1       0.198  13.989  18.716  0.00  0.00    +0.000 NA
ATOM      4  C   UNL     1      -0.683  12.977  18.710  0.00  0.00    +0.000 A 
ATOM      5  C   UNL     1      -0.296  11.666  18.767  0.00  0.00    +0.000 A 
ATOM      6  C   UNL     1       1.061  11.422  18.648  0.00  0.00    +0.000 A 
ATOM      7  N   UNL     1       1.971  12.417  18.628  0.00  0.00    +0.000 NA
ATOM      8  C   UNL     1       1.535  10.041  18.862  0.00  0.00    +0.000 A 
ATOM      9  C   UNL     1       2.211   9.292  17.894  0.00  0.00    +0.000 A 
ATOM     10  C   UNL     1       2.522   7.946  18.141  0.00  0.00    +0.000 A 
ATOM     11  C   UNL     1       2.268   7.381  19.394  0.00  0.00    +0.000 A 
ATOM     12 CL   UNL     1       2.689   5.740  19.701  0.00  0.00    +0.000 Cl
ATOM     13  C   UNL     1       1.571   8.092  20.358  0.00  0.00    +0.000 A 
ATOM     14  C   UNL     1       1.093   9.357  20.020  0.00  0.00    +0.000 A 
ATOM     15  S   UNL     1      -0.481   9.877  20.768  0.00  0.00    +0.000 S 
ATOM     16  C   UNL     1      -1.192  10.549  19.190  0.00  0.00    +0.000 C 
ATOM     17  H   UNL     1       1.760  15.582  19.173  0.00  0.00    +0.000 HD
ENDROOT
BRANCH   1  21
ATOM     18  C   UNL     1       6.529  14.923  19.037  0.00  0.00    +0.000 A 
ATOM     19  C   UNL     1       5.836  14.881  17.825  0.00  0.00    +0.000 A 
ATOM     20  C   UNL     1       4.437  14.904  17.841  0.00  0.00    +0.000 A 
ATOM     21  C   UNL     1       3.718  14.937  19.050  0.00  0.00    +0.000 A 
ATOM     22  C   UNL     1       4.442  15.031  20.241  0.00  0.00    +0.000 A 
ATOM     23  C   UNL     1       5.836  15.012  20.242  0.00  0.00    +0.000 A 
BRANCH  18  24
ATOM     24  S   UNL     1       8.285  14.778  19.075  0.00  0.00    +0.000 S 
ATOM     25  O   UNL     1       8.649  13.384  19.286  0.00  0.00    +0.000 OA
ATOM     26  O   UNL     1       8.836  15.855  19.874  0.00  0.00    +0.000 OA
BRANCH  24  27
ATOM     27  N   UNL     1       8.700  15.121  17.495  0.00  0.00    +0.000 NA
ATOM     28  H   UNL     1       7.993  14.739  16.867  0.00  0.00    +0.000 HD
ATOM     29  H   UNL     1       9.648  14.799  17.308  0.00  0.00    +0.000 HD
ENDBRANCH  24  27
ENDBRANCH  18  24
ENDBRANCH   1  21
TORSDOF 3
ENDMDL
MODEL 5
REMARK VINA RESULT:      -7.1      5.338      7.003
REMARK  Name = 
REMARK  3 active torsions:
REMARK  status: ('A' for Active; 'I' for Inactive)
REMARK    1  A    between atoms: N_1  and  S_2
REMARK    2  A    between atoms: S_2  and  C_5
REMARK    3  A    between atoms: C_8  and  N_9
REMARK                            x       y       z     vdW  Elec       q    Type
REMARK                         _______ _______ _______ _____ _____    ______ ____
ROOT
ATOM      1  N   UNL     1       6.140  15.763  18.577  0.00  0.00    +0.000 N 
ATOM      2  C   UNL     1       4.766  15.591  18.425  0.00  0.00    +0.000 A 
ATOM      3  N   UNL     1       4.095  16.744  18.256  0.00  0.00    +0.000 NA
ATOM      4  C   UNL     1       2.756  16.701  18.342  0.00  0.00    +0.000 A 
ATOM      5  C   UNL     1       2.074  15.548  18.618  0.00  0.00    +0.000 A 
ATOM      6  C   UNL     1       2.821  14.383  18.628  0.00  0.00    +0.000 A 
ATOM      7  N   UNL     1       4.165  14.388  18.521  0.00  0.00    +0.000 NA
ATOM      8  C   UNL     1       2.157  13.143  19.075  0.00  0.00    +0.000 A 
ATOM      9  C   UNL     1       2.017  12.003  18.277  0.00  0.00    +0.000 A 
ATOM     10  C   UNL     1       1.270  10.910  18.741  0.00  0.00    +0.000 A 
ATOM     11  C   UNL     1       0.764  10.902  20.044  0.00  0.00    +0.000 A 
ATOM     12 CL   UNL     1      -0.118   9.540  20.619  0.00  0.00    +0.000 Cl
ATOM     13  C   UNL     1       0.863  12.031  20.843  0.00  0.00    +0.000 A 
ATOM     14  C   UNL     1       1.431  13.176  20.290  0.00  0.00    +0.000 A 
ATOM     15  S   UNL     1       0.776  14.779  20.847  0.00  0.00    +0.000 S 
ATOM     16  C   UNL     1       0.677  15.510  19.142  0.00  0.00    +0.000 C 
ATOM     17  H   UNL     1       6.350  16.751  18.574  0.00  0.00    +0.000 HD
ENDROOT
BRANCH   1  21
ATOM     18  C   UNL     1       9.130  12.832  18.899  0.00  0.00    +0.000 A 
ATOM     19  C   UNL     1       8.459  13.018  17.689  0.00  0.00    +0.000 A 
ATOM     20  C   UNL     1       7.519  14.050  17.584  0.00  0.00    +0.000 A 
ATOM     21  C   UNL     1       7.216  14.880  18.679  0.00  0.00    +0.000 A 
ATOM     22  C   UNL     1       7.943  14.700  19.859  0.00  0.00    +0.000 A 
ATOM     23  C   UNL     1       8.885  13.678  19.978  0.00  0.00    +0.000 A 
BRANCH  18  24
ATOM     24  S   UNL     1      10.235  11.476  19.117  0.00  0.00    +0.000 S 
ATOM     25  O   UNL     1       9.468  10.241  19.214  0.00  0.00    +0.000 OA
ATOM     26  O   UNL     1      11.251  11.839  20.085  0.00  0.00    +0.000 OA
BRANCH  24  27
ATOM     27  N   UNL     1      11.009  11.414  17.639  0.00  0.00    +0.000 NA
ATOM     28  H   UNL     1      10.338  11.601  16.895  0.00  0.00    +0.000 HD
ATOM     29  H   UNL     1      11.507  10.530  17.547  0.00  0.00    +0.000 HD
ENDBRANCH  24  27
ENDBRANCH  18  24
ENDBRANCH   1  21
TORSDOF 3
ENDMDL
MODEL 6
REMARK VINA RESULT:      -7.1      5.261      7.430
REMARK  Name = 
REMARK  3 active torsions:
REMARK  status: ('A' for Active; 'I' for Inactive)
REMARK    1  A    between atoms: N_1  and  S_2
REMARK    2  A    between atoms: S_2  and  C_5
REMARK    3  A    between atoms: C_8  and  N_9
REMARK                            x       y       z     vdW  Elec       q    Type
REMARK                         _______ _______ _______ _____ _____    ______ ____
ROOT
ATOM      1  N   UNL     1       2.041  14.680  18.982  0.00  0.00    +0.000 N 
ATOM      2  C   UNL     1       1.258  13.551  18.750  0.00  0.00    +0.000 A 
ATOM      3  N   UNL     1      -0.064  13.801  18.764  0.00  0.00    +0.000 NA
ATOM      4  C   UNL     1      -0.894  12.747  18.790  0.00  0.00    +0.000 A 
ATOM      5  C   UNL     1      -0.443  11.457  18.831  0.00  0.00    +0.000 A 
ATOM      6  C   UNL     1       0.919  11.279  18.661  0.00  0.00    +0.000 A 
ATOM      7  N   UNL     1       1.779  12.316  18.608  0.00  0.00    +0.000 NA
ATOM      8  C   UNL     1       1.467   9.922  18.855  0.00  0.00    +0.000 A 
ATOM      9  C   UNL     1       2.142   9.206  17.861  0.00  0.00    +0.000 A 
ATOM     10  C   UNL     1       2.527   7.877  18.094  0.00  0.00    +0.000 A 
ATOM     11  C   UNL     1       2.348   7.301  19.356  0.00  0.00    +0.000 A 
ATOM     12 CL   UNL     1       2.859   5.683  19.645  0.00  0.00    +0.000 Cl
ATOM     13  C   UNL     1       1.654   7.978  20.346  0.00  0.00    +0.000 A 
ATOM     14  C   UNL     1       1.103   9.218  20.028  0.00  0.00    +0.000 A 
ATOM     15  S   UNL     1      -0.464   9.662  20.836  0.00  0.00    +0.000 S 
ATOM     16  C   UNL     1      -1.267  10.298  19.286  0.00  0.00    +0.000 C 
ATOM     17  H   UNL     1       1.435  15.468  19.164  0.00  0.00    +0.000 HD
ENDROOT
BRANCH   1  21
ATOM     18  C   UNL     1       6.099  15.755  18.895  0.00  0.00    +0.000 A 
ATOM     19  C   UNL     1       5.340  15.979  20.045  0.00  0.00    +0.000 A 
ATOM     20  C   UNL     1       4.009  15.545  20.077  0.00  0.00    +0.000 A 
ATOM     21  C   UNL     1       3.416  14.918  18.966  0.00  0.00    +0.000 A 
ATOM     22  C   UNL     1       4.219  14.662  17.851  0.00  0.00    +0.000 A 
ATOM     23  C   UNL     1       5.546  15.086  17.805  0.00  0.00    +0.000 A 
BRANCH  18  24
ATOM     24  S   UNL     1       7.740  16.386  18.762  0.00  0.00    +0.000 S 
ATOM     25  O   UNL     1       8.516  15.958  19.918  0.00  0.00    +0.000 OA
ATOM     26  O   UNL     1       7.686  17.768  18.329  0.00  0.00    +0.000 OA
BRANCH  24  27
ATOM     27  N   UNL     1       8.343  15.523  17.466  0.00  0.00    +0.000 NA
ATOM     28  H   UNL     1       8.157  14.529  17.603  0.00  0.00    +0.000 HD
ATOM     29  H   UNL     1       9.325  15.753  17.324  0.00  0.00    +0.000 HD
ENDBRANCH  24  27
ENDBRANCH  18  24
ENDBRANCH   1  21
TORSDOF 3
ENDMDL
MODEL 7
REMARK VINA RESULT:      -7.0      3.775      4.822
REMARK  Name = 
REMARK  3 active torsions:
REMARK  status: ('A' for Active; 'I' for Inactive)
REMARK    1  A    between atoms: N_1  and  S_2
REMARK    2  A    between atoms: S_2  and  C_5
REMARK    3  A    between atoms: C_8  and  N_9
REMARK                            x       y       z     vdW  Elec       q    Type
REMARK                         _______ _______ _______ _____ _____    ______ ____
ROOT
ATOM      1  N   UNL     1       2.368   8.591  19.019  0.00  0.00    +0.000 N 
ATOM      2  C   UNL     1       1.673   9.710  18.563  0.00  0.00    +0.000 A 
ATOM      3  N   UNL     1       2.393  10.845  18.608  0.00  0.00    +0.000 NA
ATOM      4  C   UNL     1       1.739  12.002  18.420  0.00  0.00    +0.000 A 
ATOM      5  C   UNL     1       0.387  12.058  18.218  0.00  0.00    +0.000 A 
ATOM      6  C   UNL     1      -0.255  10.845  18.035  0.00  0.00    +0.000 A 
ATOM      7  N   UNL     1       0.377   9.665  18.194  0.00  0.00    +0.000 NA
ATOM      8  C   UNL     1      -1.729  10.849  17.972  0.00  0.00    +0.000 A 
ATOM      9  C   UNL     1      -2.462  10.400  16.869  0.00  0.00    +0.000 A 
ATOM     10  C   UNL     1      -3.858  10.548  16.848  0.00  0.00    +0.000 A 
ATOM     11  C   UNL     1      -4.534  11.031  17.973  0.00  0.00    +0.000 A 
ATOM     12 CL   UNL     1      -6.250  11.172  17.953  0.00  0.00    +0.000 Cl
ATOM     13  C   UNL     1      -3.828  11.510  19.066  0.00  0.00    +0.000 A 
ATOM     14  C   UNL     1      -2.438  11.542  18.983  0.00  0.00    +0.000 A 
ATOM     15  S   UNL     1      -1.587  12.901  19.841  0.00  0.00    +0.000 S 
ATOM     16  C   UNL     1      -0.438  13.283  18.432  0.00  0.00    +0.000 C 
ATOM     17  H   UNL     1       3.281   8.880  19.340  0.00  0.00    +0.000 HD
ENDROOT
BRANCH   1  21
ATOM     18  C   UNL     1       1.802   4.442  19.338  0.00  0.00    +0.000 A 
ATOM     19  C   UNL     1       1.615   5.263  20.452  0.00  0.00    +0.000 A 
ATOM     20  C   UNL     1       1.737   6.649  20.305  0.00  0.00    +0.000 A 
ATOM     21  C   UNL     1       2.073   7.227  19.067  0.00  0.00    +0.000 A 
ATOM     22  C   UNL     1       2.202   6.382  17.961  0.00  0.00    +0.000 A 
ATOM     23  C   UNL     1       2.081   5.000  18.092  0.00  0.00    +0.000 A 
BRANCH  18  24
ATOM     24  S   UNL     1       1.776   2.687  19.498  0.00  0.00    +0.000 S 
ATOM     25  O   UNL     1       1.490   2.333  20.881  0.00  0.00    +0.000 OA
ATOM     26  O   UNL     1       2.894   2.125  18.767  0.00  0.00    +0.000 OA
BRANCH  24  27
ATOM     27  N   UNL     1       0.409   2.277  18.632  0.00  0.00    +0.000 NA
ATOM     28  H   UNL     1      -0.134   1.593  19.158  0.00  0.00    +0.000 HD
ATOM     29  H   UNL     1       0.670   1.978  17.694  0.00  0.00    +0.000 HD
ENDBRANCH  24  27
ENDBRANCH  18  24
ENDBRANCH   1  21
TORSDOF 3
ENDMDL
MODEL 8
REMARK VINA RESULT:      -7.0      5.017      8.775
REMARK  Name = 
REMARK  3 active torsions:
REMARK  status: ('A' for Active; 'I' for Inactive)
REMARK    1  A    between atoms: N_1  and  S_2
REMARK    2  A    between atoms: S_2  and  C_5
REMARK    3  A    between atoms: C_8  and  N_9
REMARK                            x       y       z     vdW  Elec       q    Type
REMARK                         _______ _______ _______ _____ _____    ______ ____
ROOT
ATOM      1  N   UNL     1       1.584   9.534  17.698  0.00  0.00    +0.000 N 
ATOM      2  C   UNL     1       2.387   8.415  17.909  0.00  0.00    +0.000 A 
ATOM      3  N   UNL     1       3.331   8.246  16.967  0.00  0.00    +0.000 NA
ATOM      4  C   UNL     1       3.990   7.077  16.952  0.00  0.00    +0.000 A 
ATOM      5  C   UNL     1       3.712   6.065  17.829  0.00  0.00    +0.000 A 
ATOM      6  C   UNL     1       2.838   6.371  18.858  0.00  0.00    +0.000 A 
ATOM      7  N   UNL     1       2.177   7.544  18.916  0.00  0.00    +0.000 NA
ATOM      8  C   UNL     1       2.389   5.269  19.731  0.00  0.00    +0.000 A 
ATOM      9  C   UNL     1       2.610   5.231  21.112  0.00  0.00    +0.000 A 
ATOM     10  C   UNL     1       2.253   4.091  21.848  0.00  0.00    +0.000 A 
ATOM     11  C   UNL     1       1.568   3.039  21.232  0.00  0.00    +0.000 A 
ATOM     12 CL   UNL     1       1.099   1.661  22.150  0.00  0.00    +0.000 Cl
ATOM     13  C   UNL     1       1.366   3.039  19.860  0.00  0.00    +0.000 A 
ATOM     14  C   UNL     1       1.908   4.087  19.119  0.00  0.00    +0.000 A 
ATOM     15  S   UNL     1       2.485   3.703  17.438  0.00  0.00    +0.000 S 
ATOM     16  C   UNL     1       4.082   4.637  17.601  0.00  0.00    +0.000 C 
ATOM     17  H   UNL     1       1.856   9.976  16.831  0.00  0.00    +0.000 HD
ENDROOT
BRANCH   1  21
ATOM     18  C   UNL     1      -1.475  11.636  19.664  0.00  0.00    +0.000 A 
ATOM     19  C   UNL     1      -1.765  10.873  18.531  0.00  0.00    +0.000 A 
ATOM     20  C   UNL     1      -0.745  10.122  17.936  0.00  0.00    +0.000 A 
ATOM     21  C   UNL     1       0.570  10.146  18.438  0.00  0.00    +0.000 A 
ATOM     22  C   UNL     1       0.814  10.878  19.603  0.00  0.00    +0.000 A 
ATOM     23  C   UNL     1      -0.192  11.629  20.208  0.00  0.00    +0.000 A 
BRANCH  18  24
ATOM     24  S   UNL     1      -2.695  12.689  20.378  0.00  0.00    +0.000 S 
ATOM     25  O   UNL     1      -2.599  12.622  21.829  0.00  0.00    +0.000 OA
ATOM     26  O   UNL     1      -3.948  12.513  19.672  0.00  0.00    +0.000 OA
BRANCH  24  27
ATOM     27  N   UNL     1      -2.139  14.206  19.956  0.00  0.00    +0.000 NA
ATOM     28  H   UNL     1      -2.739  14.916  20.375  0.00  0.00    +0.000 HD
ATOM     29  H   UNL     1      -2.050  14.272  18.943  0.00  0.00    +0.000 HD
ENDBRANCH  24  27
ENDBRANCH  18  24
ENDBRANCH   1  21
TORSDOF 3
ENDMDL
MODEL 9
REMARK VINA RESULT:      -6.9      3.180      4.466
REMARK  Name = 
REMARK  3 active torsions:
REMARK  status: ('A' for Active; 'I' for Inactive)
REMARK    1  A    between atoms: N_1  and  S_2
REMARK    2  A    between atoms: S_2  and  C_5
REMARK    3  A    between atoms: C_8  and  N_9
REMARK                            x       y       z     vdW  Elec       q    Type
REMARK                         _______ _______ _______ _____ _____    ______ ____
ROOT
ATOM      1  N   UNL     1       2.665   8.903  18.215  0.00  0.00    +0.000 N 
ATOM      2  C   UNL     1       2.034  10.143  18.286  0.00  0.00    +0.000 A 
ATOM      3  N   UNL     1       2.653  11.102  17.575  0.00  0.00    +0.000 NA
ATOM      4  C   UNL     1       2.261  12.371  17.772  0.00  0.00    +0.000 A 
ATOM      5  C   UNL     1       1.293  12.709  18.677  0.00  0.00    +0.000 A 
ATOM      6  C   UNL     1       0.602  11.658  19.255  0.00  0.00    +0.000 A 
ATOM      7  N   UNL     1       0.955  10.371  19.060  0.00  0.00    +0.000 NA
ATOM      8  C   UNL     1      -0.338  11.969  20.349  0.00  0.00    +0.000 A 
ATOM      9  C   UNL     1      -1.707  11.687  20.303  0.00  0.00    +0.000 A 
ATOM     10  C   UNL     1      -2.548  12.123  21.338  0.00  0.00    +0.000 A 
ATOM     11  C   UNL     1      -2.010  12.733  22.475  0.00  0.00    +0.000 A 
ATOM     12 CL   UNL     1      -3.045  13.230  23.758  0.00  0.00    +0.000 Cl
ATOM     13  C   UNL     1      -0.662  13.053  22.531  0.00  0.00    +0.000 A 
ATOM     14  C   UNL     1       0.118  12.793  21.406  0.00  0.00    +0.000 A 
ATOM     15  S   UNL     1       1.485  13.942  21.061  0.00  0.00    +0.000 S 
ATOM     16  C   UNL     1       1.122  14.079  19.245  0.00  0.00    +0.000 C 
ATOM     17  H   UNL     1       3.508   8.994  17.665  0.00  0.00    +0.000 HD
ENDROOT
BRANCH   1  21
ATOM     18  C   UNL     1       2.031   5.077  19.827  0.00  0.00    +0.000 A 
ATOM     19  C   UNL     1       1.896   6.209  20.634  0.00  0.00    +0.000 A 
ATOM     20  C   UNL     1       2.039   7.477  20.058  0.00  0.00    +0.000 A 
ATOM     21  C   UNL     1       2.346   7.631  18.694  0.00  0.00    +0.000 A 
ATOM     22  C   UNL     1       2.423   6.480  17.904  0.00  0.00    +0.000 A 
ATOM     23  C   UNL     1       2.280   5.211  18.463  0.00  0.00    +0.000 A 
BRANCH  18  24
ATOM     24  S   UNL     1       1.976   3.461  20.527  0.00  0.00    +0.000 S 
ATOM     25  O   UNL     1       2.127   3.556  21.972  0.00  0.00    +0.000 OA
ATOM     26  O   UNL     1       2.779   2.564  19.719  0.00  0.00    +0.000 OA
BRANCH  24  27
ATOM     27  N   UNL     1       0.388   3.018  20.264  0.00  0.00    +0.000 NA
ATOM     28  H   UNL     1       0.298   2.612  19.333  0.00  0.00    +0.000 HD
ATOM     29  H   UNL     1      -0.226   3.812  20.441  0.00  0.00    +0.000 HD
ENDBRANCH  24  27
ENDBRANCH  18  24
ENDBRANCH   1  21
TORSDOF 3
ENDMDL
