MODEL 1
REMARK VINA RESULT:      -7.5      0.000      0.000
REMARK  Name = 
REMARK  3 active torsions:
REMARK  status: ('A' for Active; 'I' for Inactive)
REMARK    1  A    between atoms: C_2  and  C_3
REMARK    2  A    between atoms: C_3  and  N_4
REMARK    3  A    between atoms: N_14  and  C_15
REMARK                            x       y       z     vdW  Elec       q    Type
REMARK                         _______ _______ _______ _____ _____    ______ ____
ROOT
ATOM      1  O   UNL     1       8.114   4.271  17.154  0.00  0.00    +0.000 OA
ATOM      2  C   UNL     1       6.914   4.488  17.320  0.00  0.00    +0.000 C 
ATOM      3  N   UNL     1       6.004   4.660  16.293  0.00  0.00    +0.000 N 
ATOM      4  H   UNL     1       5.176   5.193  16.558  0.00  0.00    +0.000 HD
ENDROOT
BRANCH   3   5
ATOM      5  C   UNL     1       6.333   4.533  14.929  0.00  0.00    +0.000 A 
ATOM      6  C   UNL     1       5.691   3.612  14.092  0.00  0.00    +0.000 A 
ATOM      7  C   UNL     1       6.054   3.511  12.747  0.00  0.00    +0.000 A 
ATOM      8 CL   UNL     1       5.230   2.407  11.717  0.00  0.00    +0.000 Cl
ATOM      9  C   UNL     1       7.078   4.300  12.233  0.00  0.00    +0.000 A 
ATOM     10  C   UNL     1       7.712   5.218  13.068  0.00  0.00    +0.000 A 
ATOM     11 CL   UNL     1       9.011   6.167  12.456  0.00  0.00    +0.000 Cl
ATOM     12  C   UNL     1       7.328   5.363  14.403  0.00  0.00    +0.000 A 
ENDBRANCH   3   5
BRANCH   2  13
ATOM     13  C   UNL     1       6.336   4.516  18.735  0.00  0.00    +0.000 C 
BRANCH  13  14
ATOM     14  N   UNL     1       4.889   4.463  18.943  0.00  0.00    +0.000 N 
ATOM     15  N   UNL     1       4.131   5.620  18.685  0.00  0.00    +0.000 NA
ATOM     16  C   UNL     1       2.860   5.600  18.982  0.00  0.00    +0.000 A 
ATOM     17  N   UNL     1       2.278   4.471  19.530  0.00  0.00    +0.000 N 
ATOM     18  N   UNL     1       0.959   4.379  19.782  0.00  0.00    +0.000 NA
ATOM     19  C   UNL     1       0.827   3.131  20.254  0.00  0.00    +0.000 A 
ATOM     20  C   UNL     1       2.061   2.446  20.324  0.00  0.00    +0.000 A 
ATOM     21  C   UNL     1       2.976   3.352  19.839  0.00  0.00    +0.000 A 
ATOM     22  C   UNL     1       4.387   3.322  19.619  0.00  0.00    +0.000 A 
ATOM     23  O   UNL     1       5.093   2.386  19.982  0.00  0.00    +0.000 OA
ENDBRANCH  13  14
ENDBRANCH   2  13
TORSDOF 3
ENDMDL
MODEL 2
REMARK VINA RESULT:      -7.5      4.808      7.791
REMARK  Name = 
REMARK  3 active torsions:
REMARK  status: ('A' for Active; 'I' for Inactive)
REMARK    1  A    between atoms: C_2  and  C_3
REMARK    2  A    between atoms: C_3  and  N_4
REMARK    3  A    between atoms: N_14  and  C_15
REMARK                            x       y       z     vdW  Elec       q    Type
REMARK                         _______ _______ _______ _____ _____    ______ ____
ROOT
ATOM      1  O   UNL     1       1.301   5.005  20.004  0.00  0.00    +0.000 OA
ATOM      2  C   UNL     1       2.449   5.415  19.828  0.00  0.00    +0.000 C 
ATOM      3  N   UNL     1       2.808   6.750  19.830  0.00  0.00    +0.000 N 
ATOM      4  H   UNL     1       3.662   6.952  19.310  0.00  0.00    +0.000 HD
ENDROOT
BRANCH   3   5
ATOM      5  C   UNL     1       1.909   7.799  20.109  0.00  0.00    +0.000 A 
ATOM      6  C   UNL     1       1.419   8.644  19.104  0.00  0.00    +0.000 A 
ATOM      7  C   UNL     1       0.536   9.678  19.423  0.00  0.00    +0.000 A 
ATOM      8 CL   UNL     1      -0.094  10.683  18.178  0.00  0.00    +0.000 Cl
ATOM      9  C   UNL     1       0.159   9.900  20.745  0.00  0.00    +0.000 A 
ATOM     10  C   UNL     1       0.646   9.055  21.740  0.00  0.00    +0.000 A 
ATOM     11 CL   UNL     1       0.224   9.347  23.383  0.00  0.00    +0.000 Cl
ATOM     12  C   UNL     1       1.492   7.988  21.430  0.00  0.00    +0.000 A 
ENDBRANCH   3   5
BRANCH   2  13
ATOM     13  C   UNL     1       3.594   4.418  19.654  0.00  0.00    +0.000 C 
BRANCH  13  14
ATOM     14  N   UNL     1       4.655   4.674  18.682  0.00  0.00    +0.000 N 
ATOM     15  N   UNL     1       5.677   5.578  19.027  0.00  0.00    +0.000 NA
ATOM     16  C   UNL     1       6.557   5.889  18.113  0.00  0.00    +0.000 A 
ATOM     17  N   UNL     1       6.486   5.340  16.846  0.00  0.00    +0.000 N 
ATOM     18  N   UNL     1       7.412   5.573  15.896  0.00  0.00    +0.000 NA
ATOM     19  C   UNL     1       6.984   4.827  14.868  0.00  0.00    +0.000 A 
ATOM     20  C   UNL     1       5.781   4.146  15.156  0.00  0.00    +0.000 A 
ATOM     21  C   UNL     1       5.495   4.504  16.453  0.00  0.00    +0.000 A 
ATOM     22  C   UNL     1       4.449   4.177  17.370  0.00  0.00    +0.000 A 
ATOM     23  O   UNL     1       3.466   3.520  17.044  0.00  0.00    +0.000 OA
ENDBRANCH  13  14
ENDBRANCH   2  13
TORSDOF 3
ENDMDL
MODEL 3
REMARK VINA RESULT:      -7.4      1.267      1.522
REMARK  Name = 
REMARK  3 active torsions:
REMARK  status: ('A' for Active; 'I' for Inactive)
REMARK    1  A    between atoms: C_2  and  C_3
REMARK    2  A    between atoms: C_3  and  N_4
REMARK    3  A    between atoms: N_14  and  C_15
REMARK                            x       y       z     vdW  Elec       q    Type
REMARK                         _______ _______ _______ _____ _____    ______ ____
ROOT
ATOM      1  O   UNL     1       7.877   4.425  17.047  0.00  0.00    +0.000 OA
ATOM      2  C   UNL     1       6.652   4.512  17.136  0.00  0.00    +0.000 C 
ATOM      3  N   UNL     1       5.794   4.559  16.053  0.00  0.00    +0.000 N 
ATOM      4  H   UNL     1       4.898   5.004  16.253  0.00  0.00    +0.000 HD
ENDROOT
BRANCH   3   5
ATOM      5  C   UNL     1       6.218   4.438  14.715  0.00  0.00    +0.000 A 
ATOM      6  C   UNL     1       5.661   3.496  13.841  0.00  0.00    +0.000 A 
ATOM      7  C   UNL     1       6.116   3.402  12.524  0.00  0.00    +0.000 A 
ATOM      8 CL   UNL     1       5.397   2.272  11.446  0.00  0.00    +0.000 Cl
ATOM      9  C   UNL     1       7.150   4.220  12.076  0.00  0.00    +0.000 A 
ATOM     10  C   UNL     1       7.699   5.158  12.948  0.00  0.00    +0.000 A 
ATOM     11 CL   UNL     1       9.008   6.143  12.421  0.00  0.00    +0.000 Cl
ATOM     12  C   UNL     1       7.222   5.296  14.254  0.00  0.00    +0.000 A 
ENDBRANCH   3   5
BRANCH   2  13
ATOM     13  C   UNL     1       5.989   4.508  18.513  0.00  0.00    +0.000 C 
BRANCH  13  14
ATOM     14  N   UNL     1       4.694   3.858  18.708  0.00  0.00    +0.000 N 
ATOM     15  N   UNL     1       4.423   2.677  17.993  0.00  0.00    +0.000 NA
ATOM     16  C   UNL     1       3.225   2.165  18.083  0.00  0.00    +0.000 A 
ATOM     17  N   UNL     1       2.255   2.768  18.864  0.00  0.00    +0.000 N 
ATOM     18  N   UNL     1       1.031   2.237  19.047  0.00  0.00    +0.000 NA
ATOM     19  C   UNL     1       0.447   3.104  19.886  0.00  0.00    +0.000 A 
ATOM     20  C   UNL     1       1.288   4.191  20.213  0.00  0.00    +0.000 A 
ATOM     21  C   UNL     1       2.454   3.930  19.531  0.00  0.00    +0.000 A 
ATOM     22  C   UNL     1       3.714   4.595  19.419  0.00  0.00    +0.000 A 
ATOM     23  O   UNL     1       3.921   5.703  19.903  0.00  0.00    +0.000 OA
ENDBRANCH  13  14
ENDBRANCH   2  13
TORSDOF 3
ENDMDL
MODEL 4
REMARK VINA RESULT:      -7.4      1.636      1.929
REMARK  Name = 
REMARK  3 active torsions:
REMARK  status: ('A' for Active; 'I' for Inactive)
REMARK    1  A    between atoms: C_2  and  C_3
REMARK    2  A    between atoms: C_3  and  N_4
REMARK    3  A    between atoms: N_14  and  C_15
REMARK                            x       y       z     vdW  Elec       q    Type
REMARK                         _______ _______ _______ _____ _____    ______ ____
ROOT
ATOM      1  O   UNL     1       5.018   6.492  16.204  0.00  0.00    +0.000 OA
ATOM      2  C   UNL     1       5.616   5.610  16.821  0.00  0.00    +0.000 C 
ATOM      3  N   UNL     1       6.344   4.598  16.224  0.00  0.00    +0.000 N 
ATOM      4  H   UNL     1       6.447   3.764  16.802  0.00  0.00    +0.000 HD
ENDROOT
BRANCH   3   5
ATOM      5  C   UNL     1       6.548   4.500  14.833  0.00  0.00    +0.000 A 
ATOM      6  C   UNL     1       5.886   3.545  14.051  0.00  0.00    +0.000 A 
ATOM      7  C   UNL     1       6.123   3.475  12.676  0.00  0.00    +0.000 A 
ATOM      8 CL   UNL     1       5.274   2.327  11.717  0.00  0.00    +0.000 Cl
ATOM      9  C   UNL     1       7.041   4.331  12.075  0.00  0.00    +0.000 A 
ATOM     10  C   UNL     1       7.694   5.282  12.857  0.00  0.00    +0.000 A 
ATOM     11 CL   UNL     1       8.865   6.316  12.134  0.00  0.00    +0.000 Cl
ATOM     12  C   UNL     1       7.433   5.395  14.224  0.00  0.00    +0.000 A 
ENDBRANCH   3   5
BRANCH   2  13
ATOM     13  C   UNL     1       5.634   5.631  18.350  0.00  0.00    +0.000 C 
BRANCH  13  14
ATOM     14  N   UNL     1       4.761   4.739  19.112  0.00  0.00    +0.000 N 
ATOM     15  N   UNL     1       5.157   3.399  19.283  0.00  0.00    +0.000 NA
ATOM     16  C   UNL     1       4.321   2.582  19.864  0.00  0.00    +0.000 A 
ATOM     17  N   UNL     1       3.086   3.024  20.301  0.00  0.00    +0.000 N 
ATOM     18  N   UNL     1       2.223   2.237  20.971  0.00  0.00    +0.000 NA
ATOM     19  C   UNL     1       1.200   3.063  21.232  0.00  0.00    +0.000 A 
ATOM     20  C   UNL     1       1.402   4.359  20.709  0.00  0.00    +0.000 A 
ATOM     21  C   UNL     1       2.642   4.291  20.116  0.00  0.00    +0.000 A 
ATOM     22  C   UNL     1       3.466   5.226  19.418  0.00  0.00    +0.000 A 
ATOM     23  O   UNL     1       3.079   6.352  19.117  0.00  0.00    +0.000 OA
ENDBRANCH  13  14
ENDBRANCH   2  13
TORSDOF 3
ENDMDL
MODEL 5
REMARK VINA RESULT:      -7.4      4.803      7.806
REMARK  Name = 
REMARK  3 active torsions:
REMARK  status: ('A' for Active; 'I' for Inactive)
REMARK    1  A    between atoms: C_2  and  C_3
REMARK    2  A    between atoms: C_3  and  N_4
REMARK    3  A    between atoms: N_14  and  C_15
REMARK                            x       y       z     vdW  Elec       q    Type
REMARK                         _______ _______ _______ _____ _____    ______ ____
ROOT
ATOM      1  O   UNL     1       1.572   5.154  19.350  0.00  0.00    +0.000 OA
ATOM      2  C   UNL     1       2.701   5.615  19.519  0.00  0.00    +0.000 C 
ATOM      3  N   UNL     1       2.964   6.933  19.846  0.00  0.00    +0.000 N 
ATOM      4  H   UNL     1       3.896   7.249  19.580  0.00  0.00    +0.000 HD
ENDROOT
BRANCH   3   5
ATOM      5  C   UNL     1       1.959   7.888  20.098  0.00  0.00    +0.000 A 
ATOM      6  C   UNL     1       1.446   8.106  21.383  0.00  0.00    +0.000 A 
ATOM      7  C   UNL     1       0.444   9.056  21.589  0.00  0.00    +0.000 A 
ATOM      8 CL   UNL     1      -0.151   9.346  23.176  0.00  0.00    +0.000 Cl
ATOM      9  C   UNL     1      -0.077   9.775  20.516  0.00  0.00    +0.000 A 
ATOM     10  C   UNL     1       0.439   9.558  19.240  0.00  0.00    +0.000 A 
ATOM     11 CL   UNL     1      -0.228  10.406  17.900  0.00  0.00    +0.000 Cl
ATOM     12  C   UNL     1       1.474   8.644  19.026  0.00  0.00    +0.000 A 
ENDBRANCH   3   5
BRANCH   2  13
ATOM     13  C   UNL     1       3.919   4.695  19.432  0.00  0.00    +0.000 C 
BRANCH  13  14
ATOM     14  N   UNL     1       4.904   4.872  18.366  0.00  0.00    +0.000 N 
ATOM     15  N   UNL     1       5.972   5.763  18.582  0.00  0.00    +0.000 NA
ATOM     16  C   UNL     1       6.782   6.003  17.587  0.00  0.00    +0.000 A 
ATOM     17  N   UNL     1       6.596   5.394  16.359  0.00  0.00    +0.000 N 
ATOM     18  N   UNL     1       7.448   5.552  15.328  0.00  0.00    +0.000 NA
ATOM     19  C   UNL     1       6.921   4.769  14.377  0.00  0.00    +0.000 A 
ATOM     20  C   UNL     1       5.728   4.137  14.794  0.00  0.00    +0.000 A 
ATOM     21  C   UNL     1       5.557   4.567  16.090  0.00  0.00    +0.000 A 
ATOM     22  C   UNL     1       4.581   4.316  17.103  0.00  0.00    +0.000 A 
ATOM     23  O   UNL     1       3.558   3.672  16.890  0.00  0.00    +0.000 OA
ENDBRANCH  13  14
ENDBRANCH   2  13
TORSDOF 3
ENDMDL
MODEL 6
REMARK VINA RESULT:      -7.2      5.056      7.964
REMARK  Name = 
REMARK  3 active torsions:
REMARK  status: ('A' for Active; 'I' for Inactive)
REMARK    1  A    between atoms: C_2  and  C_3
REMARK    2  A    between atoms: C_3  and  N_4
REMARK    3  A    between atoms: N_14  and  C_15
REMARK                            x       y       z     vdW  Elec       q    Type
REMARK                         _______ _______ _______ _____ _____    ______ ____
ROOT
ATOM      1  O   UNL     1       1.058   5.312  20.547  0.00  0.00    +0.000 OA
ATOM      2  C   UNL     1       2.184   5.734  20.282  0.00  0.00    +0.000 C 
ATOM      3  N   UNL     1       2.506   7.073  20.163  0.00  0.00    +0.000 N 
ATOM      4  H   UNL     1       3.328   7.252  19.586  0.00  0.00    +0.000 HD
ENDROOT
BRANCH   3   5
ATOM      5  C   UNL     1       1.593   8.119  20.404  0.00  0.00    +0.000 A 
ATOM      6  C   UNL     1       1.104   8.397  21.687  0.00  0.00    +0.000 A 
ATOM      7  C   UNL     1       0.194   9.437  21.882  0.00  0.00    +0.000 A 
ATOM      8 CL   UNL     1      -0.369   9.799  23.467  0.00  0.00    +0.000 Cl
ATOM      9  C   UNL     1      -0.262  10.187  20.801  0.00  0.00    +0.000 A 
ATOM     10  C   UNL     1       0.230   9.909  19.528  0.00  0.00    +0.000 A 
ATOM     11 CL   UNL     1      -0.360  10.799  18.177  0.00  0.00    +0.000 Cl
ATOM     12  C   UNL     1       1.177   8.903  19.324  0.00  0.00    +0.000 A 
ENDBRANCH   3   5
BRANCH   2  13
ATOM     13  C   UNL     1       3.346   4.752  20.128  0.00  0.00    +0.000 C 
BRANCH  13  14
ATOM     14  N   UNL     1       3.998   4.577  18.831  0.00  0.00    +0.000 N 
ATOM     15  N   UNL     1       3.300   3.897  17.816  0.00  0.00    +0.000 NA
ATOM     16  C   UNL     1       3.930   3.644  16.701  0.00  0.00    +0.000 A 
ATOM     17  N   UNL     1       5.244   4.037  16.525  0.00  0.00    +0.000 N 
ATOM     18  N   UNL     1       5.909   3.865  15.367  0.00  0.00    +0.000 NA
ATOM     19  C   UNL     1       7.104   4.417  15.620  0.00  0.00    +0.000 A 
ATOM     20  C   UNL     1       7.204   4.914  16.938  0.00  0.00    +0.000 A 
ATOM     21  C   UNL     1       5.971   4.651  17.489  0.00  0.00    +0.000 A 
ATOM     22  C   UNL     1       5.378   4.893  18.767  0.00  0.00    +0.000 A 
ATOM     23  O   UNL     1       6.015   5.338  19.717  0.00  0.00    +0.000 OA
ENDBRANCH  13  14
ENDBRANCH   2  13
TORSDOF 3
ENDMDL
MODEL 7
REMARK VINA RESULT:      -7.2      1.546      2.662
REMARK  Name = 
REMARK  3 active torsions:
REMARK  status: ('A' for Active; 'I' for Inactive)
REMARK    1  A    between atoms: C_2  and  C_3
REMARK    2  A    between atoms: C_3  and  N_4
REMARK    3  A    between atoms: N_14  and  C_15
REMARK                            x       y       z     vdW  Elec       q    Type
REMARK                         _______ _______ _______ _____ _____    ______ ____
ROOT
ATOM      1  O   UNL     1       5.765   6.715  16.776  0.00  0.00    +0.000 OA
ATOM      2  C   UNL     1       5.953   5.608  17.282  0.00  0.00    +0.000 C 
ATOM      3  N   UNL     1       6.316   4.478  16.572  0.00  0.00    +0.000 N 
ATOM      4  H   UNL     1       6.065   3.602  17.030  0.00  0.00    +0.000 HD
ENDROOT
BRANCH   3   5
ATOM      5  C   UNL     1       6.584   4.480  15.189  0.00  0.00    +0.000 A 
ATOM      6  C   UNL     1       7.619   5.244  14.633  0.00  0.00    +0.000 A 
ATOM      7  C   UNL     1       7.846   5.224  13.256  0.00  0.00    +0.000 A 
ATOM      8 CL   UNL     1       9.144   6.132  12.587  0.00  0.00    +0.000 Cl
ATOM      9  C   UNL     1       7.028   4.472  12.417  0.00  0.00    +0.000 A 
ATOM     10  C   UNL     1       6.002   3.711  12.974  0.00  0.00    +0.000 A 
ATOM     11 CL   UNL     1       4.956   2.813  11.944  0.00  0.00    +0.000 Cl
ATOM     12  C   UNL     1       5.793   3.683  14.355  0.00  0.00    +0.000 A 
ENDBRANCH   3   5
BRANCH   2  13
ATOM     13  C   UNL     1       5.853   5.439  18.798  0.00  0.00    +0.000 C 
BRANCH  13  14
ATOM     14  N   UNL     1       4.828   4.572  19.378  0.00  0.00    +0.000 N 
ATOM     15  N   UNL     1       5.089   3.193  19.469  0.00  0.00    +0.000 NA
ATOM     16  C   UNL     1       4.127   2.411  19.881  0.00  0.00    +0.000 A 
ATOM     17  N   UNL     1       2.891   2.929  20.221  0.00  0.00    +0.000 N 
ATOM     18  N   UNL     1       1.895   2.173  20.721  0.00  0.00    +0.000 NA
ATOM     19  C   UNL     1       0.920   3.066  20.945  0.00  0.00    +0.000 A 
ATOM     20  C   UNL     1       1.288   4.376  20.565  0.00  0.00    +0.000 A 
ATOM     21  C   UNL     1       2.577   4.242  20.105  0.00  0.00    +0.000 A 
ATOM     22  C   UNL     1       3.550   5.151  19.586  0.00  0.00    +0.000 A 
ATOM     23  O   UNL     1       3.295   6.327  19.348  0.00  0.00    +0.000 OA
ENDBRANCH  13  14
ENDBRANCH   2  13
TORSDOF 3
ENDMDL
MODEL 8
REMARK VINA RESULT:      -7.2      5.030      7.947
REMARK  Name = 
REMARK  3 active torsions:
REMARK  status: ('A' for Active; 'I' for Inactive)
REMARK    1  A    between atoms: C_2  and  C_3
REMARK    2  A    between atoms: C_3  and  N_4
REMARK    3  A    between atoms: N_14  and  C_15
REMARK                            x       y       z     vdW  Elec       q    Type
REMARK                         _______ _______ _______ _____ _____    ______ ____
ROOT
ATOM      1  O   UNL     1       1.116   5.277  20.647  0.00  0.00    +0.000 OA
ATOM      2  C   UNL     1       2.220   5.692  20.295  0.00  0.00    +0.000 C 
ATOM      3  N   UNL     1       2.521   7.026  20.088  0.00  0.00    +0.000 N 
ATOM      4  H   UNL     1       3.306   7.181  19.455  0.00  0.00    +0.000 HD
ENDROOT
BRANCH   3   5
ATOM      5  C   UNL     1       1.614   8.076  20.329  0.00  0.00    +0.000 A 
ATOM      6  C   UNL     1       1.155   8.912  19.302  0.00  0.00    +0.000 A 
ATOM      7  C   UNL     1       0.262   9.948  19.584  0.00  0.00    +0.000 A 
ATOM      8 CL   UNL     1      -0.329  10.942  18.311  0.00  0.00    +0.000 Cl
ATOM      9  C   UNL     1      -0.156  10.182  20.891  0.00  0.00    +0.000 A 
ATOM     10  C   UNL     1       0.300   9.346  21.909  0.00  0.00    +0.000 A 
ATOM     11 CL   UNL     1      -0.173   9.652  23.535  0.00  0.00    +0.000 Cl
ATOM     12  C   UNL     1       1.156   8.277  21.635  0.00  0.00    +0.000 A 
ENDBRANCH   3   5
BRANCH   2  13
ATOM     13  C   UNL     1       3.381   4.713  20.123  0.00  0.00    +0.000 C 
BRANCH  13  14
ATOM     14  N   UNL     1       4.037   4.565  18.824  0.00  0.00    +0.000 N 
ATOM     15  N   UNL     1       3.303   4.003  17.763  0.00  0.00    +0.000 NA
ATOM     16  C   UNL     1       3.928   3.768  16.641  0.00  0.00    +0.000 A 
ATOM     17  N   UNL     1       5.271   4.068  16.502  0.00  0.00    +0.000 N 
ATOM     18  N   UNL     1       5.938   3.914  15.342  0.00  0.00    +0.000 NA
ATOM     19  C   UNL     1       7.169   4.355  15.640  0.00  0.00    +0.000 A 
ATOM     20  C   UNL     1       7.287   4.763  16.987  0.00  0.00    +0.000 A 
ATOM     21  C   UNL     1       6.029   4.565  17.509  0.00  0.00    +0.000 A 
ATOM     22  C   UNL     1       5.438   4.775  18.793  0.00  0.00    +0.000 A 
ATOM     23  O   UNL     1       6.093   5.113  19.775  0.00  0.00    +0.000 OA
ENDBRANCH  13  14
ENDBRANCH   2  13
TORSDOF 3
ENDMDL
MODEL 9
REMARK VINA RESULT:      -7.1      4.356      7.322
REMARK  Name = 
REMARK  3 active torsions:
REMARK  status: ('A' for Active; 'I' for Inactive)
REMARK    1  A    between atoms: C_2  and  C_3
REMARK    2  A    between atoms: C_3  and  N_4
REMARK    3  A    between atoms: N_14  and  C_15
REMARK                            x       y       z     vdW  Elec       q    Type
REMARK                         _______ _______ _______ _____ _____    ______ ____
ROOT
ATOM      1  O   UNL     1       2.388   4.857  21.264  0.00  0.00    +0.000 OA
ATOM      2  C   UNL     1       2.876   4.901  20.134  0.00  0.00    +0.000 C 
ATOM      3  N   UNL     1       2.756   5.977  19.274  0.00  0.00    +0.000 N 
ATOM      4  H   UNL     1       2.862   5.736  18.289  0.00  0.00    +0.000 HD
ENDROOT
BRANCH   3   5
ATOM      5  C   UNL     1       2.120   7.185  19.622  0.00  0.00    +0.000 A 
ATOM      6  C   UNL     1       1.401   7.330  20.816  0.00  0.00    +0.000 A 
ATOM      7  C   UNL     1       0.777   8.542  21.119  0.00  0.00    +0.000 A 
ATOM      8 CL   UNL     1      -0.068   8.724  22.606  0.00  0.00    +0.000 Cl
ATOM      9  C   UNL     1       0.835   9.607  20.225  0.00  0.00    +0.000 A 
ATOM     10  C   UNL     1       1.554   9.460  19.040  0.00  0.00    +0.000 A 
ATOM     11 CL   UNL     1       1.595  10.754  17.906  0.00  0.00    +0.000 Cl
ATOM     12  C   UNL     1       2.223   8.270  18.745  0.00  0.00    +0.000 A 
ENDBRANCH   3   5
BRANCH   2  13
ATOM     13  C   UNL     1       3.730   3.738  19.630  0.00  0.00    +0.000 C 
BRANCH  13  14
ATOM     14  N   UNL     1       4.768   3.964  18.626  0.00  0.00    +0.000 N 
ATOM     15  N   UNL     1       6.017   4.453  19.050  0.00  0.00    +0.000 NA
ATOM     16  C   UNL     1       6.899   4.761  18.138  0.00  0.00    +0.000 A 
ATOM     17  N   UNL     1       6.611   4.606  16.795  0.00  0.00    +0.000 N 
ATOM     18  N   UNL     1       7.514   4.839  15.822  0.00  0.00    +0.000 NA
ATOM     19  C   UNL     1       6.842   4.528  14.705  0.00  0.00    +0.000 A 
ATOM     20  C   UNL     1       5.514   4.124  14.966  0.00  0.00    +0.000 A 
ATOM     21  C   UNL     1       5.408   4.185  16.336  0.00  0.00    +0.000 A 
ATOM     22  C   UNL     1       4.363   3.903  17.269  0.00  0.00    +0.000 A 
ATOM     23  O   UNL     1       3.219   3.629  16.917  0.00  0.00    +0.000 OA
ENDBRANCH  13  14
ENDBRANCH   2  13
TORSDOF 3
ENDMDL
