MODEL 1
REMARK VINA RESULT:      -7.3      0.000      0.000
REMARK  Name = 
REMARK  15 active torsions:
REMARK  status: ('A' for Active; 'I' for Inactive)
REMARK    1  A    between atoms: C_1  and  O_2
REMARK    2  A    between atoms: O_2  and  C_3
REMARK    3  A    between atoms: C_6  and  C_7
REMARK    4  A    between atoms: C_7  and  N_8
REMARK    5  A    between atoms: N_8  and  C_9
REMARK    6  A    between atoms: C_9  and  C_10
REMARK    7  A    between atoms: C_10  and  C_11
REMARK    8  A    between atoms: C_11  and  C_12
REMARK    9  A    between atoms: C_11  and  C_17
REMARK   10  A    between atoms: C_12  and  C_13
REMARK   11  A    between atoms: C_13  and  C_14
REMARK   12  A    between atoms: C_14  and  C_15
REMARK   13  A    between atoms: C_14  and  C_16
REMARK   14  A    between atoms: C_21  and  C_22
REMARK   15  A    between atoms: C_21  and  C_23
REMARK                            x       y       z     vdW  Elec       q    Type
REMARK                         _______ _______ _______ _____ _____    ______ ____
ROOT
ATOM      1  C   UNL     1       3.379   6.385  17.915  0.00  0.00    +0.000 C 
ENDROOT
BRANCH   1   2
ATOM      2  C   UNL     1       3.530   5.844  19.378  0.00  0.00    +0.000 C 
ATOM      3  C   UNL     1       2.186   5.649  20.114  0.00  0.00    +0.000 C 
ATOM      4  C   UNL     1       1.488   4.359  19.712  0.00  0.00    +0.000 C 
ATOM      5  O   UNL     1       2.307   3.234  20.010  0.00  0.00    +0.000 OA
ATOM      6  C   UNL     1       3.571   3.213  19.334  0.00  0.00    +0.000 C 
ATOM      7  C   UNL     1       4.386   2.095  20.011  0.00  0.00    +0.000 C 
ATOM      8  C   UNL     1       3.378   2.820  17.862  0.00  0.00    +0.000 C 
ATOM      9  C   UNL     1       4.340   4.541  19.535  0.00  0.00    +0.000 C 
ENDBRANCH   1   2
BRANCH   1  10
ATOM     10  C   UNL     1       2.177   7.377  17.827  0.00  0.00    +0.000 C 
BRANCH  10  11
ATOM     11  C   UNL     1       2.498   8.868  17.988  0.00  0.00    +0.000 C 
BRANCH  11  12
ATOM     12  N   UNL     1       1.409   9.718  17.509  0.00  0.00    +0.000 NA
ATOM     13  H   UNL     1       1.775  10.463  16.918  0.00  0.00    +0.000 HD
BRANCH  12  14
ATOM     14  C   UNL     1       0.708  10.333  18.636  0.00  0.00    +0.000 C 
BRANCH  14  18
ATOM     15  C   UNL     1      -3.498  10.937  17.823  0.00  0.00    +0.000 A 
ATOM     16  C   UNL     1      -2.750  10.043  17.053  0.00  0.00    +0.000 A 
ATOM     17  C   UNL     1      -1.389   9.855  17.302  0.00  0.00    +0.000 A 
ATOM     18  C   UNL     1      -0.748  10.575  18.323  0.00  0.00    +0.000 A 
ATOM     19  C   UNL     1      -1.497  11.502  19.062  0.00  0.00    +0.000 A 
ATOM     20  C   UNL     1      -2.862  11.683  18.814  0.00  0.00    +0.000 A 
BRANCH  15  22
ATOM     21  C   UNL     1      -5.709  11.216  18.603  0.00  0.00    +0.000 C 
ATOM     22  O   UNL     1      -4.826  11.020  17.504  0.00  0.00    +0.000 OA
ENDBRANCH  15  22
ENDBRANCH  14  18
ENDBRANCH  12  14
ENDBRANCH  11  12
ENDBRANCH  10  11
ENDBRANCH   1  10
BRANCH   1  23
ATOM     23  C   UNL     1       4.673   7.000  17.312  0.00  0.00    +0.000 C 
BRANCH  23  24
ATOM     24  C   UNL     1       5.480   6.123  16.338  0.00  0.00    +0.000 C 
BRANCH  24  25
ATOM     25  C   UNL     1       6.981   6.029  16.718  0.00  0.00    +0.000 C 
ATOM     26  C   UNL     1       7.410   7.130  17.690  0.00  0.00    +0.000 C 
ATOM     27  C   UNL     1       7.310   4.661  17.322  0.00  0.00    +0.000 C 
ENDBRANCH  24  25
ENDBRANCH  23  24
ENDBRANCH   1  23
TORSDOF 10
ENDMDL
MODEL 2
REMARK VINA RESULT:      -7.1      2.345      2.832
REMARK  Name = 
REMARK  15 active torsions:
REMARK  status: ('A' for Active; 'I' for Inactive)
REMARK    1  A    between atoms: C_1  and  O_2
REMARK    2  A    between atoms: O_2  and  C_3
REMARK    3  A    between atoms: C_6  and  C_7
REMARK    4  A    between atoms: C_7  and  N_8
REMARK    5  A    between atoms: N_8  and  C_9
REMARK    6  A    between atoms: C_9  and  C_10
REMARK    7  A    between atoms: C_10  and  C_11
REMARK    8  A    between atoms: C_11  and  C_12
REMARK    9  A    between atoms: C_11  and  C_17
REMARK   10  A    between atoms: C_12  and  C_13
REMARK   11  A    between atoms: C_13  and  C_14
REMARK   12  A    between atoms: C_14  and  C_15
REMARK   13  A    between atoms: C_14  and  C_16
REMARK   14  A    between atoms: C_21  and  C_22
REMARK   15  A    between atoms: C_21  and  C_23
REMARK                            x       y       z     vdW  Elec       q    Type
REMARK                         _______ _______ _______ _____ _____    ______ ____
ROOT
ATOM      1  C   UNL     1       3.222   6.285  17.958  0.00  0.00    +0.000 C 
ENDROOT
BRANCH   1   2
ATOM      2  C   UNL     1       3.421   5.743  19.415  0.00  0.00    +0.000 C 
ATOM      3  C   UNL     1       2.100   5.445  20.156  0.00  0.00    +0.000 C 
ATOM      4  C   UNL     1       1.493   4.112  19.746  0.00  0.00    +0.000 C 
ATOM      5  O   UNL     1       2.392   3.045  20.027  0.00  0.00    +0.000 OA
ATOM      6  C   UNL     1       3.650   3.122  19.344  0.00  0.00    +0.000 C 
ATOM      7  C   UNL     1       4.547   2.058  20.005  0.00  0.00    +0.000 C 
ATOM      8  C   UNL     1       3.476   2.730  17.869  0.00  0.00    +0.000 C 
ATOM      9  C   UNL     1       4.324   4.499  19.553  0.00  0.00    +0.000 C 
ENDBRANCH   1   2
BRANCH   1  10
ATOM     10  C   UNL     1       2.035   7.299  17.916  0.00  0.00    +0.000 C 
BRANCH  10  11
ATOM     11  C   UNL     1       2.398   8.788  17.886  0.00  0.00    +0.000 C 
BRANCH  11  12
ATOM     12  N   UNL     1       1.480   9.593  18.691  0.00  0.00    +0.000 NA
ATOM     13  H   UNL     1       1.887  10.507  18.885  0.00  0.00    +0.000 HD
BRANCH  12  14
ATOM     14  C   UNL     1       1.209   8.934  19.968  0.00  0.00    +0.000 C 
BRANCH  14  18
ATOM     15  C   UNL     1      -1.249  11.370  22.563  0.00  0.00    +0.000 A 
ATOM     16  C   UNL     1      -1.031  11.748  21.236  0.00  0.00    +0.000 A 
ATOM     17  C   UNL     1      -0.227  10.972  20.399  0.00  0.00    +0.000 A 
ATOM     18  C   UNL     1       0.388   9.807  20.884  0.00  0.00    +0.000 A 
ATOM     19  C   UNL     1       0.198   9.459  22.229  0.00  0.00    +0.000 A 
ATOM     20  C   UNL     1      -0.614  10.235  23.064  0.00  0.00    +0.000 A 
BRANCH  15  22
ATOM     21  C   UNL     1      -1.587  13.513  23.495  0.00  0.00    +0.000 C 
ATOM     22  O   UNL     1      -2.074  12.193  23.281  0.00  0.00    +0.000 OA
ENDBRANCH  15  22
ENDBRANCH  14  18
ENDBRANCH  12  14
ENDBRANCH  11  12
ENDBRANCH  10  11
ENDBRANCH   1  10
BRANCH   1  23
ATOM     23  C   UNL     1       4.502   6.878  17.305  0.00  0.00    +0.000 C 
BRANCH  23  24
ATOM     24  C   UNL     1       5.272   5.975  16.324  0.00  0.00    +0.000 C 
BRANCH  24  25
ATOM     25  C   UNL     1       6.797   5.949  16.604  0.00  0.00    +0.000 C 
ATOM     26  C   UNL     1       7.248   7.097  17.508  0.00  0.00    +0.000 C 
ATOM     27  C   UNL     1       7.217   4.615  17.229  0.00  0.00    +0.000 C 
ENDBRANCH  24  25
ENDBRANCH  23  24
ENDBRANCH   1  23
TORSDOF 10
ENDMDL
MODEL 3
REMARK VINA RESULT:      -7.1      1.199      2.227
REMARK  Name = 
REMARK  15 active torsions:
REMARK  status: ('A' for Active; 'I' for Inactive)
REMARK    1  A    between atoms: C_1  and  O_2
REMARK    2  A    between atoms: O_2  and  C_3
REMARK    3  A    between atoms: C_6  and  C_7
REMARK    4  A    between atoms: C_7  and  N_8
REMARK    5  A    between atoms: N_8  and  C_9
REMARK    6  A    between atoms: C_9  and  C_10
REMARK    7  A    between atoms: C_10  and  C_11
REMARK    8  A    between atoms: C_11  and  C_12
REMARK    9  A    between atoms: C_11  and  C_17
REMARK   10  A    between atoms: C_12  and  C_13
REMARK   11  A    between atoms: C_13  and  C_14
REMARK   12  A    between atoms: C_14  and  C_15
REMARK   13  A    between atoms: C_14  and  C_16
REMARK   14  A    between atoms: C_21  and  C_22
REMARK   15  A    between atoms: C_21  and  C_23
REMARK                            x       y       z     vdW  Elec       q    Type
REMARK                         _______ _______ _______ _____ _____    ______ ____
ROOT
ATOM      1  C   UNL     1       3.890   5.799  18.162  0.00  0.00    +0.000 C 
ENDROOT
BRANCH   1   2
ATOM      2  C   UNL     1       3.227   4.607  17.389  0.00  0.00    +0.000 C 
ATOM      3  C   UNL     1       4.088   3.325  17.361  0.00  0.00    +0.000 C 
ATOM      4  C   UNL     1       3.993   2.534  18.656  0.00  0.00    +0.000 C 
ATOM      5  O   UNL     1       2.647   2.142  18.903  0.00  0.00    +0.000 OA
ATOM      6  C   UNL     1       1.720   3.225  19.045  0.00  0.00    +0.000 C 
ATOM      7  C   UNL     1       0.321   2.581  19.013  0.00  0.00    +0.000 C 
ATOM      8  C   UNL     1       1.891   3.893  20.417  0.00  0.00    +0.000 C 
ATOM      9  C   UNL     1       1.811   4.207  17.853  0.00  0.00    +0.000 C 
ENDBRANCH   1   2
BRANCH   1  10
ATOM     10  C   UNL     1       2.808   6.847  18.571  0.00  0.00    +0.000 C 
BRANCH  10  11
ATOM     11  C   UNL     1       2.863   8.208  17.868  0.00  0.00    +0.000 C 
BRANCH  11  12
ATOM     12  N   UNL     1       1.529   8.766  17.647  0.00  0.00    +0.000 NA
ATOM     13  H   UNL     1       1.505   9.293  16.775  0.00  0.00    +0.000 HD
BRANCH  12  14
ATOM     14  C   UNL     1       1.167   9.671  18.738  0.00  0.00    +0.000 C 
BRANCH  14  18
ATOM     15  C   UNL     1      -2.821  11.265  18.223  0.00  0.00    +0.000 A 
ATOM     16  C   UNL     1      -2.026  11.681  19.293  0.00  0.00    +0.000 A 
ATOM     17  C   UNL     1      -0.743  11.159  19.471  0.00  0.00    +0.000 A 
ATOM     18  C   UNL     1      -0.239  10.194  18.585  0.00  0.00    +0.000 A 
ATOM     19  C   UNL     1      -1.061   9.751  17.539  0.00  0.00    +0.000 A 
ATOM     20  C   UNL     1      -2.343  10.281  17.358  0.00  0.00    +0.000 A 
BRANCH  15  22
ATOM     21  C   UNL     1      -4.816  11.519  16.985  0.00  0.00    +0.000 C 
ATOM     22  O   UNL     1      -4.048  11.863  18.134  0.00  0.00    +0.000 OA
ENDBRANCH  15  22
ENDBRANCH  14  18
ENDBRANCH  12  14
ENDBRANCH  11  12
ENDBRANCH  10  11
ENDBRANCH   1  10
BRANCH   1  23
ATOM     23  C   UNL     1       4.765   5.378  19.377  0.00  0.00    +0.000 C 
BRANCH  23  24
ATOM     24  C   UNL     1       6.291   5.506  19.219  0.00  0.00    +0.000 C 
BRANCH  24  25
ATOM     25  C   UNL     1       6.716   5.849  17.767  0.00  0.00    +0.000 C 
ATOM     26  C   UNL     1       7.588   7.103  17.692  0.00  0.00    +0.000 C 
ATOM     27  C   UNL     1       7.458   4.676  17.121  0.00  0.00    +0.000 C 
ENDBRANCH  24  25
ENDBRANCH  23  24
ENDBRANCH   1  23
TORSDOF 10
ENDMDL
MODEL 4
REMARK VINA RESULT:      -7.0      2.708      3.357
REMARK  Name = 
REMARK  15 active torsions:
REMARK  status: ('A' for Active; 'I' for Inactive)
REMARK    1  A    between atoms: C_1  and  O_2
REMARK    2  A    between atoms: O_2  and  C_3
REMARK    3  A    between atoms: C_6  and  C_7
REMARK    4  A    between atoms: C_7  and  N_8
REMARK    5  A    between atoms: N_8  and  C_9
REMARK    6  A    between atoms: C_9  and  C_10
REMARK    7  A    between atoms: C_10  and  C_11
REMARK    8  A    between atoms: C_11  and  C_12
REMARK    9  A    between atoms: C_11  and  C_17
REMARK   10  A    between atoms: C_12  and  C_13
REMARK   11  A    between atoms: C_13  and  C_14
REMARK   12  A    between atoms: C_14  and  C_15
REMARK   13  A    between atoms: C_14  and  C_16
REMARK   14  A    between atoms: C_21  and  C_22
REMARK   15  A    between atoms: C_21  and  C_23
REMARK                            x       y       z     vdW  Elec       q    Type
REMARK                         _______ _______ _______ _____ _____    ______ ____
ROOT
ATOM      1  C   UNL     1       3.918   5.680  18.117  0.00  0.00    +0.000 C 
ENDROOT
BRANCH   1   2
ATOM      2  C   UNL     1       3.321   4.424  17.394  0.00  0.00    +0.000 C 
ATOM      3  C   UNL     1       4.185   3.152  17.536  0.00  0.00    +0.000 C 
ATOM      4  C   UNL     1       3.990   2.467  18.879  0.00  0.00    +0.000 C 
ATOM      5  O   UNL     1       2.630   2.083  19.052  0.00  0.00    +0.000 OA
ATOM      6  C   UNL     1       1.692   3.166  19.033  0.00  0.00    +0.000 C 
ATOM      7  C   UNL     1       0.301   2.509  18.945  0.00  0.00    +0.000 C 
ATOM      8  C   UNL     1       1.754   3.943  20.356  0.00  0.00    +0.000 C 
ATOM      9  C   UNL     1       1.874   4.050  17.776  0.00  0.00    +0.000 C 
ENDBRANCH   1   2
BRANCH   1  10
ATOM     10  C   UNL     1       2.781   6.685  18.482  0.00  0.00    +0.000 C 
BRANCH  10  11
ATOM     11  C   UNL     1       2.851   8.073  17.835  0.00  0.00    +0.000 C 
BRANCH  11  12
ATOM     12  N   UNL     1       1.538   8.714  17.768  0.00  0.00    +0.000 NA
ATOM     13  H   UNL     1       1.160   8.651  16.823  0.00  0.00    +0.000 HD
BRANCH  12  14
ATOM     14  C   UNL     1       1.642  10.129  18.124  0.00  0.00    +0.000 C 
BRANCH  14  18
ATOM     15  C   UNL     1      -0.135  10.940  21.984  0.00  0.00    +0.000 A 
ATOM     16  C   UNL     1       0.464  11.967  21.251  0.00  0.00    +0.000 A 
ATOM     17  C   UNL     1       1.051  11.708  20.011  0.00  0.00    +0.000 A 
ATOM     18  C   UNL     1       1.062  10.405  19.489  0.00  0.00    +0.000 A 
ATOM     19  C   UNL     1       0.497   9.372  20.251  0.00  0.00    +0.000 A 
ATOM     20  C   UNL     1      -0.097   9.637  21.491  0.00  0.00    +0.000 A 
BRANCH  15  22
ATOM     21  C   UNL     1      -2.050  11.762  23.096  0.00  0.00    +0.000 C 
ATOM     22  O   UNL     1      -0.700  11.316  23.172  0.00  0.00    +0.000 OA
ENDBRANCH  15  22
ENDBRANCH  14  18
ENDBRANCH  12  14
ENDBRANCH  11  12
ENDBRANCH  10  11
ENDBRANCH   1  10
BRANCH   1  23
ATOM     23  C   UNL     1       4.811   5.356  19.348  0.00  0.00    +0.000 C 
BRANCH  23  24
ATOM     24  C   UNL     1       6.327   5.569  19.190  0.00  0.00    +0.000 C 
BRANCH  24  25
ATOM     25  C   UNL     1       6.739   5.876  17.726  0.00  0.00    +0.000 C 
ATOM     26  C   UNL     1       7.583   7.146  17.608  0.00  0.00    +0.000 C 
ATOM     27  C   UNL     1       7.502   4.699  17.113  0.00  0.00    +0.000 C 
ENDBRANCH  24  25
ENDBRANCH  23  24
ENDBRANCH   1  23
TORSDOF 10
ENDMDL
MODEL 5
REMARK VINA RESULT:      -6.9      2.640      3.055
REMARK  Name = 
REMARK  15 active torsions:
REMARK  status: ('A' for Active; 'I' for Inactive)
REMARK    1  A    between atoms: C_1  and  O_2
REMARK    2  A    between atoms: O_2  and  C_3
REMARK    3  A    between atoms: C_6  and  C_7
REMARK    4  A    between atoms: C_7  and  N_8
REMARK    5  A    between atoms: N_8  and  C_9
REMARK    6  A    between atoms: C_9  and  C_10
REMARK    7  A    between atoms: C_10  and  C_11
REMARK    8  A    between atoms: C_11  and  C_12
REMARK    9  A    between atoms: C_11  and  C_17
REMARK   10  A    between atoms: C_12  and  C_13
REMARK   11  A    between atoms: C_13  and  C_14
REMARK   12  A    between atoms: C_14  and  C_15
REMARK   13  A    between atoms: C_14  and  C_16
REMARK   14  A    between atoms: C_21  and  C_22
REMARK   15  A    between atoms: C_21  and  C_23
REMARK                            x       y       z     vdW  Elec       q    Type
REMARK                         _______ _______ _______ _____ _____    ______ ____
ROOT
ATOM      1  C   UNL     1       3.431   6.071  18.488  0.00  0.00    +0.000 C 
ENDROOT
BRANCH   1   2
ATOM      2  C   UNL     1       3.777   4.973  19.551  0.00  0.00    +0.000 C 
ATOM      3  C   UNL     1       2.637   4.698  20.557  0.00  0.00    +0.000 C 
ATOM      4  C   UNL     1       1.560   3.794  19.979  0.00  0.00    +0.000 C 
ATOM      5  O   UNL     1       2.111   2.537  19.601  0.00  0.00    +0.000 OA
ATOM      6  C   UNL     1       3.134   2.606  18.599  0.00  0.00    +0.000 C 
ATOM      7  C   UNL     1       3.772   1.204  18.560  0.00  0.00    +0.000 C 
ATOM      8  C   UNL     1       2.509   2.869  17.221  0.00  0.00    +0.000 C 
ATOM      9  C   UNL     1       4.241   3.614  18.990  0.00  0.00    +0.000 C 
ENDBRANCH   1   2
BRANCH   1  10
ATOM     10  C   UNL     1       2.522   7.171  19.122  0.00  0.00    +0.000 C 
BRANCH  10  11
ATOM     11  C   UNL     1       2.144   8.356  18.226  0.00  0.00    +0.000 C 
BRANCH  11  12
ATOM     12  N   UNL     1       1.391   9.376  18.956  0.00  0.00    +0.000 NA
ATOM     13  H   UNL     1       1.939  10.231  19.038  0.00  0.00    +0.000 HD
BRANCH  12  14
ATOM     14  C   UNL     1       1.070   8.908  20.304  0.00  0.00    +0.000 C 
BRANCH  14  18
ATOM     15  C   UNL     1      -1.145  11.865  22.553  0.00  0.00    +0.000 A 
ATOM     16  C   UNL     1      -0.949  10.583  23.071  0.00  0.00    +0.000 A 
ATOM     17  C   UNL     1      -0.248   9.620  22.343  0.00  0.00    +0.000 A 
ATOM     18  C   UNL     1       0.259   9.923  21.069  0.00  0.00    +0.000 A 
ATOM     19  C   UNL     1       0.021  11.199  20.539  0.00  0.00    +0.000 A 
ATOM     20  C   UNL     1      -0.677  12.164  21.275  0.00  0.00    +0.000 A 
BRANCH  15  22
ATOM     21  C   UNL     1      -3.211  12.454  23.532  0.00  0.00    +0.000 C 
ATOM     22  O   UNL     1      -1.825  12.731  23.365  0.00  0.00    +0.000 OA
ENDBRANCH  15  22
ENDBRANCH  14  18
ENDBRANCH  12  14
ENDBRANCH  11  12
ENDBRANCH  10  11
ENDBRANCH   1  10
BRANCH   1  23
ATOM     23  C   UNL     1       4.663   6.692  17.771  0.00  0.00    +0.000 C 
BRANCH  23  24
ATOM     24  C   UNL     1       4.894   6.293  16.302  0.00  0.00    +0.000 C 
BRANCH  24  25
ATOM     25  C   UNL     1       5.553   4.896  16.158  0.00  0.00    +0.000 C 
ATOM     26  C   UNL     1       5.579   4.407  14.709  0.00  0.00    +0.000 C 
ATOM     27  C   UNL     1       6.977   4.901  16.719  0.00  0.00    +0.000 C 
ENDBRANCH  24  25
ENDBRANCH  23  24
ENDBRANCH   1  23
TORSDOF 10
ENDMDL
MODEL 6
REMARK VINA RESULT:      -6.9      2.090      2.757
REMARK  Name = 
REMARK  15 active torsions:
REMARK  status: ('A' for Active; 'I' for Inactive)
REMARK    1  A    between atoms: C_1  and  O_2
REMARK    2  A    between atoms: O_2  and  C_3
REMARK    3  A    between atoms: C_6  and  C_7
REMARK    4  A    between atoms: C_7  and  N_8
REMARK    5  A    between atoms: N_8  and  C_9
REMARK    6  A    between atoms: C_9  and  C_10
REMARK    7  A    between atoms: C_10  and  C_11
REMARK    8  A    between atoms: C_11  and  C_12
REMARK    9  A    between atoms: C_11  and  C_17
REMARK   10  A    between atoms: C_12  and  C_13
REMARK   11  A    between atoms: C_13  and  C_14
REMARK   12  A    between atoms: C_14  and  C_15
REMARK   13  A    between atoms: C_14  and  C_16
REMARK   14  A    between atoms: C_21  and  C_22
REMARK   15  A    between atoms: C_21  and  C_23
REMARK                            x       y       z     vdW  Elec       q    Type
REMARK                         _______ _______ _______ _____ _____    ______ ____
ROOT
ATOM      1  C   UNL     1       3.473   6.339  18.001  0.00  0.00    +0.000 C 
ENDROOT
BRANCH   1   2
ATOM      2  C   UNL     1       3.641   5.573  19.358  0.00  0.00    +0.000 C 
ATOM      3  C   UNL     1       2.333   5.443  20.168  0.00  0.00    +0.000 C 
ATOM      4  C   UNL     1       1.440   4.326  19.651  0.00  0.00    +0.000 C 
ATOM      5  O   UNL     1       2.114   3.074  19.722  0.00  0.00    +0.000 OA
ATOM      6  C   UNL     1       3.318   2.994  18.948  0.00  0.00    +0.000 C 
ATOM      7  C   UNL     1       4.012   1.693  19.394  0.00  0.00    +0.000 C 
ATOM      8  C   UNL     1       2.980   2.850  17.457  0.00  0.00    +0.000 C 
ATOM      9  C   UNL     1       4.273   4.169  19.265  0.00  0.00    +0.000 C 
ENDBRANCH   1   2
BRANCH   1  10
ATOM     10  C   UNL     1       2.488   7.537  18.175  0.00  0.00    +0.000 C 
BRANCH  10  11
ATOM     11  C   UNL     1       2.923   8.882  17.581  0.00  0.00    +0.000 C 
BRANCH  11  12
ATOM     12  N   UNL     1       1.861   9.885  17.660  0.00  0.00    +0.000 NA
ATOM     13  H   UNL     1       2.138  10.647  18.278  0.00  0.00    +0.000 HD
BRANCH  12  14
ATOM     14  C   UNL     1       0.635   9.290  18.191  0.00  0.00    +0.000 C 
BRANCH  14  18
ATOM     15  C   UNL     1      -0.786  11.208  21.798  0.00  0.00    +0.000 A 
ATOM     16  C   UNL     1      -1.168  11.689  20.544  0.00  0.00    +0.000 A 
ATOM     17  C   UNL     1      -0.700  11.083  19.377  0.00  0.00    +0.000 A 
ATOM     18  C   UNL     1       0.175   9.987  19.447  0.00  0.00    +0.000 A 
ATOM     19  C   UNL     1       0.587   9.538  20.709  0.00  0.00    +0.000 A 
ATOM     20  C   UNL     1       0.111  10.144  21.878  0.00  0.00    +0.000 A 
BRANCH  15  22
ATOM     21  C   UNL     1      -1.027  13.255  22.951  0.00  0.00    +0.000 C 
ATOM     22  O   UNL     1      -1.325  11.866  22.870  0.00  0.00    +0.000 OA
ENDBRANCH  15  22
ENDBRANCH  14  18
ENDBRANCH  12  14
ENDBRANCH  11  12
ENDBRANCH  10  11
ENDBRANCH   1  10
BRANCH   1  23
ATOM     23  C   UNL     1       4.807   6.788  17.339  0.00  0.00    +0.000 C 
BRANCH  23  24
ATOM     24  C   UNL     1       5.093   6.270  15.918  0.00  0.00    +0.000 C 
BRANCH  24  25
ATOM     25  C   UNL     1       5.628   4.813  15.908  0.00  0.00    +0.000 C 
ATOM     26  C   UNL     1       5.785   4.256  14.492  0.00  0.00    +0.000 C 
ATOM     27  C   UNL     1       6.966   4.715  16.645  0.00  0.00    +0.000 C 
ENDBRANCH  24  25
ENDBRANCH  23  24
ENDBRANCH   1  23
TORSDOF 10
ENDMDL
MODEL 7
REMARK VINA RESULT:      -6.9      2.985      4.874
REMARK  Name = 
REMARK  15 active torsions:
REMARK  status: ('A' for Active; 'I' for Inactive)
REMARK    1  A    between atoms: C_1  and  O_2
REMARK    2  A    between atoms: O_2  and  C_3
REMARK    3  A    between atoms: C_6  and  C_7
REMARK    4  A    between atoms: C_7  and  N_8
REMARK    5  A    between atoms: N_8  and  C_9
REMARK    6  A    between atoms: C_9  and  C_10
REMARK    7  A    between atoms: C_10  and  C_11
REMARK    8  A    between atoms: C_11  and  C_12
REMARK    9  A    between atoms: C_11  and  C_17
REMARK   10  A    between atoms: C_12  and  C_13
REMARK   11  A    between atoms: C_13  and  C_14
REMARK   12  A    between atoms: C_14  and  C_15
REMARK   13  A    between atoms: C_14  and  C_16
REMARK   14  A    between atoms: C_21  and  C_22
REMARK   15  A    between atoms: C_21  and  C_23
REMARK                            x       y       z     vdW  Elec       q    Type
REMARK                         _______ _______ _______ _____ _____    ______ ____
ROOT
ATOM      1  C   UNL     1       4.013   5.237  18.050  0.00  0.00    +0.000 C 
ENDROOT
BRANCH   1   2
ATOM      2  C   UNL     1       5.096   6.140  17.367  0.00  0.00    +0.000 C 
ATOM      3  C   UNL     1       6.451   6.158  18.109  0.00  0.00    +0.000 C 
ATOM      4  C   UNL     1       7.292   4.928  17.808  0.00  0.00    +0.000 C 
ATOM      5  O   UNL     1       7.567   4.838  16.414  0.00  0.00    +0.000 OA
ATOM      6  C   UNL     1       6.409   4.725  15.578  0.00  0.00    +0.000 C 
ATOM      7  C   UNL     1       6.914   4.933  14.138  0.00  0.00    +0.000 C 
ATOM      8  C   UNL     1       5.829   3.306  15.665  0.00  0.00    +0.000 C 
ATOM      9  C   UNL     1       5.382   5.843  15.881  0.00  0.00    +0.000 C 
ENDBRANCH   1   2
BRANCH   1  10
ATOM     10  C   UNL     1       2.989   6.117  18.832  0.00  0.00    +0.000 C 
BRANCH  10  11
ATOM     11  C   UNL     1       2.667   5.692  20.270  0.00  0.00    +0.000 C 
BRANCH  11  12
ATOM     12  N   UNL     1       1.922   6.722  20.993  0.00  0.00    +0.000 NA
ATOM     13  H   UNL     1       1.003   6.372  21.262  0.00  0.00    +0.000 HD
BRANCH  12  14
ATOM     14  C   UNL     1       1.732   7.901  20.149  0.00  0.00    +0.000 C 
BRANCH  14  18
ATOM     15  C   UNL     1      -0.763  10.836  22.117  0.00  0.00    +0.000 A 
ATOM     16  C   UNL     1      -0.581  10.876  20.733  0.00  0.00    +0.000 A 
ATOM     17  C   UNL     1       0.234   9.940  20.095  0.00  0.00    +0.000 A 
ATOM     18  C   UNL     1       0.898   8.952  20.839  0.00  0.00    +0.000 A 
ATOM     19  C   UNL     1       0.744   8.946  22.233  0.00  0.00    +0.000 A 
ATOM     20  C   UNL     1      -0.080   9.882  22.869  0.00  0.00    +0.000 A 
BRANCH  15  22
ATOM     21  C   UNL     1      -1.033  13.082  22.796  0.00  0.00    +0.000 C 
ATOM     22  O   UNL     1      -1.603  11.788  22.629  0.00  0.00    +0.000 OA
ENDBRANCH  15  22
ENDBRANCH  14  18
ENDBRANCH  12  14
ENDBRANCH  11  12
ENDBRANCH  10  11
ENDBRANCH   1  10
BRANCH   1  23
ATOM     23  C   UNL     1       3.296   4.244  17.091  0.00  0.00    +0.000 C 
BRANCH  23  24
ATOM     24  C   UNL     1       1.924   3.707  17.535  0.00  0.00    +0.000 C 
BRANCH  24  25
ATOM     25  C   UNL     1       2.011   2.300  18.181  0.00  0.00    +0.000 C 
ATOM     26  C   UNL     1       3.433   1.736  18.170  0.00  0.00    +0.000 C 
ATOM     27  C   UNL     1       1.484   2.322  19.618  0.00  0.00    +0.000 C 
ENDBRANCH  24  25
ENDBRANCH  23  24
ENDBRANCH   1  23
TORSDOF 10
ENDMDL
MODEL 8
REMARK VINA RESULT:      -6.9      1.764      3.816
REMARK  Name = 
REMARK  15 active torsions:
REMARK  status: ('A' for Active; 'I' for Inactive)
REMARK    1  A    between atoms: C_1  and  O_2
REMARK    2  A    between atoms: O_2  and  C_3
REMARK    3  A    between atoms: C_6  and  C_7
REMARK    4  A    between atoms: C_7  and  N_8
REMARK    5  A    between atoms: N_8  and  C_9
REMARK    6  A    between atoms: C_9  and  C_10
REMARK    7  A    between atoms: C_10  and  C_11
REMARK    8  A    between atoms: C_11  and  C_12
REMARK    9  A    between atoms: C_11  and  C_17
REMARK   10  A    between atoms: C_12  and  C_13
REMARK   11  A    between atoms: C_13  and  C_14
REMARK   12  A    between atoms: C_14  and  C_15
REMARK   13  A    between atoms: C_14  and  C_16
REMARK   14  A    between atoms: C_21  and  C_22
REMARK   15  A    between atoms: C_21  and  C_23
REMARK                            x       y       z     vdW  Elec       q    Type
REMARK                         _______ _______ _______ _____ _____    ______ ____
ROOT
ATOM      1  C   UNL     1       3.842   6.226  17.775  0.00  0.00    +0.000 C 
ENDROOT
BRANCH   1   2
ATOM      2  C   UNL     1       4.823   6.839  16.717  0.00  0.00    +0.000 C 
ATOM      3  C   UNL     1       6.177   7.290  17.309  0.00  0.00    +0.000 C 
ATOM      4  C   UNL     1       7.134   6.126  17.517  0.00  0.00    +0.000 C 
ATOM      5  O   UNL     1       7.401   5.472  16.281  0.00  0.00    +0.000 OA
ATOM      6  C   UNL     1       6.251   4.913  15.634  0.00  0.00    +0.000 C 
ATOM      7  C   UNL     1       6.718   4.526  14.218  0.00  0.00    +0.000 C 
ATOM      8  C   UNL     1       5.817   3.624  16.347  0.00  0.00    +0.000 C 
ATOM      9  C   UNL     1       5.122   5.960  15.485  0.00  0.00    +0.000 C 
ENDBRANCH   1   2
BRANCH   1  10
ATOM     10  C   UNL     1       2.641   7.192  18.023  0.00  0.00    +0.000 C 
BRANCH  10  11
ATOM     11  C   UNL     1       2.901   8.688  17.810  0.00  0.00    +0.000 C 
BRANCH  11  12
ATOM     12  N   UNL     1       1.663   9.431  17.576  0.00  0.00    +0.000 NA
ATOM     13  H   UNL     1       1.863  10.313  17.106  0.00  0.00    +0.000 HD
BRANCH  12  14
ATOM     14  C   UNL     1       1.000   9.730  18.845  0.00  0.00    +0.000 C 
BRANCH  14  18
ATOM     15  C   UNL     1      -2.907  11.509  18.318  0.00  0.00    +0.000 A 
ATOM     16  C   UNL     1      -2.465  10.504  17.454  0.00  0.00    +0.000 A 
ATOM     17  C   UNL     1      -1.199   9.937  17.611  0.00  0.00    +0.000 A 
ATOM     18  C   UNL     1      -0.344  10.380  18.633  0.00  0.00    +0.000 A 
ATOM     19  C   UNL     1      -0.779  11.419  19.468  0.00  0.00    +0.000 A 
ATOM     20  C   UNL     1      -2.052  11.981  19.312  0.00  0.00    +0.000 A 
BRANCH  15  22
ATOM     21  C   UNL     1      -5.130  10.984  17.717  0.00  0.00    +0.000 C 
ATOM     22  O   UNL     1      -4.173  11.972  18.083  0.00  0.00    +0.000 OA
ENDBRANCH  15  22
ENDBRANCH  14  18
ENDBRANCH  12  14
ENDBRANCH  11  12
ENDBRANCH  10  11
ENDBRANCH   1  10
BRANCH   1  23
ATOM     23  C   UNL     1       3.358   4.784  17.453  0.00  0.00    +0.000 C 
BRANCH  23  24
ATOM     24  C   UNL     1       1.873   4.470  17.706  0.00  0.00    +0.000 C 
BRANCH  24  25
ATOM     25  C   UNL     1       1.669   3.334  18.743  0.00  0.00    +0.000 C 
ATOM     26  C   UNL     1       2.975   2.621  19.097  0.00  0.00    +0.000 C 
ATOM     27  C   UNL     1       1.019   3.869  20.022  0.00  0.00    +0.000 C 
ENDBRANCH  24  25
ENDBRANCH  23  24
ENDBRANCH   1  23
TORSDOF 10
ENDMDL
MODEL 9
REMARK VINA RESULT:      -6.8      2.829      3.445
REMARK  Name = 
REMARK  15 active torsions:
REMARK  status: ('A' for Active; 'I' for Inactive)
REMARK    1  A    between atoms: C_1  and  O_2
REMARK    2  A    between atoms: O_2  and  C_3
REMARK    3  A    between atoms: C_6  and  C_7
REMARK    4  A    between atoms: C_7  and  N_8
REMARK    5  A    between atoms: N_8  and  C_9
REMARK    6  A    between atoms: C_9  and  C_10
REMARK    7  A    between atoms: C_10  and  C_11
REMARK    8  A    between atoms: C_11  and  C_12
REMARK    9  A    between atoms: C_11  and  C_17
REMARK   10  A    between atoms: C_12  and  C_13
REMARK   11  A    between atoms: C_13  and  C_14
REMARK   12  A    between atoms: C_14  and  C_15
REMARK   13  A    between atoms: C_14  and  C_16
REMARK   14  A    between atoms: C_21  and  C_22
REMARK   15  A    between atoms: C_21  and  C_23
REMARK                            x       y       z     vdW  Elec       q    Type
REMARK                         _______ _______ _______ _____ _____    ______ ____
ROOT
ATOM      1  C   UNL     1       3.871   5.881  18.185  0.00  0.00    +0.000 C 
ENDROOT
BRANCH   1   2
ATOM      2  C   UNL     1       3.059   4.732  17.494  0.00  0.00    +0.000 C 
ATOM      3  C   UNL     1       3.878   3.445  17.255  0.00  0.00    +0.000 C 
ATOM      4  C   UNL     1       4.004   2.597  18.511  0.00  0.00    +0.000 C 
ATOM      5  O   UNL     1       2.719   2.205  18.981  0.00  0.00    +0.000 OA
ATOM      6  C   UNL     1       1.851   3.290  19.335  0.00  0.00    +0.000 C 
ATOM      7  C   UNL     1       0.458   2.661  19.529  0.00  0.00    +0.000 C 
ATOM      8  C   UNL     1       2.279   3.893  20.681  0.00  0.00    +0.000 C 
ATOM      9  C   UNL     1       1.743   4.324  18.189  0.00  0.00    +0.000 C 
ENDBRANCH   1   2
BRANCH   1  10
ATOM     10  C   UNL     1       2.900   6.883  18.886  0.00  0.00    +0.000 C 
BRANCH  10  11
ATOM     11  C   UNL     1       2.281   7.975  18.007  0.00  0.00    +0.000 C 
BRANCH  11  12
ATOM     12  N   UNL     1       1.571   8.979  18.799  0.00  0.00    +0.000 NA
ATOM     13  H   UNL     1       2.058   9.874  18.757  0.00  0.00    +0.000 HD
BRANCH  12  14
ATOM     14  C   UNL     1       1.497   8.566  20.200  0.00  0.00    +0.000 C 
BRANCH  14  18
ATOM     15  C   UNL     1      -0.724  11.364  22.638  0.00  0.00    +0.000 A 
ATOM     16  C   UNL     1      -0.702  10.006  22.963  0.00  0.00    +0.000 A 
ATOM     17  C   UNL     1       0.002   9.097  22.171  0.00  0.00    +0.000 A 
ATOM     18  C   UNL     1       0.686   9.533  21.025  0.00  0.00    +0.000 A 
ATOM     19  C   UNL     1       0.622  10.891  20.683  0.00  0.00    +0.000 A 
ATOM     20  C   UNL     1      -0.079  11.802  21.483  0.00  0.00    +0.000 A 
BRANCH  15  22
ATOM     21  C   UNL     1      -2.832  12.206  23.290  0.00  0.00    +0.000 C 
ATOM     22  O   UNL     1      -1.425  12.164  23.499  0.00  0.00    +0.000 OA
ENDBRANCH  15  22
ENDBRANCH  14  18
ENDBRANCH  12  14
ENDBRANCH  11  12
ENDBRANCH  10  11
ENDBRANCH   1  10
BRANCH   1  23
ATOM     23  C   UNL     1       4.987   5.396  19.152  0.00  0.00    +0.000 C 
BRANCH  23  24
ATOM     24  C   UNL     1       6.428   5.384  18.610  0.00  0.00    +0.000 C 
BRANCH  24  25
ATOM     25  C   UNL     1       6.618   6.327  17.393  0.00  0.00    +0.000 C 
ATOM     26  C   UNL     1       7.562   7.491  17.694  0.00  0.00    +0.000 C 
ATOM     27  C   UNL     1       7.135   5.554  16.176  0.00  0.00    +0.000 C 
ENDBRANCH  24  25
ENDBRANCH  23  24
ENDBRANCH   1  23
TORSDOF 10
ENDMDL
