MODEL 1
REMARK VINA RESULT:      -8.4      0.000      0.000
REMARK  Name = 
REMARK  6 active torsions:
REMARK  status: ('A' for Active; 'I' for Inactive)
REMARK    1  A    between atoms: C_1  and  C_2
REMARK    2  A    between atoms: C_2  and  C_3
REMARK    3  A    between atoms: N_5  and  C_6
REMARK    4  A    between atoms: C_9  and  C_10
REMARK    5  A    between atoms: C_11  and  C_12
REMARK    6  A    between atoms: C_18  and  C_19
REMARK                            x       y       z     vdW  Elec       q    Type
REMARK                         _______ _______ _______ _____ _____    ______ ____
ROOT
ATOM      1  C   UNL     1       6.352   5.083  18.340  0.00  0.00    +0.000 A 
ATOM      2  C   UNL     1       5.877   5.928  17.339  0.00  0.00    +0.000 A 
ATOM      3  C   UNL     1       6.497   7.147  17.075  0.00  0.00    +0.000 A 
ATOM      4  C   UNL     1       7.596   7.572  17.826  0.00  0.00    +0.000 A 
ATOM      5  C   UNL     1       8.090   6.720  18.820  0.00  0.00    +0.000 A 
ATOM      6  C   UNL     1       7.463   5.490  19.086  0.00  0.00    +0.000 A 
ENDROOT
BRANCH   1   9
ATOM      7  C   UNL     1       4.542   3.694  19.327  0.00  0.00    +0.000 C 
ATOM      8  O   UNL     1       3.778   4.598  19.641  0.00  0.00    +0.000 OA
ATOM      9  N   UNL     1       5.738   3.846  18.644  0.00  0.00    +0.000 N 
ATOM     10  H   UNL     1       6.170   3.015  18.266  0.00  0.00    +0.000 HD
BRANCH   7  12
ATOM     11  C   UNL     1       3.169   1.696  18.723  0.00  0.00    +0.000 C 
ATOM     12  C   UNL     1       4.226   2.251  19.668  0.00  0.00    +0.000 C 
ENDBRANCH   7  12
ENDBRANCH   1   9
BRANCH   4  13
ATOM     13  C   UNL     1       8.254   8.859  17.543  0.00  0.00    +0.000 C 
ATOM     14  C   UNL     1       8.661   9.678  18.524  0.00  0.00    +0.000 C 
BRANCH  14  15
ATOM     15  C   UNL     1       9.228  11.043  18.338  0.00  0.00    +0.000 C 
ATOM     16  N   UNL     1       8.489  11.862  17.648  0.00  0.00    +0.000 NA
ATOM     17  N   UNL     1       8.936  13.107  17.389  0.00  0.00    +0.000 N 
ATOM     18  C   UNL     1      10.160  13.618  17.689  0.00  0.00    +0.000 C 
ATOM     19  O   UNL     1      10.481  14.749  17.322  0.00  0.00    +0.000 OA
ATOM     20  C   UNL     1      11.113  12.744  18.451  0.00  0.00    +0.000 C 
ATOM     21  C   UNL     1      10.562  11.416  18.957  0.00  0.00    +0.000 C 
ATOM     22  C   UNL     1      10.439  11.428  20.486  0.00  0.00    +0.000 C 
ATOM     23  H   UNL     1       8.324  13.693  16.828  0.00  0.00    +0.000 HD
ENDBRANCH  14  15
ENDBRANCH   4  13
TORSDOF 4
ENDMDL
MODEL 2
REMARK VINA RESULT:      -7.9      0.602      1.223
REMARK  Name = 
REMARK  6 active torsions:
REMARK  status: ('A' for Active; 'I' for Inactive)
REMARK    1  A    between atoms: C_1  and  C_2
REMARK    2  A    between atoms: C_2  and  C_3
REMARK    3  A    between atoms: N_5  and  C_6
REMARK    4  A    between atoms: C_9  and  C_10
REMARK    5  A    between atoms: C_11  and  C_12
REMARK    6  A    between atoms: C_18  and  C_19
REMARK                            x       y       z     vdW  Elec       q    Type
REMARK                         _______ _______ _______ _____ _____    ______ ____
ROOT
ATOM      1  C   UNL     1       6.426   5.143  18.310  0.00  0.00    +0.000 A 
ATOM      2  C   UNL     1       7.566   5.481  19.036  0.00  0.00    +0.000 A 
ATOM      3  C   UNL     1       8.166   6.730  18.888  0.00  0.00    +0.000 A 
ATOM      4  C   UNL     1       7.660   7.670  17.987  0.00  0.00    +0.000 A 
ATOM      5  C   UNL     1       6.504   7.344  17.269  0.00  0.00    +0.000 A 
ATOM      6  C   UNL     1       5.899   6.083  17.417  0.00  0.00    +0.000 A 
ENDROOT
BRANCH   1   9
ATOM      7  C   UNL     1       4.624   3.633  19.113  0.00  0.00    +0.000 C 
ATOM      8  O   UNL     1       3.887   4.481  19.599  0.00  0.00    +0.000 OA
ATOM      9  N   UNL     1       5.800   3.880  18.425  0.00  0.00    +0.000 N 
ATOM     10  H   UNL     1       6.204   3.119  17.899  0.00  0.00    +0.000 HD
BRANCH   7  12
ATOM     11  C   UNL     1       2.870   1.891  18.746  0.00  0.00    +0.000 C 
ATOM     12  C   UNL     1       4.293   2.157  19.221  0.00  0.00    +0.000 C 
ENDBRANCH   7  12
ENDBRANCH   1   9
BRANCH   4  13
ATOM     13  C   UNL     1       8.292   8.991  17.835  0.00  0.00    +0.000 C 
ATOM     14  C   UNL     1       8.920   9.598  18.852  0.00  0.00    +0.000 C 
BRANCH  14  15
ATOM     15  C   UNL     1       9.487  10.975  18.827  0.00  0.00    +0.000 C 
ATOM     16  N   UNL     1       9.181  11.682  17.779  0.00  0.00    +0.000 NA
ATOM     17  N   UNL     1       9.682  12.926  17.644  0.00  0.00    +0.000 N 
ATOM     18  C   UNL     1      10.586  13.539  18.455  0.00  0.00    +0.000 C 
ATOM     19  O   UNL     1      11.033  14.652  18.177  0.00  0.00    +0.000 OA
ATOM     20  C   UNL     1      11.041  12.797  19.677  0.00  0.00    +0.000 C 
ATOM     21  C   UNL     1      10.328  11.485  19.983  0.00  0.00    +0.000 C 
ATOM     22  C   UNL     1       9.458  11.622  21.238  0.00  0.00    +0.000 C 
ATOM     23  H   UNL     1       9.425  13.421  16.795  0.00  0.00    +0.000 HD
ENDBRANCH  14  15
ENDBRANCH   4  13
TORSDOF 4
ENDMDL
MODEL 3
REMARK VINA RESULT:      -7.6      0.909      1.059
REMARK  Name = 
REMARK  6 active torsions:
REMARK  status: ('A' for Active; 'I' for Inactive)
REMARK    1  A    between atoms: C_1  and  C_2
REMARK    2  A    between atoms: C_2  and  C_3
REMARK    3  A    between atoms: N_5  and  C_6
REMARK    4  A    between atoms: C_9  and  C_10
REMARK    5  A    between atoms: C_11  and  C_12
REMARK    6  A    between atoms: C_18  and  C_19
REMARK                            x       y       z     vdW  Elec       q    Type
REMARK                         _______ _______ _______ _____ _____    ______ ____
ROOT
ATOM      1  C   UNL     1       6.009   5.115  17.855  0.00  0.00    +0.000 A 
ATOM      2  C   UNL     1       5.605   6.215  17.100  0.00  0.00    +0.000 A 
ATOM      3  C   UNL     1       6.363   7.383  17.074  0.00  0.00    +0.000 A 
ATOM      4  C   UNL     1       7.536   7.497  17.825  0.00  0.00    +0.000 A 
ATOM      5  C   UNL     1       7.957   6.390  18.570  0.00  0.00    +0.000 A 
ATOM      6  C   UNL     1       7.191   5.211  18.597  0.00  0.00    +0.000 A 
ENDROOT
BRANCH   1   9
ATOM      7  C   UNL     1       4.022   3.783  18.527  0.00  0.00    +0.000 C 
ATOM      8  O   UNL     1       3.342   4.697  18.979  0.00  0.00    +0.000 OA
ATOM      9  N   UNL     1       5.256   3.919  17.915  0.00  0.00    +0.000 N 
ATOM     10  H   UNL     1       5.617   3.124  17.406  0.00  0.00    +0.000 HD
BRANCH   7  12
ATOM     11  C   UNL     1       2.327   2.230  19.507  0.00  0.00    +0.000 C 
ATOM     12  C   UNL     1       3.542   2.346  18.596  0.00  0.00    +0.000 C 
ENDBRANCH   7  12
ENDBRANCH   1   9
BRANCH   4  13
ATOM     13  C   UNL     1       8.338   8.732  17.793  0.00  0.00    +0.000 C 
ATOM     14  C   UNL     1       8.723   9.357  18.915  0.00  0.00    +0.000 C 
BRANCH  14  15
ATOM     15  C   UNL     1       9.434  10.665  18.983  0.00  0.00    +0.000 C 
ATOM     16  N   UNL     1       9.427  11.357  17.882  0.00  0.00    +0.000 NA
ATOM     17  N   UNL     1      10.081  12.535  17.830  0.00  0.00    +0.000 N 
ATOM     18  C   UNL     1      10.866  13.080  18.798  0.00  0.00    +0.000 C 
ATOM     19  O   UNL     1      11.481  14.127  18.598  0.00  0.00    +0.000 OA
ATOM     20  C   UNL     1      10.980  12.343  20.100  0.00  0.00    +0.000 C 
ATOM     21  C   UNL     1      10.077  11.128  20.276  0.00  0.00    +0.000 C 
ATOM     22  C   UNL     1       8.993  11.406  21.324  0.00  0.00    +0.000 C 
ATOM     23  H   UNL     1      10.057  13.020  16.937  0.00  0.00    +0.000 HD
ENDBRANCH  14  15
ENDBRANCH   4  13
TORSDOF 4
ENDMDL
MODEL 4
REMARK VINA RESULT:      -7.5      6.307      8.545
REMARK  Name = 
REMARK  6 active torsions:
REMARK  status: ('A' for Active; 'I' for Inactive)
REMARK    1  A    between atoms: C_1  and  C_2
REMARK    2  A    between atoms: C_2  and  C_3
REMARK    3  A    between atoms: N_5  and  C_6
REMARK    4  A    between atoms: C_9  and  C_10
REMARK    5  A    between atoms: C_11  and  C_12
REMARK    6  A    between atoms: C_18  and  C_19
REMARK                            x       y       z     vdW  Elec       q    Type
REMARK                         _______ _______ _______ _____ _____    ______ ____
ROOT
ATOM      1  C   UNL     1       0.198   9.499  20.541  0.00  0.00    +0.000 A 
ATOM      2  C   UNL     1       1.055   8.462  20.906  0.00  0.00    +0.000 A 
ATOM      3  C   UNL     1       1.965   7.931  19.995  0.00  0.00    +0.000 A 
ATOM      4  C   UNL     1       2.026   8.402  18.680  0.00  0.00    +0.000 A 
ATOM      5  C   UNL     1       1.182   9.455  18.314  0.00  0.00    +0.000 A 
ATOM      6  C   UNL     1       0.263   9.990  19.233  0.00  0.00    +0.000 A 
ENDROOT
BRANCH   1   9
ATOM      7  C   UNL     1      -0.578  11.225  22.150  0.00  0.00    +0.000 C 
ATOM      8  O   UNL     1       0.342  12.022  22.011  0.00  0.00    +0.000 OA
ATOM      9  N   UNL     1      -0.748  10.052  21.436  0.00  0.00    +0.000 N 
ATOM     10  H   UNL     1      -1.645   9.591  21.497  0.00  0.00    +0.000 HD
BRANCH   7  12
ATOM     11  C   UNL     1      -2.727  12.419  22.603  0.00  0.00    +0.000 C 
ATOM     12  C   UNL     1      -1.676  11.472  23.167  0.00  0.00    +0.000 C 
ENDBRANCH   7  12
ENDBRANCH   1   9
BRANCH   4  13
ATOM     13  C   UNL     1       2.992   7.842  17.720  0.00  0.00    +0.000 C 
ATOM     14  C   UNL     1       3.629   6.684  17.947  0.00  0.00    +0.000 C 
BRANCH  14  15
ATOM     15  C   UNL     1       4.701   6.099  17.094  0.00  0.00    +0.000 C 
ATOM     16  N   UNL     1       5.787   6.809  17.004  0.00  0.00    +0.000 NA
ATOM     17  N   UNL     1       6.798   6.384  16.221  0.00  0.00    +0.000 N 
ATOM     18  C   UNL     1       6.799   5.302  15.396  0.00  0.00    +0.000 C 
ATOM     19  O   UNL     1       7.759   5.066  14.663  0.00  0.00    +0.000 OA
ATOM     20  C   UNL     1       5.577   4.431  15.389  0.00  0.00    +0.000 C 
ATOM     21  C   UNL     1       4.507   4.750  16.426  0.00  0.00    +0.000 C 
ATOM     22  C   UNL     1       4.438   3.649  17.490  0.00  0.00    +0.000 C 
ATOM     23  H   UNL     1       7.612   6.991  16.173  0.00  0.00    +0.000 HD
ENDBRANCH  14  15
ENDBRANCH   4  13
TORSDOF 4
ENDMDL
MODEL 5
REMARK VINA RESULT:      -7.5      6.381      8.654
REMARK  Name = 
REMARK  6 active torsions:
REMARK  status: ('A' for Active; 'I' for Inactive)
REMARK    1  A    between atoms: C_1  and  C_2
REMARK    2  A    between atoms: C_2  and  C_3
REMARK    3  A    between atoms: N_5  and  C_6
REMARK    4  A    between atoms: C_9  and  C_10
REMARK    5  A    between atoms: C_11  and  C_12
REMARK    6  A    between atoms: C_18  and  C_19
REMARK                            x       y       z     vdW  Elec       q    Type
REMARK                         _______ _______ _______ _____ _____    ______ ____
ROOT
ATOM      1  C   UNL     1       0.098   9.827  20.279  0.00  0.00    +0.000 A 
ATOM      2  C   UNL     1       0.169  10.164  18.929  0.00  0.00    +0.000 A 
ATOM      3  C   UNL     1       1.070   9.527  18.078  0.00  0.00    +0.000 A 
ATOM      4  C   UNL     1       1.948   8.552  18.558  0.00  0.00    +0.000 A 
ATOM      5  C   UNL     1       1.868   8.195  19.908  0.00  0.00    +0.000 A 
ATOM      6  C   UNL     1       0.960   8.839  20.767  0.00  0.00    +0.000 A 
ENDROOT
BRANCH   1   9
ATOM      7  C   UNL     1      -0.499  11.584  21.932  0.00  0.00    +0.000 C 
ATOM      8  O   UNL     1       0.514  12.266  21.837  0.00  0.00    +0.000 OA
ATOM      9  N   UNL     1      -0.793  10.463  21.174  0.00  0.00    +0.000 N 
ATOM     10  H   UNL     1      -1.741  10.113  21.202  0.00  0.00    +0.000 HD
BRANCH   7  12
ATOM     11  C   UNL     1      -1.481  13.392  23.350  0.00  0.00    +0.000 C 
ATOM     12  C   UNL     1      -1.582  11.930  22.935  0.00  0.00    +0.000 C 
ENDBRANCH   7  12
ENDBRANCH   1   9
BRANCH   4  13
ATOM     13  C   UNL     1       2.896   7.876  17.656  0.00  0.00    +0.000 C 
ATOM     14  C   UNL     1       3.540   6.756  18.014  0.00  0.00    +0.000 C 
BRANCH  14  15
ATOM     15  C   UNL     1       4.597   6.069  17.221  0.00  0.00    +0.000 C 
ATOM     16  N   UNL     1       5.648   6.788  16.956  0.00  0.00    +0.000 NA
ATOM     17  N   UNL     1       6.641   6.268  16.207  0.00  0.00    +0.000 N 
ATOM     18  C   UNL     1       6.649   5.061  15.579  0.00  0.00    +0.000 C 
ATOM     19  O   UNL     1       7.585   4.734  14.850  0.00  0.00    +0.000 OA
ATOM     20  C   UNL     1       5.465   4.163  15.781  0.00  0.00    +0.000 C 
ATOM     21  C   UNL     1       4.428   4.620  16.801  0.00  0.00    +0.000 C 
ATOM     22  C   UNL     1       4.451   3.716  18.039  0.00  0.00    +0.000 C 
ATOM     23  H   UNL     1       7.426   6.884  16.017  0.00  0.00    +0.000 HD
ENDBRANCH  14  15
ENDBRANCH   4  13
TORSDOF 4
ENDMDL
MODEL 6
REMARK VINA RESULT:      -7.4      6.058      8.542
REMARK  Name = 
REMARK  6 active torsions:
REMARK  status: ('A' for Active; 'I' for Inactive)
REMARK    1  A    between atoms: C_1  and  C_2
REMARK    2  A    between atoms: C_2  and  C_3
REMARK    3  A    between atoms: N_5  and  C_6
REMARK    4  A    between atoms: C_9  and  C_10
REMARK    5  A    between atoms: C_11  and  C_12
REMARK    6  A    between atoms: C_18  and  C_19
REMARK                            x       y       z     vdW  Elec       q    Type
REMARK                         _______ _______ _______ _____ _____    ______ ____
ROOT
ATOM      1  C   UNL     1       0.647   9.697  20.277  0.00  0.00    +0.000 A 
ATOM      2  C   UNL     1       1.105   8.558  20.937  0.00  0.00    +0.000 A 
ATOM      3  C   UNL     1       1.858   7.596  20.267  0.00  0.00    +0.000 A 
ATOM      4  C   UNL     1       2.154   7.731  18.908  0.00  0.00    +0.000 A 
ATOM      5  C   UNL     1       1.714   8.882  18.245  0.00  0.00    +0.000 A 
ATOM      6  C   UNL     1       0.952   9.852  18.921  0.00  0.00    +0.000 A 
ENDROOT
BRANCH   1   9
ATOM      7  C   UNL     1       0.351  11.885  21.417  0.00  0.00    +0.000 C 
ATOM      8  O   UNL     1       1.482  12.326  21.248  0.00  0.00    +0.000 OA
ATOM      9  N   UNL     1      -0.132  10.686  20.922  0.00  0.00    +0.000 N 
ATOM     10  H   UNL     1      -1.130  10.534  20.954  0.00  0.00    +0.000 HD
BRANCH   7  12
ATOM     11  C   UNL     1      -1.613  11.708  22.952  0.00  0.00    +0.000 C 
ATOM     12  C   UNL     1      -0.676  12.660  22.219  0.00  0.00    +0.000 C 
ENDBRANCH   7  12
ENDBRANCH   1   9
BRANCH   4  13
ATOM     13  C   UNL     1       2.955   6.716  18.203  0.00  0.00    +0.000 C 
ATOM     14  C   UNL     1       4.019   7.046  17.457  0.00  0.00    +0.000 C 
BRANCH  14  15
ATOM     15  C   UNL     1       4.818   6.108  16.618  0.00  0.00    +0.000 C 
ATOM     16  N   UNL     1       5.364   6.637  15.563  0.00  0.00    +0.000 NA
ATOM     17  N   UNL     1       6.071   5.860  14.718  0.00  0.00    +0.000 N 
ATOM     18  C   UNL     1       6.219   4.509  14.775  0.00  0.00    +0.000 C 
ATOM     19  O   UNL     1       6.822   3.901  13.890  0.00  0.00    +0.000 OA
ATOM     20  C   UNL     1       5.593   3.787  15.932  0.00  0.00    +0.000 C 
ATOM     21  C   UNL     1       4.981   4.656  17.026  0.00  0.00    +0.000 C 
ATOM     22  C   UNL     1       5.809   4.568  18.313  0.00  0.00    +0.000 C 
ATOM     23  H   UNL     1       6.456   6.325  13.900  0.00  0.00    +0.000 HD
ENDBRANCH  14  15
ENDBRANCH   4  13
TORSDOF 4
ENDMDL
MODEL 7
REMARK VINA RESULT:      -7.4      6.367      7.600
REMARK  Name = 
REMARK  6 active torsions:
REMARK  status: ('A' for Active; 'I' for Inactive)
REMARK    1  A    between atoms: C_1  and  C_2
REMARK    2  A    between atoms: C_2  and  C_3
REMARK    3  A    between atoms: N_5  and  C_6
REMARK    4  A    between atoms: C_9  and  C_10
REMARK    5  A    between atoms: C_11  and  C_12
REMARK    6  A    between atoms: C_18  and  C_19
REMARK                            x       y       z     vdW  Elec       q    Type
REMARK                         _______ _______ _______ _____ _____    ______ ____
ROOT
ATOM      1  C   UNL     1       5.861   4.359  14.799  0.00  0.00    +0.000 A 
ATOM      2  C   UNL     1       5.786   5.743  14.940  0.00  0.00    +0.000 A 
ATOM      3  C   UNL     1       5.078   6.319  15.992  0.00  0.00    +0.000 A 
ATOM      4  C   UNL     1       4.399   5.527  16.922  0.00  0.00    +0.000 A 
ATOM      5  C   UNL     1       4.486   4.136  16.797  0.00  0.00    +0.000 A 
ATOM      6  C   UNL     1       5.200   3.555  15.734  0.00  0.00    +0.000 A 
ENDROOT
BRANCH   1   9
ATOM      7  C   UNL     1       5.996   3.353  12.531  0.00  0.00    +0.000 C 
ATOM      8  O   UNL     1       4.859   3.608  12.157  0.00  0.00    +0.000 OA
ATOM      9  N   UNL     1       6.559   3.741  13.735  0.00  0.00    +0.000 N 
ATOM     10  H   UNL     1       7.560   3.648  13.836  0.00  0.00    +0.000 HD
BRANCH   7  12
ATOM     11  C   UNL     1       6.258   1.293  11.140  0.00  0.00    +0.000 C 
ATOM     12  C   UNL     1       6.943   2.551  11.658  0.00  0.00    +0.000 C 
ENDBRANCH   7  12
ENDBRANCH   1   9
BRANCH   4  13
ATOM     13  C   UNL     1       3.654   6.137  18.036  0.00  0.00    +0.000 C 
ATOM     14  C   UNL     1       2.806   7.157  17.848  0.00  0.00    +0.000 C 
BRANCH  14  15
ATOM     15  C   UNL     1       2.099   7.911  18.921  0.00  0.00    +0.000 C 
ATOM     16  N   UNL     1       2.282   7.460  20.128  0.00  0.00    +0.000 NA
ATOM     17  N   UNL     1       1.650   8.049  21.163  0.00  0.00    +0.000 N 
ATOM     18  C   UNL     1       0.725   9.044  21.100  0.00  0.00    +0.000 C 
ATOM     19  O   UNL     1       0.153   9.441  22.116  0.00  0.00    +0.000 OA
ATOM     20  C   UNL     1       0.404   9.614  19.750  0.00  0.00    +0.000 C 
ATOM     21  C   UNL     1       1.263   9.132  18.586  0.00  0.00    +0.000 C 
ATOM     22  C   UNL     1       2.170  10.259  18.079  0.00  0.00    +0.000 C 
ATOM     23  H   UNL     1       1.815   7.639  22.078  0.00  0.00    +0.000 HD
ENDBRANCH  14  15
ENDBRANCH   4  13
TORSDOF 4
ENDMDL
MODEL 8
REMARK VINA RESULT:      -7.4      6.315      7.581
REMARK  Name = 
REMARK  6 active torsions:
REMARK  status: ('A' for Active; 'I' for Inactive)
REMARK    1  A    between atoms: C_1  and  C_2
REMARK    2  A    between atoms: C_2  and  C_3
REMARK    3  A    between atoms: N_5  and  C_6
REMARK    4  A    between atoms: C_9  and  C_10
REMARK    5  A    between atoms: C_11  and  C_12
REMARK    6  A    between atoms: C_18  and  C_19
REMARK                            x       y       z     vdW  Elec       q    Type
REMARK                         _______ _______ _______ _____ _____    ______ ____
ROOT
ATOM      1  C   UNL     1       5.787   4.338  14.875  0.00  0.00    +0.000 A 
ATOM      2  C   UNL     1       5.075   3.612  15.827  0.00  0.00    +0.000 A 
ATOM      3  C   UNL     1       4.423   4.255  16.877  0.00  0.00    +0.000 A 
ATOM      4  C   UNL     1       4.487   5.643  17.023  0.00  0.00    +0.000 A 
ATOM      5  C   UNL     1       5.185   6.379  16.059  0.00  0.00    +0.000 A 
ATOM      6  C   UNL     1       5.844   5.730  15.000  0.00  0.00    +0.000 A 
ENDROOT
BRANCH   1   9
ATOM      7  C   UNL     1       5.898   3.336  12.604  0.00  0.00    +0.000 C 
ATOM      8  O   UNL     1       4.760   3.602  12.238  0.00  0.00    +0.000 OA
ATOM      9  N   UNL     1       6.473   3.717  13.804  0.00  0.00    +0.000 N 
ATOM     10  H   UNL     1       7.473   3.614  13.899  0.00  0.00    +0.000 HD
BRANCH   7  12
ATOM     11  C   UNL     1       6.131   1.281  11.200  0.00  0.00    +0.000 C 
ATOM     12  C   UNL     1       6.832   2.528  11.723  0.00  0.00    +0.000 C 
ENDBRANCH   7  12
ENDBRANCH   1   9
BRANCH   4  13
ATOM     13  C   UNL     1       3.794   6.322  18.130  0.00  0.00    +0.000 C 
ATOM     14  C   UNL     1       2.727   7.107  17.924  0.00  0.00    +0.000 C 
BRANCH  14  15
ATOM     15  C   UNL     1       2.032   7.922  18.960  0.00  0.00    +0.000 C 
ATOM     16  N   UNL     1       2.180   7.506  20.184  0.00  0.00    +0.000 NA
ATOM     17  N   UNL     1       1.555   8.153  21.188  0.00  0.00    +0.000 N 
ATOM     18  C   UNL     1       0.669   9.179  21.077  0.00  0.00    +0.000 C 
ATOM     19  O   UNL     1       0.097   9.631  22.069  0.00  0.00    +0.000 OA
ATOM     20  C   UNL     1       0.390   9.714  19.703  0.00  0.00    +0.000 C 
ATOM     21  C   UNL     1       1.248   9.161  18.570  0.00  0.00    +0.000 C 
ATOM     22  C   UNL     1       2.204  10.236  18.041  0.00  0.00    +0.000 C 
ATOM     23  H   UNL     1       1.691   7.769  22.119  0.00  0.00    +0.000 HD
ENDBRANCH  14  15
ENDBRANCH   4  13
TORSDOF 4
ENDMDL
MODEL 9
REMARK VINA RESULT:      -7.4      1.297      1.683
REMARK  Name = 
REMARK  6 active torsions:
REMARK  status: ('A' for Active; 'I' for Inactive)
REMARK    1  A    between atoms: C_1  and  C_2
REMARK    2  A    between atoms: C_2  and  C_3
REMARK    3  A    between atoms: N_5  and  C_6
REMARK    4  A    between atoms: C_9  and  C_10
REMARK    5  A    between atoms: C_11  and  C_12
REMARK    6  A    between atoms: C_18  and  C_19
REMARK                            x       y       z     vdW  Elec       q    Type
REMARK                         _______ _______ _______ _____ _____    ______ ____
ROOT
ATOM      1  C   UNL     1       5.830   5.541  18.131  0.00  0.00    +0.000 A 
ATOM      2  C   UNL     1       7.051   5.501  18.801  0.00  0.00    +0.000 A 
ATOM      3  C   UNL     1       7.945   6.566  18.726  0.00  0.00    +0.000 A 
ATOM      4  C   UNL     1       7.657   7.695  17.954  0.00  0.00    +0.000 A 
ATOM      5  C   UNL     1       6.424   7.750  17.295  0.00  0.00    +0.000 A 
ATOM      6  C   UNL     1       5.522   6.673  17.370  0.00  0.00    +0.000 A 
ENDROOT
BRANCH   1   9
ATOM      7  C   UNL     1       4.599   3.639  17.110  0.00  0.00    +0.000 C 
ATOM      8  O   UNL     1       5.175   3.616  16.030  0.00  0.00    +0.000 OA
ATOM      9  N   UNL     1       4.906   4.471  18.174  0.00  0.00    +0.000 N 
ATOM     10  H   UNL     1       4.498   4.253  19.072  0.00  0.00    +0.000 HD
BRANCH   7  12
ATOM     11  C   UNL     1       2.172   3.495  17.689  0.00  0.00    +0.000 C 
ATOM     12  C   UNL     1       3.440   2.704  17.396  0.00  0.00    +0.000 C 
ENDBRANCH   7  12
ENDBRANCH   1   9
BRANCH   4  13
ATOM     13  C   UNL     1       8.600   8.823  17.880  0.00  0.00    +0.000 C 
ATOM     14  C   UNL     1       8.243  10.070  18.220  0.00  0.00    +0.000 C 
BRANCH  14  15
ATOM     15  C   UNL     1       9.087  11.288  18.071  0.00  0.00    +0.000 C 
ATOM     16  N   UNL     1       8.493  12.312  17.532  0.00  0.00    +0.000 NA
ATOM     17  N   UNL     1       9.186  13.448  17.315  0.00  0.00    +0.000 N 
ATOM     18  C   UNL     1      10.518  13.646  17.508  0.00  0.00    +0.000 C 
ATOM     19  O   UNL     1      11.052  14.709  17.190  0.00  0.00    +0.000 OA
ATOM     20  C   UNL     1      11.314  12.514  18.088  0.00  0.00    +0.000 C 
ATOM     21  C   UNL     1      10.525  11.297  18.557  0.00  0.00    +0.000 C 
ATOM     22  C   UNL     1      10.556  11.187  20.086  0.00  0.00    +0.000 C 
ATOM     23  H   UNL     1       8.673  14.206  16.873  0.00  0.00    +0.000 HD
ENDBRANCH  14  15
ENDBRANCH   4  13
TORSDOF 4
ENDMDL
