MODEL 1
REMARK VINA RESULT:      -8.7      0.000      0.000
REMARK  Name = 
REMARK  4 active torsions:
REMARK  status: ('A' for Active; 'I' for Inactive)
REMARK    1  A    between atoms: C_4  and  C_5
REMARK    2  A    between atoms: C_4  and  C_21
REMARK    3  A    between atoms: C_9  and  N_10
REMARK    4  A    between atoms: C_11  and  C_13
REMARK                            x       y       z     vdW  Elec       q    Type
REMARK                         _______ _______ _______ _____ _____    ______ ____
ROOT
ATOM      1  C   UNL     1       2.531   5.239  19.107  0.00  0.00    +0.000 A 
ATOM      2  C   UNL     1       3.318   5.493  17.970  0.00  0.00    +0.000 A 
ATOM      3  C   UNL     1       3.538   6.792  17.521  0.00  0.00    +0.000 A 
ATOM      4  C   UNL     1       2.965   7.869  18.188  0.00  0.00    +0.000 A 
ATOM      5  C   UNL     1       2.162   7.667  19.310  0.00  0.00    +0.000 A 
ATOM      6  C   UNL     1       1.966   6.354  19.771  0.00  0.00    +0.000 A 
ENDROOT
BRANCH   1  10
ATOM      7  N   UNL     1       5.221   1.658  19.947  0.00  0.00    +0.000 N 
ATOM      8  C   UNL     1       4.065   2.204  19.463  0.00  0.00    +0.000 C 
ATOM      9  N   UNL     1       3.571   3.219  20.090  0.00  0.00    +0.000 NA
ATOM     10  C   UNL     1       2.275   3.801  19.623  0.00  0.00    +0.000 C 
ATOM     11  C   UNL     1       1.579   2.953  18.520  0.00  0.00    +0.000 C 
ATOM     12  O   UNL     1       2.511   2.429  17.565  0.00  0.00    +0.000 OA
ATOM     13  C   UNL     1       3.417   1.568  18.230  0.00  0.00    +0.000 C 
ATOM     14  H   UNL     1       5.710   2.264  20.598  0.00  0.00    +0.000 HD
ATOM     15  H   UNL     1       5.824   1.156  19.306  0.00  0.00    +0.000 HD
BRANCH  10  16
ATOM     16  C   UNL     1       1.320   3.757  20.854  0.00  0.00    +0.000 C 
ATOM     17  F   UNL     1       0.662   2.568  20.922  0.00  0.00    +0.000 F 
ATOM     18  F   UNL     1       2.029   3.845  22.015  0.00  0.00    +0.000 F 
ENDBRANCH  10  16
ENDBRANCH   1  10
BRANCH   5  19
ATOM     19  N   UNL     1       1.544   8.731  20.000  0.00  0.00    +0.000 N 
ATOM     20  C   UNL     1       0.715   9.694  19.446  0.00  0.00    +0.000 C 
ATOM     21  O   UNL     1       0.356   9.769  18.275  0.00  0.00    +0.000 OA
ATOM     22  H   UNL     1       1.652   8.779  21.010  0.00  0.00    +0.000 HD
BRANCH  20  23
ATOM     23  C   UNL     1       0.193  10.710  20.413  0.00  0.00    +0.000 A 
ATOM     24  C   UNL     1      -0.262  10.284  21.658  0.00  0.00    +0.000 A 
ATOM     25  C   UNL     1      -0.729  11.231  22.563  0.00  0.00    +0.000 A 
ATOM     26  C   UNL     1      -0.731  12.569  22.189  0.00  0.00    +0.000 A 
ATOM     27 BR   UNL     1      -1.342  13.891  23.384  0.00  0.00    +0.000 Br
ATOM     28  C   UNL     1      -0.268  12.909  20.922  0.00  0.00    +0.000 A 
ATOM     29  N   UNL     1       0.203  12.014  20.015  0.00  0.00    +0.000 NA
ENDBRANCH  20  23
ENDBRANCH   5  19
TORSDOF 4
ENDMDL
MODEL 2
REMARK VINA RESULT:      -8.6      1.150      1.293
REMARK  Name = 
REMARK  4 active torsions:
REMARK  status: ('A' for Active; 'I' for Inactive)
REMARK    1  A    between atoms: C_4  and  C_5
REMARK    2  A    between atoms: C_4  and  C_21
REMARK    3  A    between atoms: C_9  and  N_10
REMARK    4  A    between atoms: C_11  and  C_13
REMARK                            x       y       z     vdW  Elec       q    Type
REMARK                         _______ _______ _______ _____ _____    ______ ____
ROOT
ATOM      1  C   UNL     1       2.790   5.236  18.882  0.00  0.00    +0.000 A 
ATOM      2  C   UNL     1       3.821   5.375  17.937  0.00  0.00    +0.000 A 
ATOM      3  C   UNL     1       4.128   6.613  17.381  0.00  0.00    +0.000 A 
ATOM      4  C   UNL     1       3.402   7.743  17.744  0.00  0.00    +0.000 A 
ATOM      5  C   UNL     1       2.360   7.653  18.665  0.00  0.00    +0.000 A 
ATOM      6  C   UNL     1       2.073   6.403  19.241  0.00  0.00    +0.000 A 
ENDROOT
BRANCH   1  10
ATOM      7  N   UNL     1       5.232   1.585  20.096  0.00  0.00    +0.000 N 
ATOM      8  C   UNL     1       4.122   2.156  19.537  0.00  0.00    +0.000 C 
ATOM      9  N   UNL     1       3.681   3.251  20.061  0.00  0.00    +0.000 NA
ATOM     10  C   UNL     1       2.434   3.867  19.513  0.00  0.00    +0.000 C 
ATOM     11  C   UNL     1       1.708   2.970  18.469  0.00  0.00    +0.000 C 
ATOM     12  O   UNL     1       2.625   2.309  17.587  0.00  0.00    +0.000 OA
ATOM     13  C   UNL     1       3.462   1.456  18.346  0.00  0.00    +0.000 C 
ATOM     14  H   UNL     1       5.745   2.215  20.705  0.00  0.00    +0.000 HD
ATOM     15  H   UNL     1       5.816   0.994  19.516  0.00  0.00    +0.000 HD
BRANCH  10  16
ATOM     16  C   UNL     1       1.453   3.989  20.718  0.00  0.00    +0.000 C 
ATOM     17  F   UNL     1       0.736   2.844  20.884  0.00  0.00    +0.000 F 
ATOM     18  F   UNL     1       2.142   4.157  21.882  0.00  0.00    +0.000 F 
ENDBRANCH  10  16
ENDBRANCH   1  10
BRANCH   5  19
ATOM     19  N   UNL     1       1.585   8.771  19.043  0.00  0.00    +0.000 N 
ATOM     20  C   UNL     1       1.163   9.077  20.327  0.00  0.00    +0.000 C 
ATOM     21  O   UNL     1       1.412   8.450  21.353  0.00  0.00    +0.000 OA
ATOM     22  H   UNL     1       1.356   9.461  18.333  0.00  0.00    +0.000 HD
BRANCH  20  23
ATOM     23  C   UNL     1       0.351  10.329  20.444  0.00  0.00    +0.000 A 
ATOM     24  C   UNL     1      -0.740  10.505  19.596  0.00  0.00    +0.000 A 
ATOM     25  C   UNL     1      -1.505  11.660  19.718  0.00  0.00    +0.000 A 
ATOM     26  C   UNL     1      -1.149  12.599  20.678  0.00  0.00    +0.000 A 
ATOM     27 BR   UNL     1      -2.162  14.174  20.890  0.00  0.00    +0.000 Br
ATOM     28  C   UNL     1      -0.040  12.350  21.478  0.00  0.00    +0.000 A 
ATOM     29  N   UNL     1       0.727  11.231  21.394  0.00  0.00    +0.000 NA
ENDBRANCH  20  23
ENDBRANCH   5  19
TORSDOF 4
ENDMDL
MODEL 3
REMARK VINA RESULT:      -8.6      3.520      4.307
REMARK  Name = 
REMARK  4 active torsions:
REMARK  status: ('A' for Active; 'I' for Inactive)
REMARK    1  A    between atoms: C_4  and  C_5
REMARK    2  A    between atoms: C_4  and  C_21
REMARK    3  A    between atoms: C_9  and  N_10
REMARK    4  A    between atoms: C_11  and  C_13
REMARK                            x       y       z     vdW  Elec       q    Type
REMARK                         _______ _______ _______ _____ _____    ______ ____
ROOT
ATOM      1  C   UNL     1       4.517   5.020  17.411  0.00  0.00    +0.000 A 
ATOM      2  C   UNL     1       3.728   3.882  17.172  0.00  0.00    +0.000 A 
ATOM      3  C   UNL     1       2.381   3.851  17.521  0.00  0.00    +0.000 A 
ATOM      4  C   UNL     1       1.792   4.952  18.133  0.00  0.00    +0.000 A 
ATOM      5  C   UNL     1       2.537   6.098  18.406  0.00  0.00    +0.000 A 
ATOM      6  C   UNL     1       3.889   6.130  18.027  0.00  0.00    +0.000 A 
ENDROOT
BRANCH   1  10
ATOM      7  N   UNL     1       8.383   5.251  19.812  0.00  0.00    +0.000 N 
ATOM      8  C   UNL     1       7.606   5.618  18.748  0.00  0.00    +0.000 C 
ATOM      9  N   UNL     1       6.833   4.722  18.231  0.00  0.00    +0.000 NA
ATOM     10  C   UNL     1       6.017   5.075  17.029  0.00  0.00    +0.000 C 
ATOM     11  C   UNL     1       6.366   6.468  16.431  0.00  0.00    +0.000 C 
ATOM     12  O   UNL     1       6.603   7.453  17.446  0.00  0.00    +0.000 OA
ATOM     13  C   UNL     1       7.716   7.053  18.225  0.00  0.00    +0.000 C 
ATOM     14  H   UNL     1       8.085   4.384  20.247  0.00  0.00    +0.000 HD
ATOM     15  H   UNL     1       8.681   5.967  20.463  0.00  0.00    +0.000 HD
BRANCH  10  16
ATOM     16  C   UNL     1       6.403   4.037  15.932  0.00  0.00    +0.000 C 
ATOM     17  F   UNL     1       5.622   4.178  14.826  0.00  0.00    +0.000 F 
ATOM     18  F   UNL     1       7.680   4.246  15.502  0.00  0.00    +0.000 F 
ENDBRANCH  10  16
ENDBRANCH   1  10
BRANCH   5  19
ATOM     19  N   UNL     1       1.981   7.227  19.046  0.00  0.00    +0.000 N 
ATOM     20  C   UNL     1       1.865   8.498  18.507  0.00  0.00    +0.000 C 
ATOM     21  O   UNL     1       2.196   8.852  17.378  0.00  0.00    +0.000 OA
ATOM     22  H   UNL     1       1.565   7.105  19.966  0.00  0.00    +0.000 HD
BRANCH  20  23
ATOM     23  C   UNL     1       1.233   9.512  19.408  0.00  0.00    +0.000 A 
ATOM     24  C   UNL     1       0.955   9.160  20.727  0.00  0.00    +0.000 A 
ATOM     25  C   UNL     1       0.386  10.109  21.569  0.00  0.00    +0.000 A 
ATOM     26  C   UNL     1       0.109  11.372  21.062  0.00  0.00    +0.000 A 
ATOM     27 BR   UNL     1      -0.652  12.696  22.167  0.00  0.00    +0.000 Br
ATOM     28  C   UNL     1       0.408  11.639  19.730  0.00  0.00    +0.000 A 
ATOM     29  N   UNL     1       0.972  10.742  18.880  0.00  0.00    +0.000 NA
ENDBRANCH  20  23
ENDBRANCH   5  19
TORSDOF 4
ENDMDL
MODEL 4
REMARK VINA RESULT:      -8.3      3.618      4.408
REMARK  Name = 
REMARK  4 active torsions:
REMARK  status: ('A' for Active; 'I' for Inactive)
REMARK    1  A    between atoms: C_4  and  C_5
REMARK    2  A    between atoms: C_4  and  C_21
REMARK    3  A    between atoms: C_9  and  N_10
REMARK    4  A    between atoms: C_11  and  C_13
REMARK                            x       y       z     vdW  Elec       q    Type
REMARK                         _______ _______ _______ _____ _____    ______ ____
ROOT
ATOM      1  C   UNL     1       4.551   5.075  17.399  0.00  0.00    +0.000 A 
ATOM      2  C   UNL     1       3.750   3.943  17.167  0.00  0.00    +0.000 A 
ATOM      3  C   UNL     1       2.400   3.934  17.503  0.00  0.00    +0.000 A 
ATOM      4  C   UNL     1       1.818   5.051  18.093  0.00  0.00    +0.000 A 
ATOM      5  C   UNL     1       2.575   6.191  18.359  0.00  0.00    +0.000 A 
ATOM      6  C   UNL     1       3.932   6.201  17.993  0.00  0.00    +0.000 A 
ENDROOT
BRANCH   1  10
ATOM      7  N   UNL     1       8.397   5.229  19.838  0.00  0.00    +0.000 N 
ATOM      8  C   UNL     1       7.637   5.614  18.769  0.00  0.00    +0.000 C 
ATOM      9  N   UNL     1       6.854   4.733  18.240  0.00  0.00    +0.000 NA
ATOM     10  C   UNL     1       6.055   5.105  17.031  0.00  0.00    +0.000 C 
ATOM     11  C   UNL     1       6.435   6.494  16.443  0.00  0.00    +0.000 C 
ATOM     12  O   UNL     1       6.679   7.470  17.464  0.00  0.00    +0.000 OA
ATOM     13  C   UNL     1       7.777   7.048  18.252  0.00  0.00    +0.000 C 
ATOM     14  H   UNL     1       8.080   4.365  20.267  0.00  0.00    +0.000 HD
ATOM     15  H   UNL     1       8.701   5.937  20.496  0.00  0.00    +0.000 HD
BRANCH  10  16
ATOM     16  C   UNL     1       6.435   4.065  15.934  0.00  0.00    +0.000 C 
ATOM     17  F   UNL     1       5.618   4.175  14.851  0.00  0.00    +0.000 F 
ATOM     18  F   UNL     1       7.693   4.300  15.464  0.00  0.00    +0.000 F 
ENDBRANCH  10  16
ENDBRANCH   1  10
BRANCH   5  19
ATOM     19  N   UNL     1       2.028   7.336  18.977  0.00  0.00    +0.000 N 
ATOM     20  C   UNL     1       1.594   7.427  20.290  0.00  0.00    +0.000 C 
ATOM     21  O   UNL     1       1.636   6.545  21.143  0.00  0.00    +0.000 OA
ATOM     22  H   UNL     1       1.998   8.202  18.447  0.00  0.00    +0.000 HD
BRANCH  20  23
ATOM     23  C   UNL     1       1.056   8.767  20.686  0.00  0.00    +0.000 A 
ATOM     24  C   UNL     1       0.523   8.929  21.962  0.00  0.00    +0.000 A 
ATOM     25  C   UNL     1       0.042  10.179  22.335  0.00  0.00    +0.000 A 
ATOM     26  C   UNL     1       0.106  11.220  21.418  0.00  0.00    +0.000 A 
ATOM     27 BR   UNL     1      -0.522  12.936  21.882  0.00  0.00    +0.000 Br
ATOM     28  C   UNL     1       0.645  10.972  20.161  0.00  0.00    +0.000 A 
ATOM     29  N   UNL     1       1.132   9.768  19.763  0.00  0.00    +0.000 NA
ENDBRANCH  20  23
ENDBRANCH   5  19
TORSDOF 4
ENDMDL
MODEL 5
REMARK VINA RESULT:      -8.3      1.584      1.981
REMARK  Name = 
REMARK  4 active torsions:
REMARK  status: ('A' for Active; 'I' for Inactive)
REMARK    1  A    between atoms: C_4  and  C_5
REMARK    2  A    between atoms: C_4  and  C_21
REMARK    3  A    between atoms: C_9  and  N_10
REMARK    4  A    between atoms: C_11  and  C_13
REMARK                            x       y       z     vdW  Elec       q    Type
REMARK                         _______ _______ _______ _____ _____    ______ ____
ROOT
ATOM      1  C   UNL     1       3.031   5.070  18.395  0.00  0.00    +0.000 A 
ATOM      2  C   UNL     1       3.929   5.476  17.393  0.00  0.00    +0.000 A 
ATOM      3  C   UNL     1       4.153   6.824  17.128  0.00  0.00    +0.000 A 
ATOM      4  C   UNL     1       3.474   7.801  17.848  0.00  0.00    +0.000 A 
ATOM      5  C   UNL     1       2.561   7.448  18.840  0.00  0.00    +0.000 A 
ATOM      6  C   UNL     1       2.360   6.086  19.118  0.00  0.00    +0.000 A 
ENDROOT
BRANCH   1  10
ATOM      7  N   UNL     1       2.134   2.747  22.211  0.00  0.00    +0.000 N 
ATOM      8  C   UNL     1       2.767   2.879  21.007  0.00  0.00    +0.000 C 
ATOM      9  N   UNL     1       2.127   3.469  20.053  0.00  0.00    +0.000 NA
ATOM     10  C   UNL     1       2.769   3.576  18.706  0.00  0.00    +0.000 C 
ATOM     11  C   UNL     1       4.090   2.764  18.585  0.00  0.00    +0.000 C 
ATOM     12  O   UNL     1       4.896   2.854  19.767  0.00  0.00    +0.000 OA
ATOM     13  C   UNL     1       4.178   2.304  20.857  0.00  0.00    +0.000 C 
ATOM     14  H   UNL     1       1.324   3.352  22.308  0.00  0.00    +0.000 HD
ATOM     15  H   UNL     1       2.698   2.664  23.048  0.00  0.00    +0.000 HD
BRANCH  10  16
ATOM     16  C   UNL     1       1.773   2.912  17.707  0.00  0.00    +0.000 C 
ATOM     17  F   UNL     1       2.286   1.760  17.196  0.00  0.00    +0.000 F 
ATOM     18  F   UNL     1       0.625   2.545  18.345  0.00  0.00    +0.000 F 
ENDBRANCH  10  16
ENDBRANCH   1  10
BRANCH   5  19
ATOM     19  N   UNL     1       1.834   8.408  19.576  0.00  0.00    +0.000 N 
ATOM     20  C   UNL     1       0.996   9.379  19.052  0.00  0.00    +0.000 C 
ATOM     21  O   UNL     1       0.720   9.552  17.867  0.00  0.00    +0.000 OA
ATOM     22  H   UNL     1       1.865   8.362  20.591  0.00  0.00    +0.000 HD
BRANCH  20  23
ATOM     23  C   UNL     1       0.348  10.270  20.065  0.00  0.00    +0.000 A 
ATOM     24  C   UNL     1       0.168   9.794  21.362  0.00  0.00    +0.000 A 
ATOM     25  C   UNL     1      -0.417  10.629  22.308  0.00  0.00    +0.000 A 
ATOM     26  C   UNL     1      -0.806  11.906  21.923  0.00  0.00    +0.000 A 
ATOM     27 BR   UNL     1      -1.592  13.078  23.172  0.00  0.00    +0.000 Br
ATOM     28  C   UNL     1      -0.600  12.299  20.605  0.00  0.00    +0.000 A 
ATOM     29  N   UNL     1      -0.025  11.515  19.656  0.00  0.00    +0.000 NA
ENDBRANCH  20  23
ENDBRANCH   5  19
TORSDOF 4
ENDMDL
MODEL 6
REMARK VINA RESULT:      -8.2      3.623      4.465
REMARK  Name = 
REMARK  4 active torsions:
REMARK  status: ('A' for Active; 'I' for Inactive)
REMARK    1  A    between atoms: C_4  and  C_5
REMARK    2  A    between atoms: C_4  and  C_21
REMARK    3  A    between atoms: C_9  and  N_10
REMARK    4  A    between atoms: C_11  and  C_13
REMARK                            x       y       z     vdW  Elec       q    Type
REMARK                         _______ _______ _______ _____ _____    ______ ____
ROOT
ATOM      1  C   UNL     1       4.568   5.255  17.478  0.00  0.00    +0.000 A 
ATOM      2  C   UNL     1       3.765   4.100  17.502  0.00  0.00    +0.000 A 
ATOM      3  C   UNL     1       2.410   4.170  17.812  0.00  0.00    +0.000 A 
ATOM      4  C   UNL     1       1.825   5.394  18.120  0.00  0.00    +0.000 A 
ATOM      5  C   UNL     1       2.583   6.564  18.127  0.00  0.00    +0.000 A 
ATOM      6  C   UNL     1       3.944   6.488  17.787  0.00  0.00    +0.000 A 
ENDROOT
BRANCH   1  10
ATOM      7  N   UNL     1       8.378   5.242  19.976  0.00  0.00    +0.000 N 
ATOM      8  C   UNL     1       7.657   5.649  18.889  0.00  0.00    +0.000 C 
ATOM      9  N   UNL     1       6.835   4.804  18.361  0.00  0.00    +0.000 NA
ATOM     10  C   UNL     1       6.077   5.198  17.134  0.00  0.00    +0.000 C 
ATOM     11  C   UNL     1       6.539   6.555  16.531  0.00  0.00    +0.000 C 
ATOM     12  O   UNL     1       6.820   7.533  17.540  0.00  0.00    +0.000 OA
ATOM     13  C   UNL     1       7.882   7.066  18.352  0.00  0.00    +0.000 C 
ATOM     14  H   UNL     1       8.008   4.403  20.413  0.00  0.00    +0.000 HD
ATOM     15  H   UNL     1       8.709   5.943  20.628  0.00  0.00    +0.000 HD
BRANCH  10  16
ATOM     16  C   UNL     1       6.416   4.121  16.060  0.00  0.00    +0.000 C 
ATOM     17  F   UNL     1       5.542   4.175  15.018  0.00  0.00    +0.000 F 
ATOM     18  F   UNL     1       7.643   4.357  15.514  0.00  0.00    +0.000 F 
ENDBRANCH  10  16
ENDBRANCH   1  10
BRANCH   5  19
ATOM     19  N   UNL     1       2.032   7.821  18.457  0.00  0.00    +0.000 N 
ATOM     20  C   UNL     1       1.629   8.232  19.717  0.00  0.00    +0.000 C 
ATOM     21  O   UNL     1       1.708   7.589  20.761  0.00  0.00    +0.000 OA
ATOM     22  H   UNL     1       1.975   8.528  17.729  0.00  0.00    +0.000 HD
BRANCH  20  23
ATOM     23  C   UNL     1       1.080   9.622  19.783  0.00  0.00    +0.000 A 
ATOM     24  C   UNL     1       1.240  10.462  18.684  0.00  0.00    +0.000 A 
ATOM     25  C   UNL     1       0.712  11.748  18.739  0.00  0.00    +0.000 A 
ATOM     26  C   UNL     1       0.049  12.149  19.891  0.00  0.00    +0.000 A 
ATOM     27 BR   UNL     1      -0.694  13.877  20.009  0.00  0.00    +0.000 Br
ATOM     28  C   UNL     1      -0.059  11.252  20.948  0.00  0.00    +0.000 A 
ATOM     29  N   UNL     1       0.436   9.986  20.928  0.00  0.00    +0.000 NA
ENDBRANCH  20  23
ENDBRANCH   5  19
TORSDOF 4
ENDMDL
MODEL 7
REMARK VINA RESULT:      -8.2      1.916      2.252
REMARK  Name = 
REMARK  4 active torsions:
REMARK  status: ('A' for Active; 'I' for Inactive)
REMARK    1  A    between atoms: C_4  and  C_5
REMARK    2  A    between atoms: C_4  and  C_21
REMARK    3  A    between atoms: C_9  and  N_10
REMARK    4  A    between atoms: C_11  and  C_13
REMARK                            x       y       z     vdW  Elec       q    Type
REMARK                         _______ _______ _______ _____ _____    ______ ____
ROOT
ATOM      1  C   UNL     1       3.040   5.178  18.355  0.00  0.00    +0.000 A 
ATOM      2  C   UNL     1       3.981   5.634  17.416  0.00  0.00    +0.000 A 
ATOM      3  C   UNL     1       4.161   6.993  17.176  0.00  0.00    +0.000 A 
ATOM      4  C   UNL     1       3.395   7.932  17.859  0.00  0.00    +0.000 A 
ATOM      5  C   UNL     1       2.437   7.528  18.788  0.00  0.00    +0.000 A 
ATOM      6  C   UNL     1       2.280   6.155  19.042  0.00  0.00    +0.000 A 
ENDROOT
BRANCH   1  10
ATOM      7  N   UNL     1       2.242   2.751  22.128  0.00  0.00    +0.000 N 
ATOM      8  C   UNL     1       2.862   2.927  20.923  0.00  0.00    +0.000 C 
ATOM      9  N   UNL     1       2.198   3.517  19.985  0.00  0.00    +0.000 NA
ATOM     10  C   UNL     1       2.826   3.671  18.636  0.00  0.00    +0.000 C 
ATOM     11  C   UNL     1       4.170   2.902  18.490  0.00  0.00    +0.000 C 
ATOM     12  O   UNL     1       4.981   2.992  19.668  0.00  0.00    +0.000 OA
ATOM     13  C   UNL     1       4.289   2.398  20.751  0.00  0.00    +0.000 C 
ATOM     14  H   UNL     1       1.415   3.328  22.243  0.00  0.00    +0.000 HD
ATOM     15  H   UNL     1       2.815   2.668  22.959  0.00  0.00    +0.000 HD
BRANCH  10  16
ATOM     16  C   UNL     1       1.843   2.998  17.631  0.00  0.00    +0.000 C 
ATOM     17  F   UNL     1       2.318   1.792  17.215  0.00  0.00    +0.000 F 
ATOM     18  F   UNL     1       0.650   2.729  18.232  0.00  0.00    +0.000 F 
ENDBRANCH  10  16
ENDBRANCH   1  10
BRANCH   5  19
ATOM     19  N   UNL     1       1.624   8.448  19.485  0.00  0.00    +0.000 N 
ATOM     20  C   UNL     1       1.174   8.317  20.789  0.00  0.00    +0.000 C 
ATOM     21  O   UNL     1       1.428   7.401  21.567  0.00  0.00    +0.000 OA
ATOM     22  H   UNL     1       1.385   9.324  19.028  0.00  0.00    +0.000 HD
BRANCH  20  23
ATOM     23  C   UNL     1       0.324   9.447  21.281  0.00  0.00    +0.000 A 
ATOM     24  C   UNL     1      -0.099   9.444  22.608  0.00  0.00    +0.000 A 
ATOM     25  C   UNL     1      -0.873  10.504  23.068  0.00  0.00    +0.000 A 
ATOM     26  C   UNL     1      -1.202  11.524  22.185  0.00  0.00    +0.000 A 
ATOM     27 BR   UNL     1      -2.238  12.987  22.765  0.00  0.00    +0.000 Br
ATOM     28  C   UNL     1      -0.747  11.445  20.873  0.00  0.00    +0.000 A 
ATOM     29  N   UNL     1       0.017  10.432  20.389  0.00  0.00    +0.000 NA
ENDBRANCH  20  23
ENDBRANCH   5  19
TORSDOF 4
ENDMDL
MODEL 8
REMARK VINA RESULT:      -8.2      5.117      6.278
REMARK  Name = 
REMARK  4 active torsions:
REMARK  status: ('A' for Active; 'I' for Inactive)
REMARK    1  A    between atoms: C_4  and  C_5
REMARK    2  A    between atoms: C_4  and  C_21
REMARK    3  A    between atoms: C_9  and  N_10
REMARK    4  A    between atoms: C_11  and  C_13
REMARK                            x       y       z     vdW  Elec       q    Type
REMARK                         _______ _______ _______ _____ _____    ______ ____
ROOT
ATOM      1  C   UNL     1       4.911   4.966  17.602  0.00  0.00    +0.000 A 
ATOM      2  C   UNL     1       5.167   4.339  16.369  0.00  0.00    +0.000 A 
ATOM      3  C   UNL     1       6.045   4.897  15.445  0.00  0.00    +0.000 A 
ATOM      4  C   UNL     1       6.679   6.103  15.722  0.00  0.00    +0.000 A 
ATOM      5  C   UNL     1       6.445   6.771  16.923  0.00  0.00    +0.000 A 
ATOM      6  C   UNL     1       5.577   6.188  17.861  0.00  0.00    +0.000 A 
ENDROOT
BRANCH   1  10
ATOM      7  N   UNL     1       5.165   1.454  20.494  0.00  0.00    +0.000 N 
ATOM      8  C   UNL     1       4.481   2.218  19.591  0.00  0.00    +0.000 C 
ATOM      9  N   UNL     1       4.715   3.488  19.578  0.00  0.00    +0.000 NA
ATOM     10  C   UNL     1       3.939   4.360  18.644  0.00  0.00    +0.000 C 
ATOM     11  C   UNL     1       2.779   3.616  17.923  0.00  0.00    +0.000 C 
ATOM     12  O   UNL     1       3.149   2.290  17.520  0.00  0.00    +0.000 OA
ATOM     13  C   UNL     1       3.468   1.530  18.671  0.00  0.00    +0.000 C 
ATOM     14  H   UNL     1       5.974   1.924  20.888  0.00  0.00    +0.000 HD
ATOM     15  H   UNL     1       5.310   0.473  20.286  0.00  0.00    +0.000 HD
BRANCH  10  16
ATOM     16  C   UNL     1       3.256   5.439  19.538  0.00  0.00    +0.000 C 
ATOM     17  F   UNL     1       2.138   5.934  18.941  0.00  0.00    +0.000 F 
ATOM     18  F   UNL     1       2.828   4.891  20.710  0.00  0.00    +0.000 F 
ENDBRANCH  10  16
ENDBRANCH   1  10
BRANCH   5  19
ATOM     19  N   UNL     1       7.050   8.009  17.232  0.00  0.00    +0.000 N 
ATOM     20  C   UNL     1       8.047   8.219  18.171  0.00  0.00    +0.000 C 
ATOM     21  O   UNL     1       8.592   7.369  18.870  0.00  0.00    +0.000 OA
ATOM     22  H   UNL     1       6.790   8.824  16.683  0.00  0.00    +0.000 HD
BRANCH  20  23
ATOM     23  C   UNL     1       8.510   9.638  18.294  0.00  0.00    +0.000 A 
ATOM     24  C   UNL     1       9.489   9.947  19.235  0.00  0.00    +0.000 A 
ATOM     25  C   UNL     1       9.932  11.262  19.335  0.00  0.00    +0.000 A 
ATOM     26  C   UNL     1       9.378  12.219  18.496  0.00  0.00    +0.000 A 
ATOM     27 BR   UNL     1       9.954  14.011  18.585  0.00  0.00    +0.000 Br
ATOM     28  C   UNL     1       8.397  11.828  17.590  0.00  0.00    +0.000 A 
ATOM     29  N   UNL     1       7.945  10.554  17.458  0.00  0.00    +0.000 NA
ENDBRANCH  20  23
ENDBRANCH   5  19
TORSDOF 4
ENDMDL
MODEL 9
REMARK VINA RESULT:      -8.1      1.254      1.370
REMARK  Name = 
REMARK  4 active torsions:
REMARK  status: ('A' for Active; 'I' for Inactive)
REMARK    1  A    between atoms: C_4  and  C_5
REMARK    2  A    between atoms: C_4  and  C_21
REMARK    3  A    between atoms: C_9  and  N_10
REMARK    4  A    between atoms: C_11  and  C_13
REMARK                            x       y       z     vdW  Elec       q    Type
REMARK                         _______ _______ _______ _____ _____    ______ ____
ROOT
ATOM      1  C   UNL     1       2.783   5.131  18.835  0.00  0.00    +0.000 A 
ATOM      2  C   UNL     1       3.798   5.272  17.873  0.00  0.00    +0.000 A 
ATOM      3  C   UNL     1       4.115   6.516  17.336  0.00  0.00    +0.000 A 
ATOM      4  C   UNL     1       3.415   7.650  17.734  0.00  0.00    +0.000 A 
ATOM      5  C   UNL     1       2.388   7.558  18.672  0.00  0.00    +0.000 A 
ATOM      6  C   UNL     1       2.092   6.302  19.229  0.00  0.00    +0.000 A 
ENDROOT
BRANCH   1  10
ATOM      7  N   UNL     1       5.222   1.566  20.284  0.00  0.00    +0.000 N 
ATOM      8  C   UNL     1       4.148   2.099  19.629  0.00  0.00    +0.000 C 
ATOM      9  N   UNL     1       3.630   3.182  20.104  0.00  0.00    +0.000 NA
ATOM     10  C   UNL     1       2.416   3.756  19.445  0.00  0.00    +0.000 C 
ATOM     11  C   UNL     1       1.809   2.830  18.352  0.00  0.00    +0.000 C 
ATOM     12  O   UNL     1       2.818   2.192  17.557  0.00  0.00    +0.000 OA
ATOM     13  C   UNL     1       3.612   1.370  18.393  0.00  0.00    +0.000 C 
ATOM     14  H   UNL     1       5.663   2.216  20.929  0.00  0.00    +0.000 HD
ATOM     15  H   UNL     1       5.871   0.989  19.762  0.00  0.00    +0.000 HD
BRANCH  10  16
ATOM     16  C   UNL     1       1.333   3.855  20.562  0.00  0.00    +0.000 C 
ATOM     17  F   UNL     1       0.337   2.950  20.361  0.00  0.00    +0.000 F 
ATOM     18  F   UNL     1       1.866   3.542  21.777  0.00  0.00    +0.000 F 
ENDBRANCH  10  16
ENDBRANCH   1  10
BRANCH   5  19
ATOM     19  N   UNL     1       1.638   8.680  19.086  0.00  0.00    +0.000 N 
ATOM     20  C   UNL     1       1.546   9.893  18.421  0.00  0.00    +0.000 C 
ATOM     21  O   UNL     1       2.073  10.188  17.352  0.00  0.00    +0.000 OA
ATOM     22  H   UNL     1       1.054   8.592  19.913  0.00  0.00    +0.000 HD
BRANCH  20  23
ATOM     23  C   UNL     1       0.676  10.914  19.086  0.00  0.00    +0.000 A 
ATOM     24  C   UNL     1       1.272  12.025  19.675  0.00  0.00    +0.000 A 
ATOM     25  C   UNL     1       0.462  12.983  20.276  0.00  0.00    +0.000 A 
ATOM     26  C   UNL     1      -0.914  12.792  20.270  0.00  0.00    +0.000 A 
ATOM     27 BR   UNL     1      -2.055  14.067  21.061  0.00  0.00    +0.000 Br
ATOM     28  C   UNL     1      -1.428  11.649  19.668  0.00  0.00    +0.000 A 
ATOM     29  N   UNL     1      -0.670  10.696  19.065  0.00  0.00    +0.000 NA
ENDBRANCH  20  23
ENDBRANCH   5  19
TORSDOF 4
ENDMDL
