MODEL 1
REMARK VINA RESULT:      -7.4      0.000      0.000
REMARK  Name = 
REMARK  5 active torsions:
REMARK  status: ('A' for Active; 'I' for Inactive)
REMARK    1  A    between atoms: C_1  and  C_2
REMARK    2  A    between atoms: C_7  and  N_8
REMARK    3  A    between atoms: N_14  and  C_15
REMARK    4  A    between atoms: C_15  and  C_16
REMARK    5  A    between atoms: C_16  and  N_17
REMARK                            x       y       z     vdW  Elec       q    Type
REMARK                         _______ _______ _______ _____ _____    ______ ____
ROOT
ATOM      1  N   UNL     1       0.922   9.883  19.971  0.00  0.00    +0.000 N 
ATOM      2  N   UNL     1       0.573   9.474  21.229  0.00  0.00    +0.000 NA
ATOM      3  C   UNL     1       0.994   8.209  21.308  0.00  0.00    +0.000 A 
ATOM      4  C   UNL     1       1.670   7.812  20.158  0.00  0.00    +0.000 A 
ATOM      5  C   UNL     1       2.349   6.618  19.762  0.00  0.00    +0.000 A 
ATOM      6  O   UNL     1       2.325   5.597  20.444  0.00  0.00    +0.000 OA
ATOM      7  N   UNL     1       3.013   6.734  18.529  0.00  0.00    +0.000 N 
ATOM      8  C   UNL     1       2.848   7.875  17.752  0.00  0.00    +0.000 A 
ATOM      9  N   UNL     1       2.184   8.945  18.072  0.00  0.00    +0.000 NA
ATOM     10  C   UNL     1       1.613   8.878  19.301  0.00  0.00    +0.000 A 
ENDROOT
BRANCH   1  17
ATOM     11  C   UNL     1      -1.627  10.261  18.444  0.00  0.00    +0.000 C 
ATOM     12  C   UNL     1      -0.627  11.354  18.711  0.00  0.00    +0.000 A 
ATOM     13  C   UNL     1      -0.914  12.645  18.232  0.00  0.00    +0.000 A 
ATOM     14  C   UNL     1      -0.077  13.724  18.510  0.00  0.00    +0.000 A 
ATOM     15  C   UNL     1       1.067  13.536  19.278  0.00  0.00    +0.000 A 
ATOM     16  C   UNL     1       1.374  12.267  19.764  0.00  0.00    +0.000 A 
ATOM     17  C   UNL     1       0.544  11.167  19.479  0.00  0.00    +0.000 A 
ENDBRANCH   1  17
BRANCH   7  18
ATOM     18  C   UNL     1       3.675   5.528  18.014  0.00  0.00    +0.000 C 
BRANCH  18  19
ATOM     19  C   UNL     1       5.107   5.294  18.532  0.00  0.00    +0.000 C 
BRANCH  19  20
ATOM     20  N   UNL     1       6.172   5.301  17.509  0.00  0.00    +0.000 NA
ATOM     21  C   UNL     1       7.477   5.010  18.137  0.00  0.00    +0.000 C 
ATOM     22  C   UNL     1       7.934   6.347  18.696  0.00  0.00    +0.000 C 
ATOM     23  C   UNL     1       7.485   7.332  17.633  0.00  0.00    +0.000 C 
ATOM     24  C   UNL     1       6.380   6.611  16.862  0.00  0.00    +0.000 C 
ENDBRANCH  19  20
ENDBRANCH  18  19
ENDBRANCH   7  18
TORSDOF 4
ENDMDL
MODEL 2
REMARK VINA RESULT:      -7.3      1.968      7.517
REMARK  Name = 
REMARK  5 active torsions:
REMARK  status: ('A' for Active; 'I' for Inactive)
REMARK    1  A    between atoms: C_1  and  C_2
REMARK    2  A    between atoms: C_7  and  N_8
REMARK    3  A    between atoms: N_14  and  C_15
REMARK    4  A    between atoms: C_15  and  C_16
REMARK    5  A    between atoms: C_16  and  N_17
REMARK                            x       y       z     vdW  Elec       q    Type
REMARK                         _______ _______ _______ _____ _____    ______ ____
ROOT
ATOM      1  N   UNL     1       2.824   6.649  18.844  0.00  0.00    +0.000 N 
ATOM      2  N   UNL     1       2.541   6.093  20.063  0.00  0.00    +0.000 NA
ATOM      3  C   UNL     1       1.838   7.026  20.711  0.00  0.00    +0.000 A 
ATOM      4  C   UNL     1       1.600   8.144  19.917  0.00  0.00    +0.000 A 
ATOM      5  C   UNL     1       0.872   9.361  20.099  0.00  0.00    +0.000 A 
ATOM      6  O   UNL     1       0.385   9.673  21.182  0.00  0.00    +0.000 OA
ATOM      7  N   UNL     1       0.797  10.150  18.938  0.00  0.00    +0.000 N 
ATOM      8  C   UNL     1       1.518   9.792  17.805  0.00  0.00    +0.000 A 
ATOM      9  N   UNL     1       2.233   8.719  17.643  0.00  0.00    +0.000 NA
ATOM     10  C   UNL     1       2.238   7.906  18.729  0.00  0.00    +0.000 A 
ENDROOT
BRANCH   1  17
ATOM     11  C   UNL     1       2.028   4.000  17.692  0.00  0.00    +0.000 C 
ATOM     12  C   UNL     1       3.323   4.705  17.388  0.00  0.00    +0.000 A 
ATOM     13  C   UNL     1       4.213   4.092  16.487  0.00  0.00    +0.000 A 
ATOM     14  C   UNL     1       5.394   4.721  16.094  0.00  0.00    +0.000 A 
ATOM     15  C   UNL     1       5.709   5.980  16.592  0.00  0.00    +0.000 A 
ATOM     16  C   UNL     1       4.843   6.609  17.485  0.00  0.00    +0.000 A 
ATOM     17  C   UNL     1       3.656   5.978  17.901  0.00  0.00    +0.000 A 
ENDBRANCH   1  17
BRANCH   7  18
ATOM     18  C   UNL     1       0.129  11.451  19.061  0.00  0.00    +0.000 C 
BRANCH  18  19
ATOM     19  C   UNL     1      -1.033  11.688  18.077  0.00  0.00    +0.000 C 
BRANCH  19  20
ATOM     20  N   UNL     1      -2.120  10.689  18.112  0.00  0.00    +0.000 NA
ATOM     21  C   UNL     1      -2.134   9.914  16.854  0.00  0.00    +0.000 C 
ATOM     22  C   UNL     1      -2.901  10.791  15.879  0.00  0.00    +0.000 C 
ATOM     23  C   UNL     1      -3.992  11.392  16.745  0.00  0.00    +0.000 C 
ATOM     24  C   UNL     1      -3.474  11.272  18.178  0.00  0.00    +0.000 C 
ENDBRANCH  19  20
ENDBRANCH  18  19
ENDBRANCH   7  18
TORSDOF 4
ENDMDL
MODEL 3
REMARK VINA RESULT:      -7.2      1.754      7.810
REMARK  Name = 
REMARK  5 active torsions:
REMARK  status: ('A' for Active; 'I' for Inactive)
REMARK    1  A    between atoms: C_1  and  C_2
REMARK    2  A    between atoms: C_7  and  N_8
REMARK    3  A    between atoms: N_14  and  C_15
REMARK    4  A    between atoms: C_15  and  C_16
REMARK    5  A    between atoms: C_16  and  N_17
REMARK                            x       y       z     vdW  Elec       q    Type
REMARK                         _______ _______ _______ _____ _____    ______ ____
ROOT
ATOM      1  N   UNL     1       4.302   5.365  18.033  0.00  0.00    +0.000 N 
ATOM      2  N   UNL     1       4.090   4.455  19.035  0.00  0.00    +0.000 NA
ATOM      3  C   UNL     1       3.267   5.070  19.888  0.00  0.00    +0.000 A 
ATOM      4  C   UNL     1       2.885   6.328  19.430  0.00  0.00    +0.000 A 
ATOM      5  C   UNL     1       2.002   7.341  19.916  0.00  0.00    +0.000 A 
ATOM      6  O   UNL     1       1.472   7.269  21.022  0.00  0.00    +0.000 OA
ATOM      7  N   UNL     1       1.827   8.410  19.020  0.00  0.00    +0.000 N 
ATOM      8  C   UNL     1       2.594   8.482  17.863  0.00  0.00    +0.000 A 
ATOM      9  N   UNL     1       3.446   7.598  17.437  0.00  0.00    +0.000 NA
ATOM     10  C   UNL     1       3.555   6.518  18.251  0.00  0.00    +0.000 A 
ENDROOT
BRANCH   1  17
ATOM     11  C   UNL     1       7.189   6.131  18.265  0.00  0.00    +0.000 C 
ATOM     12  C   UNL     1       6.572   5.501  17.044  0.00  0.00    +0.000 A 
ATOM     13  C   UNL     1       7.407   5.234  15.945  0.00  0.00    +0.000 A 
ATOM     14  C   UNL     1       6.926   4.578  14.812  0.00  0.00    +0.000 A 
ATOM     15  C   UNL     1       5.597   4.173  14.755  0.00  0.00    +0.000 A 
ATOM     16  C   UNL     1       4.750   4.426  15.832  0.00  0.00    +0.000 A 
ATOM     17  C   UNL     1       5.220   5.099  16.975  0.00  0.00    +0.000 A 
ENDBRANCH   1  17
BRANCH   7  18
ATOM     18  C   UNL     1       0.991   9.528  19.474  0.00  0.00    +0.000 C 
BRANCH  18  19
ATOM     19  C   UNL     1       0.030  10.102  18.415  0.00  0.00    +0.000 C 
BRANCH  19  20
ATOM     20  N   UNL     1      -1.166  10.792  18.937  0.00  0.00    +0.000 NA
ATOM     21  C   UNL     1      -1.598  11.839  17.988  0.00  0.00    +0.000 C 
ATOM     22  C   UNL     1      -0.709  13.029  18.306  0.00  0.00    +0.000 C 
ATOM     23  C   UNL     1      -0.595  12.975  19.818  0.00  0.00    +0.000 C 
ATOM     24  C   UNL     1      -0.936  11.533  20.192  0.00  0.00    +0.000 C 
ENDBRANCH  19  20
ENDBRANCH  18  19
ENDBRANCH   7  18
TORSDOF 4
ENDMDL
MODEL 4
REMARK VINA RESULT:      -7.2      1.790      7.814
REMARK  Name = 
REMARK  5 active torsions:
REMARK  status: ('A' for Active; 'I' for Inactive)
REMARK    1  A    between atoms: C_1  and  C_2
REMARK    2  A    between atoms: C_7  and  N_8
REMARK    3  A    between atoms: N_14  and  C_15
REMARK    4  A    between atoms: C_15  and  C_16
REMARK    5  A    between atoms: C_16  and  N_17
REMARK                            x       y       z     vdW  Elec       q    Type
REMARK                         _______ _______ _______ _____ _____    ______ ____
ROOT
ATOM      1  N   UNL     1       4.238   5.372  18.138  0.00  0.00    +0.000 N 
ATOM      2  N   UNL     1       4.014   4.486  19.157  0.00  0.00    +0.000 NA
ATOM      3  C   UNL     1       3.191   5.126  19.993  0.00  0.00    +0.000 A 
ATOM      4  C   UNL     1       2.821   6.376  19.505  0.00  0.00    +0.000 A 
ATOM      5  C   UNL     1       1.943   7.406  19.964  0.00  0.00    +0.000 A 
ATOM      6  O   UNL     1       1.407   7.362  21.068  0.00  0.00    +0.000 OA
ATOM      7  N   UNL     1       1.781   8.456  19.044  0.00  0.00    +0.000 N 
ATOM      8  C   UNL     1       2.555   8.498  17.890  0.00  0.00    +0.000 A 
ATOM      9  N   UNL     1       3.402   7.598  17.488  0.00  0.00    +0.000 NA
ATOM     10  C   UNL     1       3.499   6.536  18.326  0.00  0.00    +0.000 A 
ENDROOT
BRANCH   1  17
ATOM     11  C   UNL     1       7.145   6.045  18.404  0.00  0.00    +0.000 C 
ATOM     12  C   UNL     1       6.523   5.435  17.176  0.00  0.00    +0.000 A 
ATOM     13  C   UNL     1       7.363   5.141  16.087  0.00  0.00    +0.000 A 
ATOM     14  C   UNL     1       6.874   4.501  14.948  0.00  0.00    +0.000 A 
ATOM     15  C   UNL     1       5.534   4.139  14.875  0.00  0.00    +0.000 A 
ATOM     16  C   UNL     1       4.682   4.419  15.942  0.00  0.00    +0.000 A 
ATOM     17  C   UNL     1       5.160   5.077  17.091  0.00  0.00    +0.000 A 
ENDBRANCH   1  17
BRANCH   7  18
ATOM     18  C   UNL     1       0.951   9.590  19.470  0.00  0.00    +0.000 C 
BRANCH  18  19
ATOM     19  C   UNL     1       0.162  10.285  18.343  0.00  0.00    +0.000 C 
BRANCH  19  20
ATOM     20  N   UNL     1      -1.216  10.695  18.681  0.00  0.00    +0.000 NA
ATOM     21  C   UNL     1      -2.171   9.649  18.260  0.00  0.00    +0.000 C 
ATOM     22  C   UNL     1      -2.398   9.917  16.781  0.00  0.00    +0.000 C 
ATOM     23  C   UNL     1      -2.412  11.433  16.708  0.00  0.00    +0.000 C 
ATOM     24  C   UNL     1      -1.680  11.899  17.967  0.00  0.00    +0.000 C 
ENDBRANCH  19  20
ENDBRANCH  18  19
ENDBRANCH   7  18
TORSDOF 4
ENDMDL
MODEL 5
REMARK VINA RESULT:      -7.1      2.138      7.823
REMARK  Name = 
REMARK  5 active torsions:
REMARK  status: ('A' for Active; 'I' for Inactive)
REMARK    1  A    between atoms: C_1  and  C_2
REMARK    2  A    between atoms: C_7  and  N_8
REMARK    3  A    between atoms: N_14  and  C_15
REMARK    4  A    between atoms: C_15  and  C_16
REMARK    5  A    between atoms: C_16  and  N_17
REMARK                            x       y       z     vdW  Elec       q    Type
REMARK                         _______ _______ _______ _____ _____    ______ ____
ROOT
ATOM      1  N   UNL     1       4.361   4.068  17.592  0.00  0.00    +0.000 N 
ATOM      2  N   UNL     1       4.091   2.801  18.035  0.00  0.00    +0.000 NA
ATOM      3  C   UNL     1       3.307   2.971  19.103  0.00  0.00    +0.000 A 
ATOM      4  C   UNL     1       3.006   4.312  19.320  0.00  0.00    +0.000 A 
ATOM      5  C   UNL     1       2.187   5.012  20.261  0.00  0.00    +0.000 A 
ATOM      6  O   UNL     1       1.652   4.443  21.209  0.00  0.00    +0.000 OA
ATOM      7  N   UNL     1       2.081   6.388  19.997  0.00  0.00    +0.000 N 
ATOM      8  C   UNL     1       2.853   6.968  18.997  0.00  0.00    +0.000 A 
ATOM      9  N   UNL     1       3.648   6.355  18.173  0.00  0.00    +0.000 NA
ATOM     10  C   UNL     1       3.688   5.012  18.361  0.00  0.00    +0.000 A 
ENDROOT
BRANCH   1  17
ATOM     11  C   UNL     1       7.194   4.902  18.093  0.00  0.00    +0.000 C 
ATOM     12  C   UNL     1       6.585   4.742  16.726  0.00  0.00    +0.000 A 
ATOM     13  C   UNL     1       7.402   4.979  15.606  0.00  0.00    +0.000 A 
ATOM     14  C   UNL     1       6.933   4.771  14.309  0.00  0.00    +0.000 A 
ATOM     15  C   UNL     1       5.634   4.319  14.105  0.00  0.00    +0.000 A 
ATOM     16  C   UNL     1       4.804   4.077  15.198  0.00  0.00    +0.000 A 
ATOM     17  C   UNL     1       5.262   4.296  16.511  0.00  0.00    +0.000 A 
ENDBRANCH   1  17
BRANCH   7  18
ATOM     18  C   UNL     1       1.316   7.192  20.959  0.00  0.00    +0.000 C 
BRANCH  18  19
ATOM     19  C   UNL     1       0.975   8.621  20.496  0.00  0.00    +0.000 C 
BRANCH  19  20
ATOM     20  N   UNL     1       1.351   9.706  21.423  0.00  0.00    +0.000 NA
ATOM     21  C   UNL     1       0.909   9.374  22.794  0.00  0.00    +0.000 C 
ATOM     22  C   UNL     1      -0.554   9.781  22.828  0.00  0.00    +0.000 C 
ATOM     23  C   UNL     1      -0.573  11.057  22.006  0.00  0.00    +0.000 C 
ATOM     24  C   UNL     1       0.689  10.995  21.146  0.00  0.00    +0.000 C 
ENDBRANCH  19  20
ENDBRANCH  18  19
ENDBRANCH   7  18
TORSDOF 4
ENDMDL
MODEL 6
REMARK VINA RESULT:      -7.1      1.999      7.862
REMARK  Name = 
REMARK  5 active torsions:
REMARK  status: ('A' for Active; 'I' for Inactive)
REMARK    1  A    between atoms: C_1  and  C_2
REMARK    2  A    between atoms: C_7  and  N_8
REMARK    3  A    between atoms: N_14  and  C_15
REMARK    4  A    between atoms: C_15  and  C_16
REMARK    5  A    between atoms: C_16  and  N_17
REMARK                            x       y       z     vdW  Elec       q    Type
REMARK                         _______ _______ _______ _____ _____    ______ ____
ROOT
ATOM      1  N   UNL     1       4.488   4.234  17.615  0.00  0.00    +0.000 N 
ATOM      2  N   UNL     1       4.264   3.007  18.179  0.00  0.00    +0.000 NA
ATOM      3  C   UNL     1       3.502   3.254  19.247  0.00  0.00    +0.000 A 
ATOM      4  C   UNL     1       3.168   4.601  19.349  0.00  0.00    +0.000 A 
ATOM      5  C   UNL     1       2.352   5.362  20.243  0.00  0.00    +0.000 A 
ATOM      6  O   UNL     1       1.857   4.870  21.253  0.00  0.00    +0.000 OA
ATOM      7  N   UNL     1       2.201   6.706  19.858  0.00  0.00    +0.000 N 
ATOM      8  C   UNL     1       2.932   7.211  18.789  0.00  0.00    +0.000 A 
ATOM      9  N   UNL     1       3.724   6.546  18.003  0.00  0.00    +0.000 NA
ATOM     10  C   UNL     1       3.807   5.227  18.312  0.00  0.00    +0.000 A 
ENDROOT
BRANCH   1  17
ATOM     11  C   UNL     1       7.372   4.956  17.982  0.00  0.00    +0.000 C 
ATOM     12  C   UNL     1       6.704   4.778  16.644  0.00  0.00    +0.000 A 
ATOM     13  C   UNL     1       7.487   4.941  15.487  0.00  0.00    +0.000 A 
ATOM     14  C   UNL     1       6.960   4.712  14.217  0.00  0.00    +0.000 A 
ATOM     15  C   UNL     1       5.635   4.313  14.076  0.00  0.00    +0.000 A 
ATOM     16  C   UNL     1       4.839   4.145  15.207  0.00  0.00    +0.000 A 
ATOM     17  C   UNL     1       5.355   4.386  16.494  0.00  0.00    +0.000 A 
ENDBRANCH   1  17
BRANCH   7  18
ATOM     18  C   UNL     1       1.437   7.574  20.763  0.00  0.00    +0.000 C 
BRANCH  18  19
ATOM     19  C   UNL     1       1.110   8.974  20.208  0.00  0.00    +0.000 C 
BRANCH  19  20
ATOM     20  N   UNL     1      -0.176   9.554  20.641  0.00  0.00    +0.000 NA
ATOM     21  C   UNL     1      -0.713  10.436  19.584  0.00  0.00    +0.000 C 
ATOM     22  C   UNL     1       0.011  11.756  19.791  0.00  0.00    +0.000 C 
ATOM     23  C   UNL     1       0.091  11.868  21.302  0.00  0.00    +0.000 C 
ATOM     24  C   UNL     1      -0.076  10.439  21.817  0.00  0.00    +0.000 C 
ENDBRANCH  19  20
ENDBRANCH  18  19
ENDBRANCH   7  18
TORSDOF 4
ENDMDL
MODEL 7
REMARK VINA RESULT:      -7.1      1.777      7.893
REMARK  Name = 
REMARK  5 active torsions:
REMARK  status: ('A' for Active; 'I' for Inactive)
REMARK    1  A    between atoms: C_1  and  C_2
REMARK    2  A    between atoms: C_7  and  N_8
REMARK    3  A    between atoms: N_14  and  C_15
REMARK    4  A    between atoms: C_15  and  C_16
REMARK    5  A    between atoms: C_16  and  N_17
REMARK                            x       y       z     vdW  Elec       q    Type
REMARK                         _______ _______ _______ _____ _____    ______ ____
ROOT
ATOM      1  N   UNL     1       3.997   5.387  18.458  0.00  0.00    +0.000 N 
ATOM      2  N   UNL     1       3.624   4.557  19.482  0.00  0.00    +0.000 NA
ATOM      3  C   UNL     1       2.795   5.288  20.231  0.00  0.00    +0.000 A 
ATOM      4  C   UNL     1       2.566   6.546  19.680  0.00  0.00    +0.000 A 
ATOM      5  C   UNL     1       1.742   7.658  20.039  0.00  0.00    +0.000 A 
ATOM      6  O   UNL     1       1.121   7.694  21.098  0.00  0.00    +0.000 OA
ATOM      7  N   UNL     1       1.737   8.685  19.079  0.00  0.00    +0.000 N 
ATOM      8  C   UNL     1       2.598   8.625  17.989  0.00  0.00    +0.000 A 
ATOM      9  N   UNL     1       3.397   7.648  17.681  0.00  0.00    +0.000 NA
ATOM     10  C   UNL     1       3.343   6.611  18.554  0.00  0.00    +0.000 A 
ENDROOT
BRANCH   1  17
ATOM     11  C   UNL     1       6.928   5.583  19.048  0.00  0.00    +0.000 C 
ATOM     12  C   UNL     1       6.355   5.119  17.736  0.00  0.00    +0.000 A 
ATOM     13  C   UNL     1       7.250   4.731  16.723  0.00  0.00    +0.000 A 
ATOM     14  C   UNL     1       6.794   4.213  15.511  0.00  0.00    +0.000 A 
ATOM     15  C   UNL     1       5.429   4.069  15.287  0.00  0.00    +0.000 A 
ATOM     16  C   UNL     1       4.522   4.446  16.275  0.00  0.00    +0.000 A 
ATOM     17  C   UNL     1       4.969   4.983  17.496  0.00  0.00    +0.000 A 
ENDBRANCH   1  17
BRANCH   7  18
ATOM     18  C   UNL     1       0.972   9.895  19.405  0.00  0.00    +0.000 C 
BRANCH  18  19
ATOM     19  C   UNL     1      -0.374  10.039  18.669  0.00  0.00    +0.000 C 
BRANCH  19  20
ATOM     20  N   UNL     1      -0.744  11.410  18.265  0.00  0.00    +0.000 NA
ATOM     21  C   UNL     1      -0.681  12.313  19.433  0.00  0.00    +0.000 C 
ATOM     22  C   UNL     1      -2.010  12.108  20.141  0.00  0.00    +0.000 C 
ATOM     23  C   UNL     1      -2.989  11.954  18.992  0.00  0.00    +0.000 C 
ATOM     24  C   UNL     1      -2.135  11.546  17.793  0.00  0.00    +0.000 C 
ENDBRANCH  19  20
ENDBRANCH  18  19
ENDBRANCH   7  18
TORSDOF 4
ENDMDL
MODEL 8
REMARK VINA RESULT:      -7.1      1.766      2.727
REMARK  Name = 
REMARK  5 active torsions:
REMARK  status: ('A' for Active; 'I' for Inactive)
REMARK    1  A    between atoms: C_1  and  C_2
REMARK    2  A    between atoms: C_7  and  N_8
REMARK    3  A    between atoms: N_14  and  C_15
REMARK    4  A    between atoms: C_15  and  C_16
REMARK    5  A    between atoms: C_16  and  N_17
REMARK                            x       y       z     vdW  Elec       q    Type
REMARK                         _______ _______ _______ _____ _____    ______ ____
ROOT
ATOM      1  N   UNL     1       0.804   9.950  19.953  0.00  0.00    +0.000 N 
ATOM      2  N   UNL     1       0.447   9.554  21.213  0.00  0.00    +0.000 NA
ATOM      3  C   UNL     1       0.908   8.305  21.325  0.00  0.00    +0.000 A 
ATOM      4  C   UNL     1       1.617   7.909  20.194  0.00  0.00    +0.000 A 
ATOM      5  C   UNL     1       2.342   6.731  19.833  0.00  0.00    +0.000 A 
ATOM      6  O   UNL     1       2.340   5.724  20.535  0.00  0.00    +0.000 OA
ATOM      7  N   UNL     1       3.024   6.845  18.609  0.00  0.00    +0.000 N 
ATOM      8  C   UNL     1       2.835   7.965  17.808  0.00  0.00    +0.000 A 
ATOM      9  N   UNL     1       2.130   9.019  18.095  0.00  0.00    +0.000 NA
ATOM     10  C   UNL     1       1.540   8.956  19.315  0.00  0.00    +0.000 A 
ENDROOT
BRANCH   1  17
ATOM     11  C   UNL     1      -1.694  10.200  18.319  0.00  0.00    +0.000 C 
ATOM     12  C   UNL     1      -0.753  11.338  18.612  0.00  0.00    +0.000 A 
ATOM     13  C   UNL     1      -1.075  12.610  18.104  0.00  0.00    +0.000 A 
ATOM     14  C   UNL     1      -0.296  13.728  18.402  0.00  0.00    +0.000 A 
ATOM     15  C   UNL     1       0.822  13.598  19.218  0.00  0.00    +0.000 A 
ATOM     16  C   UNL     1       1.162  12.348  19.734  0.00  0.00    +0.000 A 
ATOM     17  C   UNL     1       0.392  11.210  19.429  0.00  0.00    +0.000 A 
ENDBRANCH   1  17
BRANCH   7  18
ATOM     18  C   UNL     1       3.735   5.653  18.131  0.00  0.00    +0.000 C 
BRANCH  18  19
ATOM     19  C   UNL     1       2.836   4.528  17.584  0.00  0.00    +0.000 C 
BRANCH  19  20
ATOM     20  N   UNL     1       3.340   3.153  17.769  0.00  0.00    +0.000 NA
ATOM     21  C   UNL     1       2.210   2.225  17.981  0.00  0.00    +0.000 C 
ATOM     22  C   UNL     1       1.883   2.359  19.459  0.00  0.00    +0.000 C 
ATOM     23  C   UNL     1       3.252   2.500  20.099  0.00  0.00    +0.000 C 
ATOM     24  C   UNL     1       4.172   2.971  18.974  0.00  0.00    +0.000 C 
ENDBRANCH  19  20
ENDBRANCH  18  19
ENDBRANCH   7  18
TORSDOF 4
ENDMDL
MODEL 9
REMARK VINA RESULT:      -7.1      1.808      7.639
REMARK  Name = 
REMARK  5 active torsions:
REMARK  status: ('A' for Active; 'I' for Inactive)
REMARK    1  A    between atoms: C_1  and  C_2
REMARK    2  A    between atoms: C_7  and  N_8
REMARK    3  A    between atoms: N_14  and  C_15
REMARK    4  A    between atoms: C_15  and  C_16
REMARK    5  A    between atoms: C_16  and  N_17
REMARK                            x       y       z     vdW  Elec       q    Type
REMARK                         _______ _______ _______ _____ _____    ______ ____
ROOT
ATOM      1  N   UNL     1       3.618   5.805  18.668  0.00  0.00    +0.000 N 
ATOM      2  N   UNL     1       3.341   5.029  19.761  0.00  0.00    +0.000 NA
ATOM      3  C   UNL     1       2.558   5.788  20.533  0.00  0.00    +0.000 A 
ATOM      4  C   UNL     1       2.264   7.009  19.933  0.00  0.00    +0.000 A 
ATOM      5  C   UNL     1       1.449   8.127  20.294  0.00  0.00    +0.000 A 
ATOM      6  O   UNL     1       0.912   8.214  21.395  0.00  0.00    +0.000 OA
ATOM      7  N   UNL     1       1.350   9.099  19.284  0.00  0.00    +0.000 N 
ATOM      8  C   UNL     1       2.124   8.991  18.134  0.00  0.00    +0.000 A 
ATOM      9  N   UNL     1       2.916   8.010  17.818  0.00  0.00    +0.000 NA
ATOM     10  C   UNL     1       2.949   7.023  18.748  0.00  0.00    +0.000 A 
ENDROOT
BRANCH   1  17
ATOM     11  C   UNL     1       2.979   3.427  16.962  0.00  0.00    +0.000 C 
ATOM     12  C   UNL     1       4.260   4.212  16.879  0.00  0.00    +0.000 A 
ATOM     13  C   UNL     1       5.216   3.820  15.924  0.00  0.00    +0.000 A 
ATOM     14  C   UNL     1       6.390   4.547  15.733  0.00  0.00    +0.000 A 
ATOM     15  C   UNL     1       6.633   5.687  16.492  0.00  0.00    +0.000 A 
ATOM     16  C   UNL     1       5.702   6.096  17.444  0.00  0.00    +0.000 A 
ATOM     17  C   UNL     1       4.519   5.363  17.656  0.00  0.00    +0.000 A 
ENDBRANCH   1  17
BRANCH   7  18
ATOM     18  C   UNL     1       0.589  10.314  19.602  0.00  0.00    +0.000 C 
BRANCH  18  19
ATOM     19  C   UNL     1      -0.902  10.274  19.219  0.00  0.00    +0.000 C 
BRANCH  19  20
ATOM     20  N   UNL     1      -1.241  10.818  17.889  0.00  0.00    +0.000 NA
ATOM     21  C   UNL     1      -2.214  11.921  18.029  0.00  0.00    +0.000 C 
ATOM     22  C   UNL     1      -3.560  11.225  18.143  0.00  0.00    +0.000 C 
ATOM     23  C   UNL     1      -3.429  10.066  17.172  0.00  0.00    +0.000 C 
ATOM     24  C   UNL     1      -1.924   9.860  16.999  0.00  0.00    +0.000 C 
ENDBRANCH  19  20
ENDBRANCH  18  19
ENDBRANCH   7  18
TORSDOF 4
ENDMDL
