MODEL 1
REMARK VINA RESULT:      -7.9      0.000      0.000
REMARK  Name = 
REMARK  9 active torsions:
REMARK  status: ('A' for Active; 'I' for Inactive)
REMARK    1  A    between atoms: C_1  and  C_2
REMARK    2  A    between atoms: C_2  and  C_3
REMARK    3  A    between atoms: C_2  and  C_7
REMARK    4  A    between atoms: C_3  and  C_4
REMARK    5  A    between atoms: C_4  and  O_6
REMARK    6  A    between atoms: C_7  and  C_8
REMARK    7  A    between atoms: C_8  and  C_10
REMARK    8  A    between atoms: C_13  and  O_14
REMARK    9  A    between atoms: O_14  and  C_15
REMARK                            x       y       z     vdW  Elec       q    Type
REMARK                         _______ _______ _______ _____ _____    ______ ____
ROOT
ATOM      1  C   UNL     1       5.566   5.230  16.188  0.00  0.00    +0.000 A 
ATOM      2  C   UNL     1       4.742   4.139  16.495  0.00  0.00    +0.000 A 
ATOM      3  C   UNL     1       3.617   4.314  17.299  0.00  0.00    +0.000 A 
ATOM      4  C   UNL     1       3.309   5.576  17.806  0.00  0.00    +0.000 A 
ATOM      5  C   UNL     1       4.111   6.673  17.473  0.00  0.00    +0.000 A 
ATOM      6  C   UNL     1       5.259   6.496  16.697  0.00  0.00    +0.000 A 
ENDROOT
BRANCH   1   7
ATOM      7  C   UNL     1       6.753   5.085  15.302  0.00  0.00    +0.000 C 
ATOM      8  O   UNL     1       7.698   5.864  15.401  0.00  0.00    +0.000 OA
BRANCH   7   9
ATOM      9  C   UNL     1       6.728   3.991  14.251  0.00  0.00    +0.000 C 
BRANCH   9  11
ATOM     10  C   UNL     1       8.005   5.494  12.602  0.00  0.00    +0.000 C 
ATOM     11  C   UNL     1       6.836   4.525  12.815  0.00  0.00    +0.000 C 
BRANCH  11  12
ATOM     12  C   UNL     1       6.870   3.369  11.797  0.00  0.00    +0.000 C 
BRANCH  12  13
ATOM     13  C   UNL     1       5.570   2.597  11.642  0.00  0.00    +0.000 C 
ATOM     14  O   UNL     1       4.453   3.081  11.587  0.00  0.00    +0.000 OA
BRANCH  13  15
ATOM     15  O   UNL     1       5.776   1.262  11.561  0.00  0.00    +0.000 OA
ATOM     16  H   UNL     1       5.002   0.761  11.233  0.00  0.00    +0.000 HD
ENDBRANCH  13  15
ENDBRANCH  12  13
ENDBRANCH  11  12
ENDBRANCH   9  11
ENDBRANCH   7   9
ENDBRANCH   1   7
BRANCH   4  17
ATOM     17  O   UNL     1       2.168   5.647  18.570  0.00  0.00    +0.000 OA
BRANCH  17  18
ATOM     18  C   UNL     1       1.882   4.643  19.465  0.00  0.00    +0.000 A 
ATOM     19  C   UNL     1       2.487   4.753  20.718  0.00  0.00    +0.000 A 
ATOM     20  C   UNL     1       2.269   3.776  21.688  0.00  0.00    +0.000 A 
ATOM     21  C   UNL     1       1.446   2.684  21.406  0.00  0.00    +0.000 A 
ATOM     22  C   UNL     1       0.811   2.591  20.170  0.00  0.00    +0.000 A 
ATOM     23  C   UNL     1       1.004   3.585  19.210  0.00  0.00    +0.000 A 
ENDBRANCH  17  18
ENDBRANCH   4  17
TORSDOF 8
ENDMDL
MODEL 2
REMARK VINA RESULT:      -7.9      0.179      1.044
REMARK  Name = 
REMARK  9 active torsions:
REMARK  status: ('A' for Active; 'I' for Inactive)
REMARK    1  A    between atoms: C_1  and  C_2
REMARK    2  A    between atoms: C_2  and  C_3
REMARK    3  A    between atoms: C_2  and  C_7
REMARK    4  A    between atoms: C_3  and  C_4
REMARK    5  A    between atoms: C_4  and  O_6
REMARK    6  A    between atoms: C_7  and  C_8
REMARK    7  A    between atoms: C_8  and  C_10
REMARK    8  A    between atoms: C_13  and  O_14
REMARK    9  A    between atoms: O_14  and  C_15
REMARK                            x       y       z     vdW  Elec       q    Type
REMARK                         _______ _______ _______ _____ _____    ______ ____
ROOT
ATOM      1  C   UNL     1       5.555   5.275  16.161  0.00  0.00    +0.000 A 
ATOM      2  C   UNL     1       5.136   6.486  16.726  0.00  0.00    +0.000 A 
ATOM      3  C   UNL     1       3.991   6.531  17.521  0.00  0.00    +0.000 A 
ATOM      4  C   UNL     1       3.256   5.369  17.752  0.00  0.00    +0.000 A 
ATOM      5  C   UNL     1       3.691   4.152  17.217  0.00  0.00    +0.000 A 
ATOM      6  C   UNL     1       4.817   4.110  16.392  0.00  0.00    +0.000 A 
ENDROOT
BRANCH   1   7
ATOM      7  C   UNL     1       6.794   5.185  15.340  0.00  0.00    +0.000 C 
ATOM      8  O   UNL     1       7.716   5.976  15.523  0.00  0.00    +0.000 OA
BRANCH   7   9
ATOM      9  C   UNL     1       6.850   4.133  14.248  0.00  0.00    +0.000 C 
BRANCH   9  11
ATOM     10  C   UNL     1       8.200   5.614  12.638  0.00  0.00    +0.000 C 
ATOM     11  C   UNL     1       6.966   4.727  12.836  0.00  0.00    +0.000 C 
BRANCH  11  12
ATOM     12  C   UNL     1       6.887   3.622  11.765  0.00  0.00    +0.000 C 
BRANCH  12  13
ATOM     13  C   UNL     1       5.595   2.822  11.746  0.00  0.00    +0.000 C 
ATOM     14  O   UNL     1       4.467   3.284  11.754  0.00  0.00    +0.000 OA
BRANCH  13  15
ATOM     15  O   UNL     1       5.822   1.489  11.710  0.00  0.00    +0.000 OA
ATOM     16  H   UNL     1       6.503   1.185  12.344  0.00  0.00    +0.000 HD
ENDBRANCH  13  15
ENDBRANCH  12  13
ENDBRANCH  11  12
ENDBRANCH   9  11
ENDBRANCH   7   9
ENDBRANCH   1   7
BRANCH   4  17
ATOM     17  O   UNL     1       2.156   5.515  18.565  0.00  0.00    +0.000 OA
BRANCH  17  18
ATOM     18  C   UNL     1       1.861   4.546  19.495  0.00  0.00    +0.000 A 
ATOM     19  C   UNL     1       2.448   4.708  20.751  0.00  0.00    +0.000 A 
ATOM     20  C   UNL     1       2.219   3.769  21.756  0.00  0.00    +0.000 A 
ATOM     21  C   UNL     1       1.404   2.664  21.505  0.00  0.00    +0.000 A 
ATOM     22  C   UNL     1       0.787   2.519  20.266  0.00  0.00    +0.000 A 
ATOM     23  C   UNL     1       0.991   3.476  19.270  0.00  0.00    +0.000 A 
ENDBRANCH  17  18
ENDBRANCH   4  17
TORSDOF 8
ENDMDL
MODEL 3
REMARK VINA RESULT:      -7.9      2.043      7.600
REMARK  Name = 
REMARK  9 active torsions:
REMARK  status: ('A' for Active; 'I' for Inactive)
REMARK    1  A    between atoms: C_1  and  C_2
REMARK    2  A    between atoms: C_2  and  C_3
REMARK    3  A    between atoms: C_2  and  C_7
REMARK    4  A    between atoms: C_3  and  C_4
REMARK    5  A    between atoms: C_4  and  O_6
REMARK    6  A    between atoms: C_7  and  C_8
REMARK    7  A    between atoms: C_8  and  C_10
REMARK    8  A    between atoms: C_13  and  O_14
REMARK    9  A    between atoms: O_14  and  C_15
REMARK                            x       y       z     vdW  Elec       q    Type
REMARK                         _______ _______ _______ _____ _____    ______ ____
ROOT
ATOM      1  C   UNL     1       4.091   6.164  18.134  0.00  0.00    +0.000 A 
ATOM      2  C   UNL     1       4.269   6.881  16.943  0.00  0.00    +0.000 A 
ATOM      3  C   UNL     1       5.373   6.628  16.130  0.00  0.00    +0.000 A 
ATOM      4  C   UNL     1       6.308   5.663  16.502  0.00  0.00    +0.000 A 
ATOM      5  C   UNL     1       6.115   4.922  17.673  0.00  0.00    +0.000 A 
ATOM      6  C   UNL     1       5.028   5.197  18.507  0.00  0.00    +0.000 A 
ENDROOT
BRANCH   1   7
ATOM      7  C   UNL     1       2.904   6.383  19.005  0.00  0.00    +0.000 C 
ATOM      8  O   UNL     1       2.295   7.450  18.965  0.00  0.00    +0.000 OA
BRANCH   7   9
ATOM      9  C   UNL     1       2.514   5.278  19.968  0.00  0.00    +0.000 C 
BRANCH   9  11
ATOM     10  C   UNL     1       1.477   4.199  17.878  0.00  0.00    +0.000 C 
ATOM     11  C   UNL     1       1.445   4.329  19.405  0.00  0.00    +0.000 C 
BRANCH  11  12
ATOM     12  C   UNL     1       1.515   2.950  20.089  0.00  0.00    +0.000 C 
BRANCH  12  13
ATOM     13  C   UNL     1       2.540   2.826  21.204  0.00  0.00    +0.000 C 
ATOM     14  O   UNL     1       2.365   3.122  22.374  0.00  0.00    +0.000 OA
BRANCH  13  15
ATOM     15  O   UNL     1       3.718   2.328  20.761  0.00  0.00    +0.000 OA
ATOM     16  H   UNL     1       4.455   2.971  20.788  0.00  0.00    +0.000 HD
ENDBRANCH  13  15
ENDBRANCH  12  13
ENDBRANCH  11  12
ENDBRANCH   9  11
ENDBRANCH   7   9
ENDBRANCH   1   7
BRANCH   4  17
ATOM     17  O   UNL     1       7.348   5.475  15.622  0.00  0.00    +0.000 OA
BRANCH  17  18
ATOM     18  C   UNL     1       7.109   4.907  14.393  0.00  0.00    +0.000 A 
ATOM     19  C   UNL     1       6.078   3.968  14.345  0.00  0.00    +0.000 A 
ATOM     20  C   UNL     1       5.772   3.327  13.145  0.00  0.00    +0.000 A 
ATOM     21  C   UNL     1       6.497   3.623  11.991  0.00  0.00    +0.000 A 
ATOM     22  C   UNL     1       7.502   4.587  12.027  0.00  0.00    +0.000 A 
ATOM     23  C   UNL     1       7.788   5.251  13.220  0.00  0.00    +0.000 A 
ENDBRANCH  17  18
ENDBRANCH   4  17
TORSDOF 8
ENDMDL
MODEL 4
REMARK VINA RESULT:      -7.8      2.057      7.666
REMARK  Name = 
REMARK  9 active torsions:
REMARK  status: ('A' for Active; 'I' for Inactive)
REMARK    1  A    between atoms: C_1  and  C_2
REMARK    2  A    between atoms: C_2  and  C_3
REMARK    3  A    between atoms: C_2  and  C_7
REMARK    4  A    between atoms: C_3  and  C_4
REMARK    5  A    between atoms: C_4  and  O_6
REMARK    6  A    between atoms: C_7  and  C_8
REMARK    7  A    between atoms: C_8  and  C_10
REMARK    8  A    between atoms: C_13  and  O_14
REMARK    9  A    between atoms: O_14  and  C_15
REMARK                            x       y       z     vdW  Elec       q    Type
REMARK                         _______ _______ _______ _____ _____    ______ ____
ROOT
ATOM      1  C   UNL     1       4.321   5.496  18.088  0.00  0.00    +0.000 A 
ATOM      2  C   UNL     1       4.303   6.333  16.964  0.00  0.00    +0.000 A 
ATOM      3  C   UNL     1       5.368   6.322  16.065  0.00  0.00    +0.000 A 
ATOM      4  C   UNL     1       6.459   5.483  16.283  0.00  0.00    +0.000 A 
ATOM      5  C   UNL     1       6.464   4.622  17.386  0.00  0.00    +0.000 A 
ATOM      6  C   UNL     1       5.415   4.654  18.307  0.00  0.00    +0.000 A 
ENDROOT
BRANCH   1   7
ATOM      7  C   UNL     1       3.182   5.453  19.046  0.00  0.00    +0.000 C 
ATOM      8  O   UNL     1       3.307   5.921  20.175  0.00  0.00    +0.000 OA
BRANCH   7   9
ATOM      9  C   UNL     1       1.902   4.772  18.601  0.00  0.00    +0.000 C 
BRANCH   9  11
ATOM     10  C   UNL     1       2.553   2.580  17.427  0.00  0.00    +0.000 C 
ATOM     11  C   UNL     1       1.968   3.240  18.681  0.00  0.00    +0.000 C 
BRANCH  11  12
ATOM     12  C   UNL     1       2.708   2.786  19.954  0.00  0.00    +0.000 C 
BRANCH  12  13
ATOM     13  C   UNL     1       1.907   2.876  21.242  0.00  0.00    +0.000 C 
ATOM     14  O   UNL     1       2.367   2.965  22.367  0.00  0.00    +0.000 OA
BRANCH  13  15
ATOM     15  O   UNL     1       0.573   2.854  21.015  0.00  0.00    +0.000 OA
ATOM     16  H   UNL     1       0.059   2.411  21.719  0.00  0.00    +0.000 HD
ENDBRANCH  13  15
ENDBRANCH  12  13
ENDBRANCH  11  12
ENDBRANCH   9  11
ENDBRANCH   7   9
ENDBRANCH   1   7
BRANCH   4  17
ATOM     17  O   UNL     1       7.447   5.533  15.328  0.00  0.00    +0.000 OA
BRANCH  17  18
ATOM     18  C   UNL     1       7.234   4.968  14.093  0.00  0.00    +0.000 A 
ATOM     19  C   UNL     1       6.258   3.971  14.040  0.00  0.00    +0.000 A 
ATOM     20  C   UNL     1       5.981   3.328  12.834  0.00  0.00    +0.000 A 
ATOM     21  C   UNL     1       6.681   3.680  11.679  0.00  0.00    +0.000 A 
ATOM     22  C   UNL     1       7.628   4.700  11.721  0.00  0.00    +0.000 A 
ATOM     23  C   UNL     1       7.883   5.365  12.921  0.00  0.00    +0.000 A 
ENDBRANCH  17  18
ENDBRANCH   4  17
TORSDOF 8
ENDMDL
MODEL 5
REMARK VINA RESULT:      -7.8      2.146      7.130
REMARK  Name = 
REMARK  9 active torsions:
REMARK  status: ('A' for Active; 'I' for Inactive)
REMARK    1  A    between atoms: C_1  and  C_2
REMARK    2  A    between atoms: C_2  and  C_3
REMARK    3  A    between atoms: C_2  and  C_7
REMARK    4  A    between atoms: C_3  and  C_4
REMARK    5  A    between atoms: C_4  and  O_6
REMARK    6  A    between atoms: C_7  and  C_8
REMARK    7  A    between atoms: C_8  and  C_10
REMARK    8  A    between atoms: C_13  and  O_14
REMARK    9  A    between atoms: O_14  and  C_15
REMARK                            x       y       z     vdW  Elec       q    Type
REMARK                         _______ _______ _______ _____ _____    ______ ____
ROOT
ATOM      1  C   UNL     1       4.189   5.850  18.519  0.00  0.00    +0.000 A 
ATOM      2  C   UNL     1       5.395   5.200  18.812  0.00  0.00    +0.000 A 
ATOM      3  C   UNL     1       6.402   5.123  17.851  0.00  0.00    +0.000 A 
ATOM      4  C   UNL     1       6.210   5.687  16.591  0.00  0.00    +0.000 A 
ATOM      5  C   UNL     1       5.020   6.366  16.307  0.00  0.00    +0.000 A 
ATOM      6  C   UNL     1       3.996   6.416  17.256  0.00  0.00    +0.000 A 
ENDROOT
BRANCH   1   7
ATOM      7  C   UNL     1       3.109   5.985  19.535  0.00  0.00    +0.000 C 
ATOM      8  O   UNL     1       2.522   7.055  19.675  0.00  0.00    +0.000 OA
BRANCH   7   9
ATOM      9  C   UNL     1       2.805   4.786  20.414  0.00  0.00    +0.000 C 
BRANCH   9  11
ATOM     10  C   UNL     1       1.427   4.162  18.335  0.00  0.00    +0.000 C 
ATOM     11  C   UNL     1       1.849   3.779  19.758  0.00  0.00    +0.000 C 
BRANCH  11  12
ATOM     12  C   UNL     1       2.430   2.352  19.809  0.00  0.00    +0.000 C 
BRANCH  12  13
ATOM     13  C   UNL     1       3.718   2.145  19.029  0.00  0.00    +0.000 C 
ATOM     14  O   UNL     1       3.826   2.135  17.815  0.00  0.00    +0.000 OA
BRANCH  13  15
ATOM     15  O   UNL     1       4.785   1.971  19.844  0.00  0.00    +0.000 OA
ATOM     16  H   UNL     1       5.546   2.548  19.628  0.00  0.00    +0.000 HD
ENDBRANCH  13  15
ENDBRANCH  12  13
ENDBRANCH  11  12
ENDBRANCH   9  11
ENDBRANCH   7   9
ENDBRANCH   1   7
BRANCH   4  17
ATOM     17  O   UNL     1       7.270   5.574  15.722  0.00  0.00    +0.000 OA
BRANCH  17  18
ATOM     18  C   UNL     1       7.086   4.991  14.491  0.00  0.00    +0.000 A 
ATOM     19  C   UNL     1       7.844   5.521  13.446  0.00  0.00    +0.000 A 
ATOM     20  C   UNL     1       7.715   5.005  12.157  0.00  0.00    +0.000 A 
ATOM     21  C   UNL     1       6.825   3.959  11.910  0.00  0.00    +0.000 A 
ATOM     22  C   UNL     1       6.095   3.403  12.958  0.00  0.00    +0.000 A 
ATOM     23  C   UNL     1       6.247   3.898  14.253  0.00  0.00    +0.000 A 
ENDBRANCH  17  18
ENDBRANCH   4  17
TORSDOF 8
ENDMDL
MODEL 6
REMARK VINA RESULT:      -7.8      4.893      7.398
REMARK  Name = 
REMARK  9 active torsions:
REMARK  status: ('A' for Active; 'I' for Inactive)
REMARK    1  A    between atoms: C_1  and  C_2
REMARK    2  A    between atoms: C_2  and  C_3
REMARK    3  A    between atoms: C_2  and  C_7
REMARK    4  A    between atoms: C_3  and  C_4
REMARK    5  A    between atoms: C_4  and  O_6
REMARK    6  A    between atoms: C_7  and  C_8
REMARK    7  A    between atoms: C_8  and  C_10
REMARK    8  A    between atoms: C_13  and  O_14
REMARK    9  A    between atoms: O_14  and  C_15
REMARK                            x       y       z     vdW  Elec       q    Type
REMARK                         _______ _______ _______ _____ _____    ______ ____
ROOT
ATOM      1  C   UNL     1       2.519   7.205  19.031  0.00  0.00    +0.000 A 
ATOM      2  C   UNL     1       1.790   7.642  20.145  0.00  0.00    +0.000 A 
ATOM      3  C   UNL     1       1.125   8.866  20.112  0.00  0.00    +0.000 A 
ATOM      4  C   UNL     1       1.187   9.665  18.971  0.00  0.00    +0.000 A 
ATOM      5  C   UNL     1       1.885   9.216  17.845  0.00  0.00    +0.000 A 
ATOM      6  C   UNL     1       2.582   8.005  17.886  0.00  0.00    +0.000 A 
ENDROOT
BRANCH   1   7
ATOM      7  C   UNL     1       3.209   5.885  19.019  0.00  0.00    +0.000 C 
ATOM      8  O   UNL     1       4.431   5.825  19.125  0.00  0.00    +0.000 OA
BRANCH   7   9
ATOM      9  C   UNL     1       2.363   4.642  18.818  0.00  0.00    +0.000 C 
BRANCH   9  11
ATOM     10  C   UNL     1       0.985   3.433  20.621  0.00  0.00    +0.000 C 
ATOM     11  C   UNL     1       2.374   3.697  20.029  0.00  0.00    +0.000 C 
BRANCH  11  12
ATOM     12  C   UNL     1       3.104   2.381  19.696  0.00  0.00    +0.000 C 
BRANCH  12  13
ATOM     13  C   UNL     1       4.565   2.322  20.110  0.00  0.00    +0.000 C 
ATOM     14  O   UNL     1       5.013   1.723  21.072  0.00  0.00    +0.000 OA
BRANCH  13  15
ATOM     15  O   UNL     1       5.362   3.022  19.269  0.00  0.00    +0.000 OA
ATOM     16  H   UNL     1       6.294   3.078  19.562  0.00  0.00    +0.000 HD
ENDBRANCH  13  15
ENDBRANCH  12  13
ENDBRANCH  11  12
ENDBRANCH   9  11
ENDBRANCH   7   9
ENDBRANCH   1   7
BRANCH   4  17
ATOM     17  O   UNL     1       0.480  10.843  19.032  0.00  0.00    +0.000 OA
BRANCH  17  18
ATOM     18  C   UNL     1      -0.839  10.869  18.647  0.00  0.00    +0.000 A 
ATOM     19  C   UNL     1      -1.642  11.813  19.289  0.00  0.00    +0.000 A 
ATOM     20  C   UNL     1      -2.998  11.906  18.976  0.00  0.00    +0.000 A 
ATOM     21  C   UNL     1      -3.554  11.052  18.022  0.00  0.00    +0.000 A 
ATOM     22  C   UNL     1      -2.748  10.135  17.353  0.00  0.00    +0.000 A 
ATOM     23  C   UNL     1      -1.385  10.063  17.644  0.00  0.00    +0.000 A 
ENDBRANCH  17  18
ENDBRANCH   4  17
TORSDOF 8
ENDMDL
MODEL 7
REMARK VINA RESULT:      -7.7      4.820      7.281
REMARK  Name = 
REMARK  9 active torsions:
REMARK  status: ('A' for Active; 'I' for Inactive)
REMARK    1  A    between atoms: C_1  and  C_2
REMARK    2  A    between atoms: C_2  and  C_3
REMARK    3  A    between atoms: C_2  and  C_7
REMARK    4  A    between atoms: C_3  and  C_4
REMARK    5  A    between atoms: C_4  and  O_6
REMARK    6  A    between atoms: C_7  and  C_8
REMARK    7  A    between atoms: C_8  and  C_10
REMARK    8  A    between atoms: C_13  and  O_14
REMARK    9  A    between atoms: O_14  and  C_15
REMARK                            x       y       z     vdW  Elec       q    Type
REMARK                         _______ _______ _______ _____ _____    ______ ____
ROOT
ATOM      1  C   UNL     1       2.308   7.215  19.544  0.00  0.00    +0.000 A 
ATOM      2  C   UNL     1       1.565   7.963  20.468  0.00  0.00    +0.000 A 
ATOM      3  C   UNL     1       0.950   9.151  20.076  0.00  0.00    +0.000 A 
ATOM      4  C   UNL     1       1.076   9.604  18.764  0.00  0.00    +0.000 A 
ATOM      5  C   UNL     1       1.789   8.843  17.831  0.00  0.00    +0.000 A 
ATOM      6  C   UNL     1       2.435   7.669  18.228  0.00  0.00    +0.000 A 
ENDROOT
BRANCH   1   7
ATOM      7  C   UNL     1       2.945   5.923  19.919  0.00  0.00    +0.000 C 
ATOM      8  O   UNL     1       4.098   5.679  19.573  0.00  0.00    +0.000 OA
BRANCH   7   9
ATOM      9  C   UNL     1       2.110   4.913  20.684  0.00  0.00    +0.000 C 
BRANCH   9  11
ATOM     10  C   UNL     1       1.676   3.924  18.352  0.00  0.00    +0.000 C 
ATOM     11  C   UNL     1       1.758   3.666  19.860  0.00  0.00    +0.000 C 
BRANCH  11  12
ATOM     12  C   UNL     1       2.717   2.503  20.182  0.00  0.00    +0.000 C 
BRANCH  12  13
ATOM     13  C   UNL     1       3.746   2.191  19.109  0.00  0.00    +0.000 C 
ATOM     14  O   UNL     1       3.590   1.435  18.166  0.00  0.00    +0.000 OA
BRANCH  13  15
ATOM     15  O   UNL     1       4.904   2.866  19.301  0.00  0.00    +0.000 OA
ATOM     16  H   UNL     1       4.780   3.816  19.500  0.00  0.00    +0.000 HD
ENDBRANCH  13  15
ENDBRANCH  12  13
ENDBRANCH  11  12
ENDBRANCH   9  11
ENDBRANCH   7   9
ENDBRANCH   1   7
BRANCH   4  17
ATOM     17  O   UNL     1       0.415  10.774  18.474  0.00  0.00    +0.000 OA
BRANCH  17  18
ATOM     18  C   UNL     1      -0.940  10.754  18.240  0.00  0.00    +0.000 A 
ATOM     19  C   UNL     1      -1.691  11.704  18.933  0.00  0.00    +0.000 A 
ATOM     20  C   UNL     1      -3.076  11.752  18.772  0.00  0.00    +0.000 A 
ATOM     21  C   UNL     1      -3.711  10.849  17.919  0.00  0.00    +0.000 A 
ATOM     22  C   UNL     1      -2.960   9.925  17.197  0.00  0.00    +0.000 A 
ATOM     23  C   UNL     1      -1.571   9.897  17.334  0.00  0.00    +0.000 A 
ENDBRANCH  17  18
ENDBRANCH   4  17
TORSDOF 8
ENDMDL
MODEL 8
REMARK VINA RESULT:      -7.6      2.119      7.277
REMARK  Name = 
REMARK  9 active torsions:
REMARK  status: ('A' for Active; 'I' for Inactive)
REMARK    1  A    between atoms: C_1  and  C_2
REMARK    2  A    between atoms: C_2  and  C_3
REMARK    3  A    between atoms: C_2  and  C_7
REMARK    4  A    between atoms: C_3  and  C_4
REMARK    5  A    between atoms: C_4  and  O_6
REMARK    6  A    between atoms: C_7  and  C_8
REMARK    7  A    between atoms: C_8  and  C_10
REMARK    8  A    between atoms: C_13  and  O_14
REMARK    9  A    between atoms: O_14  and  C_15
REMARK                            x       y       z     vdW  Elec       q    Type
REMARK                         _______ _______ _______ _____ _____    ______ ____
ROOT
ATOM      1  C   UNL     1       4.250   5.910  18.350  0.00  0.00    +0.000 A 
ATOM      2  C   UNL     1       5.398   5.156  18.629  0.00  0.00    +0.000 A 
ATOM      3  C   UNL     1       6.414   5.049  17.680  0.00  0.00    +0.000 A 
ATOM      4  C   UNL     1       6.289   5.687  16.447  0.00  0.00    +0.000 A 
ATOM      5  C   UNL     1       5.160   6.468  16.179  0.00  0.00    +0.000 A 
ATOM      6  C   UNL     1       4.124   6.550  17.114  0.00  0.00    +0.000 A 
ENDROOT
BRANCH   1   7
ATOM      7  C   UNL     1       3.164   6.076  19.355  0.00  0.00    +0.000 C 
ATOM      8  O   UNL     1       2.622   7.169  19.504  0.00  0.00    +0.000 OA
BRANCH   7   9
ATOM      9  C   UNL     1       2.797   4.879  20.212  0.00  0.00    +0.000 C 
BRANCH   9  11
ATOM     10  C   UNL     1       1.538   4.247  18.063  0.00  0.00    +0.000 C 
ATOM     11  C   UNL     1       1.776   3.945  19.547  0.00  0.00    +0.000 C 
BRANCH  11  12
ATOM     12  C   UNL     1       2.154   2.467  19.768  0.00  0.00    +0.000 C 
BRANCH  12  13
ATOM     13  C   UNL     1       3.640   2.191  19.925  0.00  0.00    +0.000 C 
ATOM     14  O   UNL     1       4.256   2.165  20.977  0.00  0.00    +0.000 OA
BRANCH  13  15
ATOM     15  O   UNL     1       4.244   1.957  18.737  0.00  0.00    +0.000 OA
ATOM     16  H   UNL     1       3.813   2.400  17.979  0.00  0.00    +0.000 HD
ENDBRANCH  13  15
ENDBRANCH  12  13
ENDBRANCH  11  12
ENDBRANCH   9  11
ENDBRANCH   7   9
ENDBRANCH   1   7
BRANCH   4  17
ATOM     17  O   UNL     1       7.354   5.537  15.591  0.00  0.00    +0.000 OA
BRANCH  17  18
ATOM     18  C   UNL     1       7.158   4.981  14.348  0.00  0.00    +0.000 A 
ATOM     19  C   UNL     1       6.188   3.981  14.274  0.00  0.00    +0.000 A 
ATOM     20  C   UNL     1       5.929   3.347  13.059  0.00  0.00    +0.000 A 
ATOM     21  C   UNL     1       6.642   3.712  11.916  0.00  0.00    +0.000 A 
ATOM     22  C   UNL     1       7.584   4.735  11.979  0.00  0.00    +0.000 A 
ATOM     23  C   UNL     1       7.821   5.391  13.187  0.00  0.00    +0.000 A 
ENDBRANCH  17  18
ENDBRANCH   4  17
TORSDOF 8
ENDMDL
MODEL 9
REMARK VINA RESULT:      -7.6      4.969      7.418
REMARK  Name = 
REMARK  9 active torsions:
REMARK  status: ('A' for Active; 'I' for Inactive)
REMARK    1  A    between atoms: C_1  and  C_2
REMARK    2  A    between atoms: C_2  and  C_3
REMARK    3  A    between atoms: C_2  and  C_7
REMARK    4  A    between atoms: C_3  and  C_4
REMARK    5  A    between atoms: C_4  and  O_6
REMARK    6  A    between atoms: C_7  and  C_8
REMARK    7  A    between atoms: C_8  and  C_10
REMARK    8  A    between atoms: C_13  and  O_14
REMARK    9  A    between atoms: O_14  and  C_15
REMARK                            x       y       z     vdW  Elec       q    Type
REMARK                         _______ _______ _______ _____ _____    ______ ____
ROOT
ATOM      1  C   UNL     1       2.374   7.210  19.092  0.00  0.00    +0.000 A 
ATOM      2  C   UNL     1       2.371   7.957  17.906  0.00  0.00    +0.000 A 
ATOM      3  C   UNL     1       1.724   9.190  17.856  0.00  0.00    +0.000 A 
ATOM      4  C   UNL     1       1.071   9.684  18.985  0.00  0.00    +0.000 A 
ATOM      5  C   UNL     1       1.101   8.956  20.179  0.00  0.00    +0.000 A 
ATOM      6  C   UNL     1       1.720   7.704  20.224  0.00  0.00    +0.000 A 
ENDROOT
BRANCH   1   7
ATOM      7  C   UNL     1       3.089   5.908  19.191  0.00  0.00    +0.000 C 
ATOM      8  O   UNL     1       4.250   5.868  19.593  0.00  0.00    +0.000 OA
BRANCH   7   9
ATOM      9  C   UNL     1       2.361   4.659  18.732  0.00  0.00    +0.000 C 
BRANCH   9  11
ATOM     10  C   UNL     1       0.852   3.187  20.203  0.00  0.00    +0.000 C 
ATOM     11  C   UNL     1       2.284   3.569  19.811  0.00  0.00    +0.000 C 
BRANCH  11  12
ATOM     12  C   UNL     1       3.106   2.330  19.403  0.00  0.00    +0.000 C 
BRANCH  12  13
ATOM     13  C   UNL     1       4.562   2.343  19.835  0.00  0.00    +0.000 C 
ATOM     14  O   UNL     1       5.023   1.789  20.818  0.00  0.00    +0.000 OA
BRANCH  13  15
ATOM     15  O   UNL     1       5.340   3.054  18.986  0.00  0.00    +0.000 OA
ATOM     16  H   UNL     1       5.496   2.611  18.127  0.00  0.00    +0.000 HD
ENDBRANCH  13  15
ENDBRANCH  12  13
ENDBRANCH  11  12
ENDBRANCH   9  11
ENDBRANCH   7   9
ENDBRANCH   1   7
BRANCH   4  17
ATOM     17  O   UNL     1       0.481  10.917  18.838  0.00  0.00    +0.000 OA
BRANCH  17  18
ATOM     18  C   UNL     1      -0.874  11.005  18.620  0.00  0.00    +0.000 A 
ATOM     19  C   UNL     1      -1.557  11.939  19.399  0.00  0.00    +0.000 A 
ATOM     20  C   UNL     1      -2.936  12.091  19.260  0.00  0.00    +0.000 A 
ATOM     21  C   UNL     1      -3.635  11.305  18.342  0.00  0.00    +0.000 A 
ATOM     22  C   UNL     1      -2.951  10.398  17.537  0.00  0.00    +0.000 A 
ATOM     23  C   UNL     1      -1.567  10.269  17.653  0.00  0.00    +0.000 A 
ENDBRANCH  17  18
ENDBRANCH   4  17
TORSDOF 8
ENDMDL
