MODEL 1
REMARK VINA RESULT:      -7.6      0.000      0.000
REMARK  Name = 
REMARK  15 active torsions:
REMARK  status: ('A' for Active; 'I' for Inactive)
REMARK    1  A    between atoms: C_1  and  N_2
REMARK    2  A    between atoms: N_2  and  C_3
REMARK    3  A    between atoms: N_2  and  C_4
REMARK    4  A    between atoms: C_4  and  C_5
REMARK    5  A    between atoms: C_10  and  C_11
REMARK    6  A    between atoms: C_14  and  N_15
REMARK    7  A    between atoms: N_15  and  C_16
REMARK    8  A    between atoms: C_16  and  C_17
REMARK    9  A    between atoms: C_17  and  N_18
REMARK   10  A    between atoms: C_24  and  O_25
REMARK   11  A    between atoms: O_25  and  C_26
REMARK   12  A    between atoms: C_26  and  C_27
REMARK   13  A    between atoms: C_27  and  C_28
REMARK   14  A    between atoms: C_28  and  C_29
REMARK   15  A    between atoms: C_29  and  N_30
REMARK                            x       y       z     vdW  Elec       q    Type
REMARK                         _______ _______ _______ _____ _____    ______ ____
ROOT
ATOM      1  C   UNL     1       2.162   6.210  19.405  0.00  0.00    +0.000 A 
ATOM      2  C   UNL     1       2.430   7.052  18.331  0.00  0.00    +0.000 A 
ATOM      3  C   UNL     1       2.082   8.399  18.368  0.00  0.00    +0.000 A 
ATOM      4  C   UNL     1       1.625   9.021  19.538  0.00  0.00    +0.000 A 
ATOM      5  C   UNL     1       1.474   8.209  20.680  0.00  0.00    +0.000 A 
ATOM      6  C   UNL     1       1.689   6.821  20.579  0.00  0.00    +0.000 A 
ENDROOT
BRANCH   1  12
ATOM      7  C   UNL     1       3.590   4.083  19.207  0.00  0.00    +0.000 A 
ATOM      8  C   UNL     1       3.630   2.671  19.146  0.00  0.00    +0.000 A 
ATOM      9  C   UNL     1       2.459   1.915  19.115  0.00  0.00    +0.000 A 
ATOM     10  C   UNL     1       1.225   2.542  19.203  0.00  0.00    +0.000 A 
ATOM     11  C   UNL     1       1.165   3.930  19.326  0.00  0.00    +0.000 A 
ATOM     12  C   UNL     1       2.329   4.734  19.322  0.00  0.00    +0.000 A 
BRANCH   7  13
ATOM     13  C   UNL     1       4.910   4.854  19.225  0.00  0.00    +0.000 C 
BRANCH  13  15
ATOM     14  C   UNL     1       4.790   4.750  16.810  0.00  0.00    +0.000 C 
ATOM     15  N   UNL     1       5.677   4.937  17.962  0.00  0.00    +0.000 NA
ATOM     16  C   UNL     1       6.288   6.274  17.880  0.00  0.00    +0.000 C 
ENDBRANCH  13  15
ENDBRANCH   7  13
ENDBRANCH   1  12
BRANCH   4  17
ATOM     17  N   UNL     1       1.234  10.371  19.529  0.00  0.00    +0.000 N 
ATOM     18  H   UNL     1       1.984  10.999  19.826  0.00  0.00    +0.000 HD
BRANCH  17  19
ATOM     19  C   UNL     1       0.435  10.848  18.399  0.00  0.00    +0.000 C 
BRANCH  19  20
ATOM     20  C   UNL     1      -0.891  10.096  18.207  0.00  0.00    +0.000 C 
BRANCH  20  21
ATOM     21  N   UNL     1      -1.994  10.866  17.596  0.00  0.00    +0.000 NA
ATOM     22  C   UNL     1      -2.572  10.185  16.426  0.00  0.00    +0.000 C 
ATOM     23  C   UNL     1      -3.727  10.984  15.820  0.00  0.00    +0.000 C 
ATOM     24  C   UNL     1      -4.800  11.281  16.856  0.00  0.00    +0.000 C 
ATOM     25  C   UNL     1      -4.180  11.937  18.083  0.00  0.00    +0.000 C 
ATOM     26  C   UNL     1      -3.023  11.100  18.624  0.00  0.00    +0.000 C 
ENDBRANCH  20  21
ENDBRANCH  19  20
ENDBRANCH  17  19
ENDBRANCH   4  17
BRANCH   5  27
ATOM     27  O   UNL     1       1.049   8.803  21.850  0.00  0.00    +0.000 OA
BRANCH  27  28
ATOM     28  C   UNL     1      -0.375   8.867  22.031  0.00  0.00    +0.000 C 
BRANCH  28  29
ATOM     29  C   UNL     1      -0.719   9.982  23.014  0.00  0.00    +0.000 C 
BRANCH  29  30
ATOM     30  C   UNL     1      -0.713  11.351  22.321  0.00  0.00    +0.000 C 
BRANCH  30  31
ATOM     31  C   UNL     1      -1.455  12.425  23.124  0.00  0.00    +0.000 C 
BRANCH  31  32
ATOM     32  N   UNL     1      -2.919  12.292  23.074  0.00  0.00    +0.000 NA
ATOM     33  C   UNL     1      -3.570  12.799  24.294  0.00  0.00    +0.000 C 
ATOM     34  C   UNL     1      -5.077  12.559  24.250  0.00  0.00    +0.000 C 
ATOM     35  C   UNL     1      -5.700  13.180  23.007  0.00  0.00    +0.000 C 
ATOM     36  C   UNL     1      -4.965  12.716  21.756  0.00  0.00    +0.000 C 
ATOM     37  C   UNL     1      -3.459  12.948  21.876  0.00  0.00    +0.000 C 
ENDBRANCH  31  32
ENDBRANCH  30  31
ENDBRANCH  29  30
ENDBRANCH  28  29
ENDBRANCH  27  28
ENDBRANCH   5  27
TORSDOF 13
ENDMDL
MODEL 2
REMARK VINA RESULT:      -7.5      1.791      2.791
REMARK  Name = 
REMARK  15 active torsions:
REMARK  status: ('A' for Active; 'I' for Inactive)
REMARK    1  A    between atoms: C_1  and  N_2
REMARK    2  A    between atoms: N_2  and  C_3
REMARK    3  A    between atoms: N_2  and  C_4
REMARK    4  A    between atoms: C_4  and  C_5
REMARK    5  A    between atoms: C_10  and  C_11
REMARK    6  A    between atoms: C_14  and  N_15
REMARK    7  A    between atoms: N_15  and  C_16
REMARK    8  A    between atoms: C_16  and  C_17
REMARK    9  A    between atoms: C_17  and  N_18
REMARK   10  A    between atoms: C_24  and  O_25
REMARK   11  A    between atoms: O_25  and  C_26
REMARK   12  A    between atoms: C_26  and  C_27
REMARK   13  A    between atoms: C_27  and  C_28
REMARK   14  A    between atoms: C_28  and  C_29
REMARK   15  A    between atoms: C_29  and  N_30
REMARK                            x       y       z     vdW  Elec       q    Type
REMARK                         _______ _______ _______ _____ _____    ______ ____
ROOT
ATOM      1  C   UNL     1       2.094   6.760  19.735  0.00  0.00    +0.000 A 
ATOM      2  C   UNL     1       2.278   7.403  18.515  0.00  0.00    +0.000 A 
ATOM      3  C   UNL     1       1.893   8.728  18.335  0.00  0.00    +0.000 A 
ATOM      4  C   UNL     1       1.483   9.540  19.402  0.00  0.00    +0.000 A 
ATOM      5  C   UNL     1       1.419   8.941  20.676  0.00  0.00    +0.000 A 
ATOM      6  C   UNL     1       1.669   7.561  20.809  0.00  0.00    +0.000 A 
ENDROOT
BRANCH   1  12
ATOM      7  C   UNL     1       3.533   4.633  19.641  0.00  0.00    +0.000 A 
ATOM      8  C   UNL     1       3.617   3.237  19.847  0.00  0.00    +0.000 A 
ATOM      9  C   UNL     1       2.499   2.492  20.222  0.00  0.00    +0.000 A 
ATOM     10  C   UNL     1       1.289   3.127  20.458  0.00  0.00    +0.000 A 
ATOM     11  C   UNL     1       1.200   4.513  20.320  0.00  0.00    +0.000 A 
ATOM     12  C   UNL     1       2.300   5.297  19.904  0.00  0.00    +0.000 A 
BRANCH   7  13
ATOM     13  C   UNL     1       4.792   5.389  19.218  0.00  0.00    +0.000 C 
BRANCH  13  15
ATOM     14  C   UNL     1       5.483   6.694  17.300  0.00  0.00    +0.000 C 
ATOM     15  N   UNL     1       5.174   5.347  17.789  0.00  0.00    +0.000 NA
ATOM     16  C   UNL     1       6.376   4.506  17.657  0.00  0.00    +0.000 C 
ENDBRANCH  13  15
ENDBRANCH   7  13
ENDBRANCH   1  12
BRANCH   4  17
ATOM     17  N   UNL     1       1.051  10.859  19.178  0.00  0.00    +0.000 N 
ATOM     18  H   UNL     1       1.826  11.495  18.975  0.00  0.00    +0.000 HD
BRANCH  17  19
ATOM     19  C   UNL     1      -0.149  11.061  18.365  0.00  0.00    +0.000 C 
BRANCH  19  20
ATOM     20  C   UNL     1      -1.393  10.330  18.890  0.00  0.00    +0.000 C 
BRANCH  20  21
ATOM     21  N   UNL     1      -2.522  10.204  17.945  0.00  0.00    +0.000 NA
ATOM     22  C   UNL     1      -3.350  11.421  17.897  0.00  0.00    +0.000 C 
ATOM     23  C   UNL     1      -4.500  11.283  16.898  0.00  0.00    +0.000 C 
ATOM     24  C   UNL     1      -3.989  10.922  15.510  0.00  0.00    +0.000 C 
ATOM     25  C   UNL     1      -3.091   9.694  15.584  0.00  0.00    +0.000 C 
ATOM     26  C   UNL     1      -1.980   9.890  16.612  0.00  0.00    +0.000 C 
ENDBRANCH  20  21
ENDBRANCH  19  20
ENDBRANCH  17  19
ENDBRANCH   4  17
BRANCH   5  27
ATOM     27  O   UNL     1       1.042   9.725  21.746  0.00  0.00    +0.000 OA
BRANCH  27  28
ATOM     28  C   UNL     1      -0.021   9.198  22.557  0.00  0.00    +0.000 C 
BRANCH  28  29
ATOM     29  C   UNL     1      -1.075  10.277  22.787  0.00  0.00    +0.000 C 
BRANCH  29  30
ATOM     30  C   UNL     1      -0.469  11.680  22.649  0.00  0.00    +0.000 C 
BRANCH  30  31
ATOM     31  C   UNL     1      -1.260  12.577  21.690  0.00  0.00    +0.000 C 
BRANCH  31  32
ATOM     32  N   UNL     1      -0.417  13.282  20.713  0.00  0.00    +0.000 NA
ATOM     33  C   UNL     1      -1.128  14.393  20.058  0.00  0.00    +0.000 C 
ATOM     34  C   UNL     1      -0.257  15.043  18.985  0.00  0.00    +0.000 C 
ATOM     35  C   UNL     1       1.070  15.516  19.562  0.00  0.00    +0.000 C 
ATOM     36  C   UNL     1       1.758  14.382  20.311  0.00  0.00    +0.000 C 
ATOM     37  C   UNL     1       0.825  13.749  21.343  0.00  0.00    +0.000 C 
ENDBRANCH  31  32
ENDBRANCH  30  31
ENDBRANCH  29  30
ENDBRANCH  28  29
ENDBRANCH  27  28
ENDBRANCH   5  27
TORSDOF 13
ENDMDL
MODEL 3
REMARK VINA RESULT:      -7.5      1.352      1.998
REMARK  Name = 
REMARK  15 active torsions:
REMARK  status: ('A' for Active; 'I' for Inactive)
REMARK    1  A    between atoms: C_1  and  N_2
REMARK    2  A    between atoms: N_2  and  C_3
REMARK    3  A    between atoms: N_2  and  C_4
REMARK    4  A    between atoms: C_4  and  C_5
REMARK    5  A    between atoms: C_10  and  C_11
REMARK    6  A    between atoms: C_14  and  N_15
REMARK    7  A    between atoms: N_15  and  C_16
REMARK    8  A    between atoms: C_16  and  C_17
REMARK    9  A    between atoms: C_17  and  N_18
REMARK   10  A    between atoms: C_24  and  O_25
REMARK   11  A    between atoms: O_25  and  C_26
REMARK   12  A    between atoms: C_26  and  C_27
REMARK   13  A    between atoms: C_27  and  C_28
REMARK   14  A    between atoms: C_28  and  C_29
REMARK   15  A    between atoms: C_29  and  N_30
REMARK                            x       y       z     vdW  Elec       q    Type
REMARK                         _______ _______ _______ _____ _____    ______ ____
ROOT
ATOM      1  C   UNL     1       2.302   6.723  19.523  0.00  0.00    +0.000 A 
ATOM      2  C   UNL     1       2.507   7.198  18.232  0.00  0.00    +0.000 A 
ATOM      3  C   UNL     1       2.037   8.449  17.842  0.00  0.00    +0.000 A 
ATOM      4  C   UNL     1       1.508   9.368  18.760  0.00  0.00    +0.000 A 
ATOM      5  C   UNL     1       1.416   8.953  20.103  0.00  0.00    +0.000 A 
ATOM      6  C   UNL     1       1.759   7.631  20.448  0.00  0.00    +0.000 A 
ENDROOT
BRANCH   1  12
ATOM      7  C   UNL     1       3.766   4.611  19.490  0.00  0.00    +0.000 A 
ATOM      8  C   UNL     1       3.956   3.281  19.932  0.00  0.00    +0.000 A 
ATOM      9  C   UNL     1       2.993   2.630  20.703  0.00  0.00    +0.000 A 
ATOM     10  C   UNL     1       1.848   3.305  21.100  0.00  0.00    +0.000 A 
ATOM     11  C   UNL     1       1.670   4.637  20.726  0.00  0.00    +0.000 A 
ATOM     12  C   UNL     1       2.604   5.320  19.913  0.00  0.00    +0.000 A 
BRANCH   7  13
ATOM     13  C   UNL     1       4.854   5.263  18.638  0.00  0.00    +0.000 C 
BRANCH  13  15
ATOM     14  C   UNL     1       6.776   4.555  17.347  0.00  0.00    +0.000 C 
ATOM     15  N   UNL     1       6.215   4.684  18.696  0.00  0.00    +0.000 NA
ATOM     16  C   UNL     1       7.069   5.590  19.481  0.00  0.00    +0.000 C 
ENDBRANCH  13  15
ENDBRANCH   7  13
ENDBRANCH   1  12
BRANCH   4  17
ATOM     17  N   UNL     1       0.995  10.603  18.326  0.00  0.00    +0.000 N 
ATOM     18  H   UNL     1       1.281  10.833  17.372  0.00  0.00    +0.000 HD
BRANCH  17  19
ATOM     19  C   UNL     1      -0.396  10.922  18.653  0.00  0.00    +0.000 C 
BRANCH  19  20
ATOM     20  C   UNL     1      -1.423  10.303  17.694  0.00  0.00    +0.000 C 
BRANCH  20  21
ATOM     21  N   UNL     1      -2.842  10.612  17.971  0.00  0.00    +0.000 NA
ATOM     22  C   UNL     1      -2.998  11.733  18.913  0.00  0.00    +0.000 C 
ATOM     23  C   UNL     1      -4.470  12.055  19.170  0.00  0.00    +0.000 C 
ATOM     24  C   UNL     1      -5.212  12.335  17.871  0.00  0.00    +0.000 C 
ATOM     25  C   UNL     1      -4.998  11.192  16.886  0.00  0.00    +0.000 C 
ATOM     26  C   UNL     1      -3.510  10.910  16.692  0.00  0.00    +0.000 C 
ENDBRANCH  20  21
ENDBRANCH  19  20
ENDBRANCH  17  19
ENDBRANCH   4  17
BRANCH   5  27
ATOM     27  O   UNL     1       0.922   9.848  21.029  0.00  0.00    +0.000 OA
BRANCH  27  28
ATOM     28  C   UNL     1       0.710   9.321  22.349  0.00  0.00    +0.000 C 
BRANCH  28  29
ATOM     29  C   UNL     1      -0.463  10.041  23.008  0.00  0.00    +0.000 C 
BRANCH  29  30
ATOM     30  C   UNL     1      -0.686  11.424  22.379  0.00  0.00    +0.000 C 
BRANCH  30  31
ATOM     31  C   UNL     1      -2.051  12.024  22.734  0.00  0.00    +0.000 C 
BRANCH  31  32
ATOM     32  N   UNL     1      -1.971  13.157  23.668  0.00  0.00    +0.000 NA
ATOM     33  C   UNL     1      -1.145  14.258  23.145  0.00  0.00    +0.000 C 
ATOM     34  C   UNL     1      -1.006  15.376  24.176  0.00  0.00    +0.000 C 
ATOM     35  C   UNL     1      -2.368  15.887  24.623  0.00  0.00    +0.000 C 
ATOM     36  C   UNL     1      -3.247  14.731  25.082  0.00  0.00    +0.000 C 
ATOM     37  C   UNL     1      -3.316  13.629  24.024  0.00  0.00    +0.000 C 
ENDBRANCH  31  32
ENDBRANCH  30  31
ENDBRANCH  29  30
ENDBRANCH  28  29
ENDBRANCH  27  28
ENDBRANCH   5  27
TORSDOF 13
ENDMDL
MODEL 4
REMARK VINA RESULT:      -7.4      1.515      2.204
REMARK  Name = 
REMARK  15 active torsions:
REMARK  status: ('A' for Active; 'I' for Inactive)
REMARK    1  A    between atoms: C_1  and  N_2
REMARK    2  A    between atoms: N_2  and  C_3
REMARK    3  A    between atoms: N_2  and  C_4
REMARK    4  A    between atoms: C_4  and  C_5
REMARK    5  A    between atoms: C_10  and  C_11
REMARK    6  A    between atoms: C_14  and  N_15
REMARK    7  A    between atoms: N_15  and  C_16
REMARK    8  A    between atoms: C_16  and  C_17
REMARK    9  A    between atoms: C_17  and  N_18
REMARK   10  A    between atoms: C_24  and  O_25
REMARK   11  A    between atoms: O_25  and  C_26
REMARK   12  A    between atoms: C_26  and  C_27
REMARK   13  A    between atoms: C_27  and  C_28
REMARK   14  A    between atoms: C_28  and  C_29
REMARK   15  A    between atoms: C_29  and  N_30
REMARK                            x       y       z     vdW  Elec       q    Type
REMARK                         _______ _______ _______ _____ _____    ______ ____
ROOT
ATOM      1  C   UNL     1       2.193   6.789  19.366  0.00  0.00    +0.000 A 
ATOM      2  C   UNL     1       2.339   7.310  18.085  0.00  0.00    +0.000 A 
ATOM      3  C   UNL     1       1.891   8.591  17.773  0.00  0.00    +0.000 A 
ATOM      4  C   UNL     1       1.451   9.489  18.756  0.00  0.00    +0.000 A 
ATOM      5  C   UNL     1       1.423   9.023  20.085  0.00  0.00    +0.000 A 
ATOM      6  C   UNL     1       1.739   7.677  20.357  0.00  0.00    +0.000 A 
ENDROOT
BRANCH   1  12
ATOM      7  C   UNL     1       3.746   4.750  19.543  0.00  0.00    +0.000 A 
ATOM      8  C   UNL     1       3.894   3.386  19.883  0.00  0.00    +0.000 A 
ATOM      9  C   UNL     1       2.799   2.615  20.273  0.00  0.00    +0.000 A 
ATOM     10  C   UNL     1       1.546   3.197  20.390  0.00  0.00    +0.000 A 
ATOM     11  C   UNL     1       1.390   4.557  20.117  0.00  0.00    +0.000 A 
ATOM     12  C   UNL     1       2.468   5.362  19.682  0.00  0.00    +0.000 A 
BRANCH   7  13
ATOM     13  C   UNL     1       4.984   5.536  19.111  0.00  0.00    +0.000 C 
BRANCH  13  15
ATOM     14  C   UNL     1       6.429   4.564  17.429  0.00  0.00    +0.000 C 
ATOM     15  N   UNL     1       6.232   4.778  18.867  0.00  0.00    +0.000 NA
ATOM     16  C   UNL     1       7.361   5.565  19.389  0.00  0.00    +0.000 C 
ENDBRANCH  13  15
ENDBRANCH   7  13
ENDBRANCH   1  12
BRANCH   4  17
ATOM     17  N   UNL     1       0.958  10.757  18.403  0.00  0.00    +0.000 N 
ATOM     18  H   UNL     1       1.268  11.054  17.475  0.00  0.00    +0.000 HD
BRANCH  17  19
ATOM     19  C   UNL     1      -0.438  11.064  18.720  0.00  0.00    +0.000 C 
BRANCH  19  20
ATOM     20  C   UNL     1      -1.453  10.441  17.751  0.00  0.00    +0.000 C 
BRANCH  20  21
ATOM     21  N   UNL     1      -2.877  10.721  18.031  0.00  0.00    +0.000 NA
ATOM     22  C   UNL     1      -3.055  11.828  18.985  0.00  0.00    +0.000 C 
ATOM     23  C   UNL     1      -4.533  12.119  19.245  0.00  0.00    +0.000 C 
ATOM     24  C   UNL     1      -5.280  12.399  17.949  0.00  0.00    +0.000 C 
ATOM     25  C   UNL     1      -5.044  11.272  16.952  0.00  0.00    +0.000 C 
ATOM     26  C   UNL     1      -3.551  11.020  16.755  0.00  0.00    +0.000 C 
ENDBRANCH  20  21
ENDBRANCH  19  20
ENDBRANCH  17  19
ENDBRANCH   4  17
BRANCH   5  27
ATOM     27  O   UNL     1       1.018   9.895  21.074  0.00  0.00    +0.000 OA
BRANCH  27  28
ATOM     28  C   UNL     1       1.239   9.450  22.422  0.00  0.00    +0.000 C 
BRANCH  28  29
ATOM     29  C   UNL     1      -0.047   9.593  23.229  0.00  0.00    +0.000 C 
BRANCH  29  30
ATOM     30  C   UNL     1      -1.073  10.460  22.485  0.00  0.00    +0.000 C 
BRANCH  30  31
ATOM     31  C   UNL     1      -1.076  11.916  22.962  0.00  0.00    +0.000 C 
BRANCH  31  32
ATOM     32  N   UNL     1      -1.193  12.894  21.870  0.00  0.00    +0.000 NA
ATOM     33  C   UNL     1      -2.189  13.940  22.158  0.00  0.00    +0.000 C 
ATOM     34  C   UNL     1      -2.353  14.882  20.967  0.00  0.00    +0.000 C 
ATOM     35  C   UNL     1      -1.022  15.500  20.564  0.00  0.00    +0.000 C 
ATOM     36  C   UNL     1       0.026  14.414  20.351  0.00  0.00    +0.000 C 
ATOM     37  C   UNL     1       0.116  13.483  21.560  0.00  0.00    +0.000 C 
ENDBRANCH  31  32
ENDBRANCH  30  31
ENDBRANCH  29  30
ENDBRANCH  28  29
ENDBRANCH  27  28
ENDBRANCH   5  27
TORSDOF 13
ENDMDL
MODEL 5
REMARK VINA RESULT:      -7.4      2.427      3.293
REMARK  Name = 
REMARK  15 active torsions:
REMARK  status: ('A' for Active; 'I' for Inactive)
REMARK    1  A    between atoms: C_1  and  N_2
REMARK    2  A    between atoms: N_2  and  C_3
REMARK    3  A    between atoms: N_2  and  C_4
REMARK    4  A    between atoms: C_4  and  C_5
REMARK    5  A    between atoms: C_10  and  C_11
REMARK    6  A    between atoms: C_14  and  N_15
REMARK    7  A    between atoms: N_15  and  C_16
REMARK    8  A    between atoms: C_16  and  C_17
REMARK    9  A    between atoms: C_17  and  N_18
REMARK   10  A    between atoms: C_24  and  O_25
REMARK   11  A    between atoms: O_25  and  C_26
REMARK   12  A    between atoms: C_26  and  C_27
REMARK   13  A    between atoms: C_27  and  C_28
REMARK   14  A    between atoms: C_28  and  C_29
REMARK   15  A    between atoms: C_29  and  N_30
REMARK                            x       y       z     vdW  Elec       q    Type
REMARK                         _______ _______ _______ _____ _____    ______ ____
ROOT
ATOM      1  C   UNL     1       2.137   6.883  19.477  0.00  0.00    +0.000 A 
ATOM      2  C   UNL     1       2.397   7.411  18.217  0.00  0.00    +0.000 A 
ATOM      3  C   UNL     1       1.972   8.691  17.871  0.00  0.00    +0.000 A 
ATOM      4  C   UNL     1       1.438   9.581  18.814  0.00  0.00    +0.000 A 
ATOM      5  C   UNL     1       1.291   9.108  20.132  0.00  0.00    +0.000 A 
ATOM      6  C   UNL     1       1.588   7.762  20.425  0.00  0.00    +0.000 A 
ENDROOT
BRANCH   1  12
ATOM      7  C   UNL     1       3.619   4.785  19.546  0.00  0.00    +0.000 A 
ATOM      8  C   UNL     1       3.751   3.426  19.915  0.00  0.00    +0.000 A 
ATOM      9  C   UNL     1       2.680   2.716  20.457  0.00  0.00    +0.000 A 
ATOM     10  C   UNL     1       1.473   3.355  20.696  0.00  0.00    +0.000 A 
ATOM     11  C   UNL     1       1.340   4.711  20.395  0.00  0.00    +0.000 A 
ATOM     12  C   UNL     1       2.391   5.456  19.810  0.00  0.00    +0.000 A 
BRANCH   7  13
ATOM     13  C   UNL     1       4.828   5.503  18.946  0.00  0.00    +0.000 C 
BRANCH  13  15
ATOM     14  C   UNL     1       5.295   5.876  16.601  0.00  0.00    +0.000 C 
ATOM     15  N   UNL     1       5.427   4.935  17.718  0.00  0.00    +0.000 NA
ATOM     16  C   UNL     1       6.858   4.695  17.969  0.00  0.00    +0.000 C 
ENDBRANCH  13  15
ENDBRANCH   7  13
ENDBRANCH   1  12
BRANCH   4  17
ATOM     17  N   UNL     1       0.971  10.848  18.422  0.00  0.00    +0.000 N 
ATOM     18  H   UNL     1      -0.041  10.865  18.276  0.00  0.00    +0.000 HD
BRANCH  17  19
ATOM     19  C   UNL     1       1.521  12.023  19.100  0.00  0.00    +0.000 C 
BRANCH  19  20
ATOM     20  C   UNL     1       2.395  12.912  18.203  0.00  0.00    +0.000 C 
BRANCH  20  21
ATOM     21  N   UNL     1       2.498  14.333  18.596  0.00  0.00    +0.000 NA
ATOM     22  C   UNL     1       3.275  15.128  17.631  0.00  0.00    +0.000 C 
ATOM     23  C   UNL     1       3.351  16.599  18.041  0.00  0.00    +0.000 C 
ATOM     24  C   UNL     1       1.964  17.193  18.236  0.00  0.00    +0.000 C 
ATOM     25  C   UNL     1       1.153  16.332  19.195  0.00  0.00    +0.000 C 
ATOM     26  C   UNL     1       1.135  14.875  18.739  0.00  0.00    +0.000 C 
ENDBRANCH  20  21
ENDBRANCH  19  20
ENDBRANCH  17  19
ENDBRANCH   4  17
BRANCH   5  27
ATOM     27  O   UNL     1       0.790   9.972  21.083  0.00  0.00    +0.000 OA
BRANCH  27  28
ATOM     28  C   UNL     1       0.709   9.446  22.418  0.00  0.00    +0.000 C 
BRANCH  28  29
ATOM     29  C   UNL     1      -0.611   9.867  23.057  0.00  0.00    +0.000 C 
BRANCH  29  30
ATOM     30  C   UNL     1      -1.125  11.180  22.449  0.00  0.00    +0.000 C 
BRANCH  30  31
ATOM     31  C   UNL     1      -1.871  12.052  23.465  0.00  0.00    +0.000 C 
BRANCH  31  32
ATOM     32  N   UNL     1      -3.325  12.096  23.249  0.00  0.00    +0.000 NA
ATOM     33  C   UNL     1      -4.040  12.722  24.373  0.00  0.00    +0.000 C 
ATOM     34  C   UNL     1      -5.551  12.667  24.159  0.00  0.00    +0.000 C 
ATOM     35  C   UNL     1      -5.947  13.314  22.840  0.00  0.00    +0.000 C 
ATOM     36  C   UNL     1      -5.139  12.720  21.693  0.00  0.00    +0.000 C 
ATOM     37  C   UNL     1      -3.640  12.770  21.982  0.00  0.00    +0.000 C 
ENDBRANCH  31  32
ENDBRANCH  30  31
ENDBRANCH  29  30
ENDBRANCH  28  29
ENDBRANCH  27  28
ENDBRANCH   5  27
TORSDOF 13
ENDMDL
MODEL 6
REMARK VINA RESULT:      -7.4      1.972      3.007
REMARK  Name = 
REMARK  15 active torsions:
REMARK  status: ('A' for Active; 'I' for Inactive)
REMARK    1  A    between atoms: C_1  and  N_2
REMARK    2  A    between atoms: N_2  and  C_3
REMARK    3  A    between atoms: N_2  and  C_4
REMARK    4  A    between atoms: C_4  and  C_5
REMARK    5  A    between atoms: C_10  and  C_11
REMARK    6  A    between atoms: C_14  and  N_15
REMARK    7  A    between atoms: N_15  and  C_16
REMARK    8  A    between atoms: C_16  and  C_17
REMARK    9  A    between atoms: C_17  and  N_18
REMARK   10  A    between atoms: C_24  and  O_25
REMARK   11  A    between atoms: O_25  and  C_26
REMARK   12  A    between atoms: C_26  and  C_27
REMARK   13  A    between atoms: C_27  and  C_28
REMARK   14  A    between atoms: C_28  and  C_29
REMARK   15  A    between atoms: C_29  and  N_30
REMARK                            x       y       z     vdW  Elec       q    Type
REMARK                         _______ _______ _______ _____ _____    ______ ____
ROOT
ATOM      1  C   UNL     1       2.368   6.528  18.893  0.00  0.00    +0.000 A 
ATOM      2  C   UNL     1       2.457   7.553  17.957  0.00  0.00    +0.000 A 
ATOM      3  C   UNL     1       1.964   8.825  18.234  0.00  0.00    +0.000 A 
ATOM      4  C   UNL     1       1.532   9.198  19.515  0.00  0.00    +0.000 A 
ATOM      5  C   UNL     1       1.560   8.206  20.515  0.00  0.00    +0.000 A 
ATOM      6  C   UNL     1       1.921   6.887  20.177  0.00  0.00    +0.000 A 
ENDROOT
BRANCH   1  12
ATOM      7  C   UNL     1       4.019   4.619  18.415  0.00  0.00    +0.000 A 
ATOM      8  C   UNL     1       4.209   3.252  18.107  0.00  0.00    +0.000 A 
ATOM      9  C   UNL     1       3.126   2.406  17.867  0.00  0.00    +0.000 A 
ATOM     10  C   UNL     1       1.831   2.888  17.985  0.00  0.00    +0.000 A 
ATOM     11  C   UNL     1       1.621   4.218  18.347  0.00  0.00    +0.000 A 
ATOM     12  C   UNL     1       2.692   5.115  18.561  0.00  0.00    +0.000 A 
BRANCH   7  13
ATOM     13  C   UNL     1       5.249   5.494  18.654  0.00  0.00    +0.000 C 
BRANCH  13  15
ATOM     14  C   UNL     1       6.523   7.032  17.286  0.00  0.00    +0.000 C 
ATOM     15  N   UNL     1       6.231   5.620  17.554  0.00  0.00    +0.000 NA
ATOM     16  C   UNL     1       7.475   4.947  17.965  0.00  0.00    +0.000 C 
ENDBRANCH  13  15
ENDBRANCH   7  13
ENDBRANCH   1  12
BRANCH   4  17
ATOM     17  N   UNL     1       0.992  10.474  19.749  0.00  0.00    +0.000 N 
ATOM     18  H   UNL     1       1.623  11.074  20.285  0.00  0.00    +0.000 HD
BRANCH  17  19
ATOM     19  C   UNL     1       0.290  11.137  18.648  0.00  0.00    +0.000 C 
BRANCH  19  20
ATOM     20  C   UNL     1      -0.022  12.618  18.904  0.00  0.00    +0.000 C 
BRANCH  20  21
ATOM     21  N   UNL     1       1.144  13.513  19.055  0.00  0.00    +0.000 NA
ATOM     22  C   UNL     1       2.197  13.235  18.064  0.00  0.00    +0.000 C 
ATOM     23  C   UNL     1       3.384  14.185  18.219  0.00  0.00    +0.000 C 
ATOM     24  C   UNL     1       2.945  15.640  18.145  0.00  0.00    +0.000 C 
ATOM     25  C   UNL     1       1.819  15.901  19.138  0.00  0.00    +0.000 C 
ATOM     26  C   UNL     1       0.677  14.907  18.942  0.00  0.00    +0.000 C 
ENDBRANCH  20  21
ENDBRANCH  19  20
ENDBRANCH  17  19
ENDBRANCH   4  17
BRANCH   5  27
ATOM     27  O   UNL     1       1.163   8.554  21.789  0.00  0.00    +0.000 OA
BRANCH  27  28
ATOM     28  C   UNL     1      -0.252   8.736  21.969  0.00  0.00    +0.000 C 
BRANCH  28  29
ATOM     29  C   UNL     1      -0.502   9.761  23.071  0.00  0.00    +0.000 C 
BRANCH  29  30
ATOM     30  C   UNL     1      -0.973  11.099  22.484  0.00  0.00    +0.000 C 
BRANCH  30  31
ATOM     31  C   UNL     1      -2.035  11.785  23.350  0.00  0.00    +0.000 C 
BRANCH  31  32
ATOM     32  N   UNL     1      -3.273  12.103  22.623  0.00  0.00    +0.000 NA
ATOM     33  C   UNL     1      -4.205  12.909  23.429  0.00  0.00    +0.000 C 
ATOM     34  C   UNL     1      -5.516  13.140  22.680  0.00  0.00    +0.000 C 
ATOM     35  C   UNL     1      -5.272  13.790  21.326  0.00  0.00    +0.000 C 
ATOM     36  C   UNL     1      -4.242  12.996  20.533  0.00  0.00    +0.000 C 
ATOM     37  C   UNL     1      -2.969  12.765  21.348  0.00  0.00    +0.000 C 
ENDBRANCH  31  32
ENDBRANCH  30  31
ENDBRANCH  29  30
ENDBRANCH  28  29
ENDBRANCH  27  28
ENDBRANCH   5  27
TORSDOF 13
ENDMDL
MODEL 7
REMARK VINA RESULT:      -7.4      2.507      4.932
REMARK  Name = 
REMARK  15 active torsions:
REMARK  status: ('A' for Active; 'I' for Inactive)
REMARK    1  A    between atoms: C_1  and  N_2
REMARK    2  A    between atoms: N_2  and  C_3
REMARK    3  A    between atoms: N_2  and  C_4
REMARK    4  A    between atoms: C_4  and  C_5
REMARK    5  A    between atoms: C_10  and  C_11
REMARK    6  A    between atoms: C_14  and  N_15
REMARK    7  A    between atoms: N_15  and  C_16
REMARK    8  A    between atoms: C_16  and  C_17
REMARK    9  A    between atoms: C_17  and  N_18
REMARK   10  A    between atoms: C_24  and  O_25
REMARK   11  A    between atoms: O_25  and  C_26
REMARK   12  A    between atoms: C_26  and  C_27
REMARK   13  A    between atoms: C_27  and  C_28
REMARK   14  A    between atoms: C_28  and  C_29
REMARK   15  A    between atoms: C_29  and  N_30
REMARK                            x       y       z     vdW  Elec       q    Type
REMARK                         _______ _______ _______ _____ _____    ______ ____
ROOT
ATOM      1  C   UNL     1       2.354   7.457  18.549  0.00  0.00    +0.000 A 
ATOM      2  C   UNL     1       2.210   7.381  19.931  0.00  0.00    +0.000 A 
ATOM      3  C   UNL     1       1.489   8.341  20.634  0.00  0.00    +0.000 A 
ATOM      4  C   UNL     1       0.716   9.317  19.988  0.00  0.00    +0.000 A 
ATOM      5  C   UNL     1       0.741   9.326  18.579  0.00  0.00    +0.000 A 
ATOM      6  C   UNL     1       1.594   8.441  17.893  0.00  0.00    +0.000 A 
ENDROOT
BRANCH   1  12
ATOM      7  C   UNL     1       3.082   5.174  17.622  0.00  0.00    +0.000 A 
ATOM      8  C   UNL     1       4.027   4.433  16.875  0.00  0.00    +0.000 A 
ATOM      9  C   UNL     1       5.184   5.031  16.376  0.00  0.00    +0.000 A 
ATOM     10  C   UNL     1       5.398   6.389  16.559  0.00  0.00    +0.000 A 
ATOM     11  C   UNL     1       4.448   7.150  17.241  0.00  0.00    +0.000 A 
ATOM     12  C   UNL     1       3.282   6.574  17.794  0.00  0.00    +0.000 A 
BRANCH   7  13
ATOM     13  C   UNL     1       1.841   4.456  18.152  0.00  0.00    +0.000 C 
BRANCH  13  15
ATOM     14  C   UNL     1       0.966   4.000  20.363  0.00  0.00    +0.000 C 
ATOM     15  N   UNL     1       1.988   3.636  19.375  0.00  0.00    +0.000 NA
ATOM     16  C   UNL     1       1.809   2.221  19.007  0.00  0.00    +0.000 C 
ENDBRANCH  13  15
ENDBRANCH   7  13
ENDBRANCH   1  12
BRANCH   4  17
ATOM     17  N   UNL     1       0.039  10.303  20.726  0.00  0.00    +0.000 N 
ATOM     18  H   UNL     1      -0.505   9.912  21.498  0.00  0.00    +0.000 HD
BRANCH  17  19
ATOM     19  C   UNL     1       0.756  11.541  21.037  0.00  0.00    +0.000 C 
BRANCH  19  20
ATOM     20  C   UNL     1       0.173  12.790  20.359  0.00  0.00    +0.000 C 
BRANCH  20  21
ATOM     21  N   UNL     1       1.153  13.748  19.805  0.00  0.00    +0.000 NA
ATOM     22  C   UNL     1       1.983  14.370  20.850  0.00  0.00    +0.000 C 
ATOM     23  C   UNL     1       3.006  15.339  20.258  0.00  0.00    +0.000 C 
ATOM     24  C   UNL     1       3.876  14.658  19.212  0.00  0.00    +0.000 C 
ATOM     25  C   UNL     1       3.004  13.974  18.167  0.00  0.00    +0.000 C 
ATOM     26  C   UNL     1       1.994  13.038  18.826  0.00  0.00    +0.000 C 
ENDBRANCH  20  21
ENDBRANCH  19  20
ENDBRANCH  17  19
ENDBRANCH   4  17
BRANCH   5  27
ATOM     27  O   UNL     1      -0.031  10.260  17.920  0.00  0.00    +0.000 OA
BRANCH  27  28
ATOM     28  C   UNL     1      -1.417   9.915  17.755  0.00  0.00    +0.000 C 
BRANCH  28  29
ATOM     29  C   UNL     1      -2.138  11.029  17.003  0.00  0.00    +0.000 C 
BRANCH  29  30
ATOM     30  C   UNL     1      -3.591  10.638  16.697  0.00  0.00    +0.000 C 
BRANCH  30  31
ATOM     31  C   UNL     1      -4.600  11.688  17.172  0.00  0.00    +0.000 C 
BRANCH  31  32
ATOM     32  N   UNL     1      -5.162  11.406  18.501  0.00  0.00    +0.000 NA
ATOM     33  C   UNL     1      -5.212  12.606  19.354  0.00  0.00    +0.000 C 
ATOM     34  C   UNL     1      -5.711  12.260  20.756  0.00  0.00    +0.000 C 
ATOM     35  C   UNL     1      -7.070  11.576  20.705  0.00  0.00    +0.000 C 
ATOM     36  C   UNL     1      -7.032  10.386  19.754  0.00  0.00    +0.000 C 
ATOM     37  C   UNL     1      -6.489  10.788  18.382  0.00  0.00    +0.000 C 
ENDBRANCH  31  32
ENDBRANCH  30  31
ENDBRANCH  29  30
ENDBRANCH  28  29
ENDBRANCH  27  28
ENDBRANCH   5  27
TORSDOF 13
ENDMDL
MODEL 8
REMARK VINA RESULT:      -7.4      1.262      1.495
REMARK  Name = 
REMARK  15 active torsions:
REMARK  status: ('A' for Active; 'I' for Inactive)
REMARK    1  A    between atoms: C_1  and  N_2
REMARK    2  A    between atoms: N_2  and  C_3
REMARK    3  A    between atoms: N_2  and  C_4
REMARK    4  A    between atoms: C_4  and  C_5
REMARK    5  A    between atoms: C_10  and  C_11
REMARK    6  A    between atoms: C_14  and  N_15
REMARK    7  A    between atoms: N_15  and  C_16
REMARK    8  A    between atoms: C_16  and  C_17
REMARK    9  A    between atoms: C_17  and  N_18
REMARK   10  A    between atoms: C_24  and  O_25
REMARK   11  A    between atoms: O_25  and  C_26
REMARK   12  A    between atoms: C_26  and  C_27
REMARK   13  A    between atoms: C_27  and  C_28
REMARK   14  A    between atoms: C_28  and  C_29
REMARK   15  A    between atoms: C_29  and  N_30
REMARK                            x       y       z     vdW  Elec       q    Type
REMARK                         _______ _______ _______ _____ _____    ______ ____
ROOT
ATOM      1  C   UNL     1       2.493   6.501  19.437  0.00  0.00    +0.000 A 
ATOM      2  C   UNL     1       2.768   7.094  18.209  0.00  0.00    +0.000 A 
ATOM      3  C   UNL     1       2.203   8.316  17.857  0.00  0.00    +0.000 A 
ATOM      4  C   UNL     1       1.492   9.103  18.775  0.00  0.00    +0.000 A 
ATOM      5  C   UNL     1       1.318   8.578  20.071  0.00  0.00    +0.000 A 
ATOM      6  C   UNL     1       1.769   7.275  20.360  0.00  0.00    +0.000 A 
ENDROOT
BRANCH   1  12
ATOM      7  C   UNL     1       4.175   4.559  19.415  0.00  0.00    +0.000 A 
ATOM      8  C   UNL     1       4.466   3.225  19.784  0.00  0.00    +0.000 A 
ATOM      9  C   UNL     1       3.510   2.421  20.405  0.00  0.00    +0.000 A 
ATOM     10  C   UNL     1       2.266   2.943  20.725  0.00  0.00    +0.000 A 
ATOM     11  C   UNL     1       1.980   4.275  20.425  0.00  0.00    +0.000 A 
ATOM     12  C   UNL     1       2.908   5.110  19.761  0.00  0.00    +0.000 A 
BRANCH   7  13
ATOM     13  C   UNL     1       5.263   5.383  18.726  0.00  0.00    +0.000 C 
BRANCH  13  15
ATOM     14  C   UNL     1       7.096   4.713  17.294  0.00  0.00    +0.000 C 
ATOM     15  N   UNL     1       6.630   4.819  18.680  0.00  0.00    +0.000 NA
ATOM     16  C   UNL     1       7.529   5.724  19.415  0.00  0.00    +0.000 C 
ENDBRANCH  13  15
ENDBRANCH   7  13
ENDBRANCH   1  12
BRANCH   4  17
ATOM     17  N   UNL     1       0.891  10.309  18.374  0.00  0.00    +0.000 N 
ATOM     18  H   UNL     1       1.341  10.717  17.552  0.00  0.00    +0.000 HD
BRANCH  17  19
ATOM     19  C   UNL     1      -0.571  10.386  18.386  0.00  0.00    +0.000 C 
BRANCH  19  20
ATOM     20  C   UNL     1      -1.148  11.494  17.493  0.00  0.00    +0.000 C 
BRANCH  20  21
ATOM     21  N   UNL     1      -2.495  11.985  17.853  0.00  0.00    +0.000 NA
ATOM     22  C   UNL     1      -3.566  11.175  17.251  0.00  0.00    +0.000 C 
ATOM     23  C   UNL     1      -4.952  11.682  17.652  0.00  0.00    +0.000 C 
ATOM     24  C   UNL     1      -5.105  11.741  19.165  0.00  0.00    +0.000 C 
ATOM     25  C   UNL     1      -3.961  12.537  19.779  0.00  0.00    +0.000 C 
ATOM     26  C   UNL     1      -2.609  11.992  19.322  0.00  0.00    +0.000 C 
ENDBRANCH  20  21
ENDBRANCH  19  20
ENDBRANCH  17  19
ENDBRANCH   4  17
BRANCH   5  27
ATOM     27  O   UNL     1       0.643   9.344  20.998  0.00  0.00    +0.000 OA
BRANCH  27  28
ATOM     28  C   UNL     1       1.122   9.244  22.350  0.00  0.00    +0.000 C 
BRANCH  28  29
ATOM     29  C   UNL     1       0.017   9.656  23.318  0.00  0.00    +0.000 C 
BRANCH  29  30
ATOM     30  C   UNL     1      -1.045  10.511  22.614  0.00  0.00    +0.000 C 
BRANCH  30  31
ATOM     31  C   UNL     1      -0.835  12.014  22.829  0.00  0.00    +0.000 C 
BRANCH  31  32
ATOM     32  N   UNL     1      -2.084  12.790  22.825  0.00  0.00    +0.000 NA
ATOM     33  C   UNL     1      -3.144  12.148  23.621  0.00  0.00    +0.000 C 
ATOM     34  C   UNL     1      -4.453  12.929  23.519  0.00  0.00    +0.000 C 
ATOM     35  C   UNL     1      -4.265  14.380  23.939  0.00  0.00    +0.000 C 
ATOM     36  C   UNL     1      -3.109  15.010  23.172  0.00  0.00    +0.000 C 
ATOM     37  C   UNL     1      -1.841  14.165  23.281  0.00  0.00    +0.000 C 
ENDBRANCH  31  32
ENDBRANCH  30  31
ENDBRANCH  29  30
ENDBRANCH  28  29
ENDBRANCH  27  28
ENDBRANCH   5  27
TORSDOF 13
ENDMDL
MODEL 9
REMARK VINA RESULT:      -7.4      1.907      4.691
REMARK  Name = 
REMARK  15 active torsions:
REMARK  status: ('A' for Active; 'I' for Inactive)
REMARK    1  A    between atoms: C_1  and  N_2
REMARK    2  A    between atoms: N_2  and  C_3
REMARK    3  A    between atoms: N_2  and  C_4
REMARK    4  A    between atoms: C_4  and  C_5
REMARK    5  A    between atoms: C_10  and  C_11
REMARK    6  A    between atoms: C_14  and  N_15
REMARK    7  A    between atoms: N_15  and  C_16
REMARK    8  A    between atoms: C_16  and  C_17
REMARK    9  A    between atoms: C_17  and  N_18
REMARK   10  A    between atoms: C_24  and  O_25
REMARK   11  A    between atoms: O_25  and  C_26
REMARK   12  A    between atoms: C_26  and  C_27
REMARK   13  A    between atoms: C_27  and  C_28
REMARK   14  A    between atoms: C_28  and  C_29
REMARK   15  A    between atoms: C_29  and  N_30
REMARK                            x       y       z     vdW  Elec       q    Type
REMARK                         _______ _______ _______ _____ _____    ______ ____
ROOT
ATOM      1  C   UNL     1       2.193   7.573  18.912  0.00  0.00    +0.000 A 
ATOM      2  C   UNL     1       2.083   7.454  20.293  0.00  0.00    +0.000 A 
ATOM      3  C   UNL     1       1.462   8.440  21.054  0.00  0.00    +0.000 A 
ATOM      4  C   UNL     1       0.752   9.499  20.470  0.00  0.00    +0.000 A 
ATOM      5  C   UNL     1       0.738   9.563  19.063  0.00  0.00    +0.000 A 
ATOM      6  C   UNL     1       1.497   8.640  18.317  0.00  0.00    +0.000 A 
ENDROOT
BRANCH   1  12
ATOM      7  C   UNL     1       2.783   5.250  17.986  0.00  0.00    +0.000 A 
ATOM      8  C   UNL     1       3.634   4.469  17.172  0.00  0.00    +0.000 A 
ATOM      9  C   UNL     1       4.747   5.027  16.542  0.00  0.00    +0.000 A 
ATOM     10  C   UNL     1       5.003   6.385  16.662  0.00  0.00    +0.000 A 
ATOM     11  C   UNL     1       4.141   7.185  17.412  0.00  0.00    +0.000 A 
ATOM     12  C   UNL     1       3.025   6.650  18.095  0.00  0.00    +0.000 A 
BRANCH   7  13
ATOM     13  C   UNL     1       1.587   4.574  18.657  0.00  0.00    +0.000 C 
BRANCH  13  15
ATOM     14  C   UNL     1       1.330   3.501  20.812  0.00  0.00    +0.000 C 
ATOM     15  N   UNL     1       1.842   3.348  19.446  0.00  0.00    +0.000 NA
ATOM     16  C   UNL     1       1.140   2.227  18.799  0.00  0.00    +0.000 C 
ENDBRANCH  13  15
ENDBRANCH   7  13
ENDBRANCH   1  12
BRANCH   4  17
ATOM     17  N   UNL     1       0.180  10.506  21.266  0.00  0.00    +0.000 N 
ATOM     18  H   UNL     1      -0.347  11.188  20.716  0.00  0.00    +0.000 HD
BRANCH  17  19
ATOM     19  C   UNL     1      -0.443  10.112  22.531  0.00  0.00    +0.000 C 
BRANCH  19  20
ATOM     20  C   UNL     1      -1.431  11.146  23.091  0.00  0.00    +0.000 C 
BRANCH  20  21
ATOM     21  N   UNL     1      -1.559  12.406  22.329  0.00  0.00    +0.000 NA
ATOM     22  C   UNL     1      -2.919  12.608  21.803  0.00  0.00    +0.000 C 
ATOM     23  C   UNL     1      -3.039  13.926  21.038  0.00  0.00    +0.000 C 
ATOM     24  C   UNL     1      -2.612  15.107  21.897  0.00  0.00    +0.000 C 
ATOM     25  C   UNL     1      -1.226  14.861  22.478  0.00  0.00    +0.000 C 
ATOM     26  C   UNL     1      -1.170  13.522  23.209  0.00  0.00    +0.000 C 
ENDBRANCH  20  21
ENDBRANCH  19  20
ENDBRANCH  17  19
ENDBRANCH   4  17
BRANCH   5  27
ATOM     27  O   UNL     1       0.026  10.581  18.464  0.00  0.00    +0.000 OA
BRANCH  27  28
ATOM     28  C   UNL     1      -1.404  10.471  18.550  0.00  0.00    +0.000 C 
BRANCH  28  29
ATOM     29  C   UNL     1      -2.043  11.102  17.318  0.00  0.00    +0.000 C 
BRANCH  29  30
ATOM     30  C   UNL     1      -3.417  10.481  17.028  0.00  0.00    +0.000 C 
BRANCH  30  31
ATOM     31  C   UNL     1      -4.495  11.533  16.742  0.00  0.00    +0.000 C 
BRANCH  31  32
ATOM     32  N   UNL     1      -5.626  11.487  17.682  0.00  0.00    +0.000 NA
ATOM     33  C   UNL     1      -5.707  10.203  18.398  0.00  0.00    +0.000 C 
ATOM     34  C   UNL     1      -6.944  10.154  19.294  0.00  0.00    +0.000 C 
ATOM     35  C   UNL     1      -6.965  11.321  20.270  0.00  0.00    +0.000 C 
ATOM     36  C   UNL     1      -6.795  12.640  19.528  0.00  0.00    +0.000 C 
ATOM     37  C   UNL     1      -5.563  12.614  18.622  0.00  0.00    +0.000 C 
ENDBRANCH  31  32
ENDBRANCH  30  31
ENDBRANCH  29  30
ENDBRANCH  28  29
ENDBRANCH  27  28
ENDBRANCH   5  27
TORSDOF 13
ENDMDL
