MODEL 1
REMARK VINA RESULT:      -8.4      0.000      0.000
REMARK  Name = 
REMARK  5 active torsions:
REMARK  status: ('A' for Active; 'I' for Inactive)
REMARK    1  A    between atoms: C_2  and  C_3
REMARK    2  A    between atoms: C_6  and  C_7
REMARK    3  A    between atoms: C_12  and  C_13
REMARK    4  A    between atoms: C_13  and  C_14
REMARK    5  A    between atoms: N_20  and  C_21
REMARK                            x       y       z     vdW  Elec       q    Type
REMARK                         _______ _______ _______ _____ _____    ______ ____
ROOT
ATOM      1  C   UNL     1       2.515   6.760  19.624  0.00  0.00    +0.000 A 
ATOM      2  N   UNL     1       1.699   7.632  20.161  0.00  0.00    +0.000 NA
ATOM      3  C   UNL     1       1.526   8.753  19.414  0.00  0.00    +0.000 A 
ATOM      4  C   UNL     1       2.105   9.020  18.195  0.00  0.00    +0.000 A 
ATOM      5  C   UNL     1       1.693  10.307  17.844  0.00  0.00    +0.000 A 
ATOM      6  N   UNL     1       0.891  10.841  18.770  0.00  0.00    +0.000 NA
ATOM      7  N   UNL     1       0.794   9.875  19.723  0.00  0.00    +0.000 N 
ATOM      8  C   UNL     1       2.958   8.042  17.592  0.00  0.00    +0.000 A 
ATOM      9  O   UNL     1       3.507   8.174  16.508  0.00  0.00    +0.000 OA
ATOM     10  N   UNL     1       3.124   6.925  18.389  0.00  0.00    +0.000 N 
ATOM     11  H   UNL     1       3.740   6.219  18.013  0.00  0.00    +0.000 HD
ENDROOT
BRANCH   7  12
ATOM     12  C   UNL     1      -0.053  10.148  20.875  0.00  0.00    +0.000 C 
ATOM     13  C   UNL     1      -0.530  11.599  20.985  0.00  0.00    +0.000 C 
ATOM     14  C   UNL     1      -1.417  11.754  22.215  0.00  0.00    +0.000 C 
ATOM     15  O   UNL     1      -0.731  11.319  23.389  0.00  0.00    +0.000 OA
ATOM     16  C   UNL     1      -0.385   9.935  23.337  0.00  0.00    +0.000 C 
ATOM     17  C   UNL     1       0.573   9.669  22.184  0.00  0.00    +0.000 C 
ENDBRANCH   7  12
BRANCH   1  18
ATOM     18  C   UNL     1       2.940   5.547  20.427  0.00  0.00    +0.000 C 
BRANCH  18  24
ATOM     19  C   UNL     1       2.933   3.386  18.945  0.00  0.00    +0.000 A 
ATOM     20  C   UNL     1       2.252   2.164  18.679  0.00  0.00    +0.000 A 
ATOM     21  C   UNL     1       1.153   1.725  19.418  0.00  0.00    +0.000 A 
ATOM     22  C   UNL     1       0.673   2.505  20.451  0.00  0.00    +0.000 A 
ATOM     23  C   UNL     1       1.297   3.713  20.737  0.00  0.00    +0.000 A 
ATOM     24  C   UNL     1       2.424   4.179  20.009  0.00  0.00    +0.000 A 
BRANCH  19  28
ATOM     25  C   UNL     1       6.087   4.565  16.306  0.00  0.00    +0.000 A 
ATOM     26  C   UNL     1       6.362   4.513  17.661  0.00  0.00    +0.000 A 
ATOM     27  C   UNL     1       5.349   4.108  18.538  0.00  0.00    +0.000 A 
ATOM     28  C   UNL     1       4.090   3.725  18.066  0.00  0.00    +0.000 A 
ATOM     29  C   UNL     1       3.954   3.773  16.669  0.00  0.00    +0.000 A 
ATOM     30  N   UNL     1       4.899   4.190  15.787  0.00  0.00    +0.000 NA
BRANCH  25  32
ATOM     31  N   UNL     1       7.806   5.543  14.620  0.00  0.00    +0.000 NA
ATOM     32  C   UNL     1       7.054   5.082  15.377  0.00  0.00    +0.000 C 
ENDBRANCH  25  32
ENDBRANCH  19  28
ENDBRANCH  18  24
ENDBRANCH   1  18
TORSDOF 5
ENDMDL
MODEL 2
REMARK VINA RESULT:      -8.3      3.644      6.187
REMARK  Name = 
REMARK  5 active torsions:
REMARK  status: ('A' for Active; 'I' for Inactive)
REMARK    1  A    between atoms: C_2  and  C_3
REMARK    2  A    between atoms: C_6  and  C_7
REMARK    3  A    between atoms: C_12  and  C_13
REMARK    4  A    between atoms: C_13  and  C_14
REMARK    5  A    between atoms: N_20  and  C_21
REMARK                            x       y       z     vdW  Elec       q    Type
REMARK                         _______ _______ _______ _____ _____    ______ ____
ROOT
ATOM      1  C   UNL     1      -1.469  10.833  18.302  0.00  0.00    +0.000 A 
ATOM      2  N   UNL     1      -2.478  11.336  18.968  0.00  0.00    +0.000 NA
ATOM      3  C   UNL     1      -3.605  11.484  18.226  0.00  0.00    +0.000 A 
ATOM      4  C   UNL     1      -3.759  11.151  16.899  0.00  0.00    +0.000 A 
ATOM      5  C   UNL     1      -5.054  11.542  16.550  0.00  0.00    +0.000 A 
ATOM      6  N   UNL     1      -5.704  12.084  17.584  0.00  0.00    +0.000 NA
ATOM      7  N   UNL     1      -4.805  12.037  18.604  0.00  0.00    +0.000 N 
ATOM      8  C   UNL     1      -2.666  10.559  16.191  0.00  0.00    +0.000 A 
ATOM      9  O   UNL     1      -2.705  10.213  15.020  0.00  0.00    +0.000 OA
ATOM     10  N   UNL     1      -1.533  10.441  16.974  0.00  0.00    +0.000 N 
ATOM     11  H   UNL     1      -0.729  10.050  16.506  0.00  0.00    +0.000 HD
ENDROOT
BRANCH   7  12
ATOM     12  C   UNL     1      -5.233  12.539  19.902  0.00  0.00    +0.000 C 
ATOM     13  C   UNL     1      -4.118  12.631  20.948  0.00  0.00    +0.000 C 
ATOM     14  C   UNL     1      -4.683  13.182  22.252  0.00  0.00    +0.000 C 
ATOM     15  O   UNL     1      -5.781  12.389  22.700  0.00  0.00    +0.000 OA
ATOM     16  C   UNL     1      -6.871  12.393  21.777  0.00  0.00    +0.000 C 
ATOM     17  C   UNL     1      -6.444  11.784  20.448  0.00  0.00    +0.000 C 
ENDBRANCH   7  12
BRANCH   1  18
ATOM     18  C   UNL     1      -0.101  10.781  18.954  0.00  0.00    +0.000 C 
BRANCH  18  24
ATOM     19  C   UNL     1       0.709   9.167  20.853  0.00  0.00    +0.000 A 
ATOM     20  C   UNL     1       0.612   8.871  22.243  0.00  0.00    +0.000 A 
ATOM     21  C   UNL     1      -0.112   9.652  23.143  0.00  0.00    +0.000 A 
ATOM     22  C   UNL     1      -0.792  10.763  22.685  0.00  0.00    +0.000 A 
ATOM     23  C   UNL     1      -0.739  11.083  21.333  0.00  0.00    +0.000 A 
ATOM     24  C   UNL     1       0.000  10.311  20.397  0.00  0.00    +0.000 A 
BRANCH  19  28
ATOM     25  C   UNL     1       2.815   6.300  18.476  0.00  0.00    +0.000 A 
ATOM     26  C   UNL     1       2.605   7.559  17.939  0.00  0.00    +0.000 A 
ATOM     27  C   UNL     1       1.938   8.517  18.710  0.00  0.00    +0.000 A 
ATOM     28  C   UNL     1       1.517   8.236  20.014  0.00  0.00    +0.000 A 
ATOM     29  C   UNL     1       1.834   6.942  20.460  0.00  0.00    +0.000 A 
ATOM     30  N   UNL     1       2.450   5.973  19.734  0.00  0.00    +0.000 NA
BRANCH  25  32
ATOM     31  N   UNL     1       3.901   4.401  17.075  0.00  0.00    +0.000 NA
ATOM     32  C   UNL     1       3.391   5.248  17.686  0.00  0.00    +0.000 C 
ENDBRANCH  25  32
ENDBRANCH  19  28
ENDBRANCH  18  24
ENDBRANCH   1  18
TORSDOF 5
ENDMDL
MODEL 3
REMARK VINA RESULT:      -8.2      6.595     10.377
REMARK  Name = 
REMARK  5 active torsions:
REMARK  status: ('A' for Active; 'I' for Inactive)
REMARK    1  A    between atoms: C_2  and  C_3
REMARK    2  A    between atoms: C_6  and  C_7
REMARK    3  A    between atoms: C_12  and  C_13
REMARK    4  A    between atoms: C_13  and  C_14
REMARK    5  A    between atoms: N_20  and  C_21
REMARK                            x       y       z     vdW  Elec       q    Type
REMARK                         _______ _______ _______ _____ _____    ______ ____
ROOT
ATOM      1  C   UNL     1      -3.052  12.159  19.297  0.00  0.00    +0.000 A 
ATOM      2  N   UNL     1      -4.124  12.536  19.948  0.00  0.00    +0.000 NA
ATOM      3  C   UNL     1      -5.266  12.452  19.219  0.00  0.00    +0.000 A 
ATOM      4  C   UNL     1      -5.375  12.014  17.918  0.00  0.00    +0.000 A 
ATOM      5  C   UNL     1      -6.718  12.168  17.570  0.00  0.00    +0.000 A 
ATOM      6  N   UNL     1      -7.440  12.665  18.579  0.00  0.00    +0.000 NA
ATOM      7  N   UNL     1      -6.537  12.829  19.583  0.00  0.00    +0.000 N 
ATOM      8  C   UNL     1      -4.207  11.560  17.229  0.00  0.00    +0.000 A 
ATOM      9  O   UNL     1      -4.198  11.137  16.082  0.00  0.00    +0.000 OA
ATOM     10  N   UNL     1      -3.063  11.677  17.997  0.00  0.00    +0.000 N 
ATOM     11  H   UNL     1      -2.210  11.390  17.540  0.00  0.00    +0.000 HD
ENDROOT
BRANCH   7  12
ATOM     12  C   UNL     1      -7.029  13.339  20.855  0.00  0.00    +0.000 C 
ATOM     13  C   UNL     1      -6.280  14.566  21.382  0.00  0.00    +0.000 C 
ATOM     14  C   UNL     1      -6.895  15.014  22.703  0.00  0.00    +0.000 C 
ATOM     15  O   UNL     1      -6.904  13.940  23.643  0.00  0.00    +0.000 OA
ATOM     16  C   UNL     1      -7.697  12.837  23.204  0.00  0.00    +0.000 C 
ATOM     17  C   UNL     1      -7.126  12.249  21.921  0.00  0.00    +0.000 C 
ENDBRANCH   7  12
BRANCH   1  18
ATOM     18  C   UNL     1      -1.689  12.369  19.925  0.00  0.00    +0.000 C 
BRANCH  18  24
ATOM     19  C   UNL     1      -1.280  11.418  22.333  0.00  0.00    +0.000 A 
ATOM     20  C   UNL     1      -0.669  10.369  23.077  0.00  0.00    +0.000 A 
ATOM     21  C   UNL     1      -0.014   9.290  22.482  0.00  0.00    +0.000 A 
ATOM     22  C   UNL     1       0.074   9.223  21.106  0.00  0.00    +0.000 A 
ATOM     23  C   UNL     1      -0.496  10.232  20.338  0.00  0.00    +0.000 A 
ATOM     24  C   UNL     1      -1.178  11.336  20.918  0.00  0.00    +0.000 A 
BRANCH  19  28
ATOM     25  C   UNL     1      -3.125  14.719  24.333  0.00  0.00    +0.000 A 
ATOM     26  C   UNL     1      -3.847  13.542  24.224  0.00  0.00    +0.000 A 
ATOM     27  C   UNL     1      -3.251  12.445  23.593  0.00  0.00    +0.000 A 
ATOM     28  C   UNL     1      -1.941  12.507  23.109  0.00  0.00    +0.000 A 
ATOM     29  C   UNL     1      -1.299  13.738  23.326  0.00  0.00    +0.000 A 
ATOM     30  N   UNL     1      -1.850  14.836  23.904  0.00  0.00    +0.000 NA
BRANCH  25  32
ATOM     31  N   UNL     1      -4.264  16.855  25.277  0.00  0.00    +0.000 NA
ATOM     32  C   UNL     1      -3.730  15.907  24.868  0.00  0.00    +0.000 C 
ENDBRANCH  25  32
ENDBRANCH  19  28
ENDBRANCH  18  24
ENDBRANCH   1  18
TORSDOF 5
ENDMDL
MODEL 4
REMARK VINA RESULT:      -8.2      5.665      9.321
REMARK  Name = 
REMARK  5 active torsions:
REMARK  status: ('A' for Active; 'I' for Inactive)
REMARK    1  A    between atoms: C_2  and  C_3
REMARK    2  A    between atoms: C_6  and  C_7
REMARK    3  A    between atoms: C_12  and  C_13
REMARK    4  A    between atoms: C_13  and  C_14
REMARK    5  A    between atoms: N_20  and  C_21
REMARK                            x       y       z     vdW  Elec       q    Type
REMARK                         _______ _______ _______ _____ _____    ______ ____
ROOT
ATOM      1  C   UNL     1      -1.650  11.485  18.562  0.00  0.00    +0.000 A 
ATOM      2  N   UNL     1      -2.719  11.740  19.273  0.00  0.00    +0.000 NA
ATOM      3  C   UNL     1      -3.868  11.746  18.550  0.00  0.00    +0.000 A 
ATOM      4  C   UNL     1      -3.986  11.505  17.200  0.00  0.00    +0.000 A 
ATOM      5  C   UNL     1      -5.336  11.686  16.891  0.00  0.00    +0.000 A 
ATOM      6  N   UNL     1      -6.053  12.014  17.969  0.00  0.00    +0.000 NA
ATOM      7  N   UNL     1      -5.141  12.042  18.978  0.00  0.00    +0.000 N 
ATOM      8  C   UNL     1      -2.819  11.181  16.439  0.00  0.00    +0.000 A 
ATOM      9  O   UNL     1      -2.817  10.934  15.242  0.00  0.00    +0.000 OA
ATOM     10  N   UNL     1      -1.668  11.202  17.205  0.00  0.00    +0.000 N 
ATOM     11  H   UNL     1      -0.816  11.002  16.702  0.00  0.00    +0.000 HD
ENDROOT
BRANCH   7  12
ATOM     12  C   UNL     1      -5.626  12.347  20.317  0.00  0.00    +0.000 C 
ATOM     13  C   UNL     1      -7.076  11.930  20.579  0.00  0.00    +0.000 C 
ATOM     14  C   UNL     1      -7.460  12.286  22.010  0.00  0.00    +0.000 C 
ATOM     15  O   UNL     1      -7.244  13.674  22.259  0.00  0.00    +0.000 OA
ATOM     16  C   UNL     1      -5.871  14.045  22.127  0.00  0.00    +0.000 C 
ATOM     17  C   UNL     1      -5.392  13.807  20.701  0.00  0.00    +0.000 C 
ENDBRANCH   7  12
BRANCH   1  18
ATOM     18  C   UNL     1      -0.282  11.623  19.202  0.00  0.00    +0.000 C 
BRANCH  18  24
ATOM     19  C   UNL     1      -0.190  10.871  21.711  0.00  0.00    +0.000 A 
ATOM     20  C   UNL     1       0.315   9.888  22.609  0.00  0.00    +0.000 A 
ATOM     21  C   UNL     1       1.034   8.768  22.192  0.00  0.00    +0.000 A 
ATOM     22  C   UNL     1       1.296   8.590  20.849  0.00  0.00    +0.000 A 
ATOM     23  C   UNL     1       0.836   9.531  19.936  0.00  0.00    +0.000 A 
ATOM     24  C   UNL     1       0.092  10.675  20.332  0.00  0.00    +0.000 A 
BRANCH  19  28
ATOM     25  C   UNL     1      -2.346  14.006  23.667  0.00  0.00    +0.000 A 
ATOM     26  C   UNL     1      -1.156  14.332  23.039  0.00  0.00    +0.000 A 
ATOM     27  C   UNL     1      -0.449  13.324  22.375  0.00  0.00    +0.000 A 
ATOM     28  C   UNL     1      -0.938  12.016  22.306  0.00  0.00    +0.000 A 
ATOM     29  C   UNL     1      -2.178  11.826  22.939  0.00  0.00    +0.000 A 
ATOM     30  N   UNL     1      -2.881  12.767  23.621  0.00  0.00    +0.000 NA
BRANCH  25  32
ATOM     31  N   UNL     1      -3.628  15.790  25.054  0.00  0.00    +0.000 NA
ATOM     32  C   UNL     1      -3.051  14.976  24.458  0.00  0.00    +0.000 C 
ENDBRANCH  25  32
ENDBRANCH  19  28
ENDBRANCH  18  24
ENDBRANCH   1  18
TORSDOF 5
ENDMDL
MODEL 5
REMARK VINA RESULT:      -8.1      2.512      3.617
REMARK  Name = 
REMARK  5 active torsions:
REMARK  status: ('A' for Active; 'I' for Inactive)
REMARK    1  A    between atoms: C_2  and  C_3
REMARK    2  A    between atoms: C_6  and  C_7
REMARK    3  A    between atoms: C_12  and  C_13
REMARK    4  A    between atoms: C_13  and  C_14
REMARK    5  A    between atoms: N_20  and  C_21
REMARK                            x       y       z     vdW  Elec       q    Type
REMARK                         _______ _______ _______ _____ _____    ______ ____
ROOT
ATOM      1  C   UNL     1       1.648   8.481  19.426  0.00  0.00    +0.000 A 
ATOM      2  N   UNL     1       0.667   9.153  18.879  0.00  0.00    +0.000 NA
ATOM      3  C   UNL     1       0.007   9.962  19.747  0.00  0.00    +0.000 A 
ATOM      4  C   UNL     1       0.287  10.126  21.084  0.00  0.00    +0.000 A 
ATOM      5  C   UNL     1      -0.689  10.995  21.579  0.00  0.00    +0.000 A 
ATOM      6  N   UNL     1      -1.542  11.379  20.626  0.00  0.00    +0.000 NA
ATOM      7  N   UNL     1      -1.100  10.741  19.508  0.00  0.00    +0.000 N 
ATOM      8  C   UNL     1       1.390   9.424  21.663  0.00  0.00    +0.000 A 
ATOM      9  O   UNL     1       1.732   9.514  22.834  0.00  0.00    +0.000 OA
ATOM     10  N   UNL     1       2.025   8.599  20.755  0.00  0.00    +0.000 N 
ATOM     11  H   UNL     1       2.796   8.065  21.128  0.00  0.00    +0.000 HD
ENDROOT
BRANCH   7  12
ATOM     12  C   UNL     1      -1.820  10.983  18.266  0.00  0.00    +0.000 C 
ATOM     13  C   UNL     1      -3.282  11.402  18.448  0.00  0.00    +0.000 C 
ATOM     14  C   UNL     1      -3.919  11.640  17.084  0.00  0.00    +0.000 C 
ATOM     15  O   UNL     1      -3.787  10.484  16.258  0.00  0.00    +0.000 OA
ATOM     16  C   UNL     1      -2.423  10.157  15.991  0.00  0.00    +0.000 C 
ATOM     17  C   UNL     1      -1.696   9.817  17.285  0.00  0.00    +0.000 C 
ENDBRANCH   7  12
BRANCH   1  18
ATOM     18  C   UNL     1       2.354   7.408  18.619  0.00  0.00    +0.000 C 
BRANCH  18  24
ATOM     19  C   UNL     1       3.384   5.001  18.743  0.00  0.00    +0.000 A 
ATOM     20  C   UNL     1       3.367   3.768  19.454  0.00  0.00    +0.000 A 
ATOM     21  C   UNL     1       2.602   3.556  20.602  0.00  0.00    +0.000 A 
ATOM     22  C   UNL     1       1.801   4.574  21.081  0.00  0.00    +0.000 A 
ATOM     23  C   UNL     1       1.775   5.792  20.412  0.00  0.00    +0.000 A 
ATOM     24  C   UNL     1       2.552   6.037  19.248  0.00  0.00    +0.000 A 
BRANCH  19  28
ATOM     25  C   UNL     1       6.091   5.268  15.441  0.00  0.00    +0.000 A 
ATOM     26  C   UNL     1       5.309   4.130  15.547  0.00  0.00    +0.000 A 
ATOM     27  C   UNL     1       4.402   4.035  16.608  0.00  0.00    +0.000 A 
ATOM     28  C   UNL     1       4.249   5.075  17.530  0.00  0.00    +0.000 A 
ATOM     29  C   UNL     1       5.063   6.194  17.284  0.00  0.00    +0.000 A 
ATOM     30  N   UNL     1       5.978   6.314  16.287  0.00  0.00    +0.000 NA
BRANCH  25  32
ATOM     31  N   UNL     1       7.974   5.473  13.663  0.00  0.00    +0.000 NA
ATOM     32  C   UNL     1       7.116   5.366  14.439  0.00  0.00    +0.000 C 
ENDBRANCH  25  32
ENDBRANCH  19  28
ENDBRANCH  18  24
ENDBRANCH   1  18
TORSDOF 5
ENDMDL
MODEL 6
REMARK VINA RESULT:      -8.1      2.608      8.650
REMARK  Name = 
REMARK  5 active torsions:
REMARK  status: ('A' for Active; 'I' for Inactive)
REMARK    1  A    between atoms: C_2  and  C_3
REMARK    2  A    between atoms: C_6  and  C_7
REMARK    3  A    between atoms: C_12  and  C_13
REMARK    4  A    between atoms: C_13  and  C_14
REMARK    5  A    between atoms: N_20  and  C_21
REMARK                            x       y       z     vdW  Elec       q    Type
REMARK                         _______ _______ _______ _____ _____    ______ ____
ROOT
ATOM      1  C   UNL     1       2.005   5.681  20.556  0.00  0.00    +0.000 A 
ATOM      2  N   UNL     1       3.034   5.541  19.759  0.00  0.00    +0.000 NA
ATOM      3  C   UNL     1       3.582   4.299  19.787  0.00  0.00    +0.000 A 
ATOM      4  C   UNL     1       3.151   3.232  20.542  0.00  0.00    +0.000 A 
ATOM      5  C   UNL     1       4.055   2.195  20.298  0.00  0.00    +0.000 A 
ATOM      6  N   UNL     1       5.006   2.559  19.433  0.00  0.00    +0.000 NA
ATOM      7  N   UNL     1       4.700   3.848  19.126  0.00  0.00    +0.000 N 
ATOM      8  C   UNL     1       1.998   3.380  21.374  0.00  0.00    +0.000 A 
ATOM      9  O   UNL     1       1.525   2.492  22.069  0.00  0.00    +0.000 OA
ATOM     10  N   UNL     1       1.479   4.660  21.333  0.00  0.00    +0.000 N 
ATOM     11  H   UNL     1       0.677   4.816  21.926  0.00  0.00    +0.000 HD
ENDROOT
BRANCH   7  12
ATOM     12  C   UNL     1       5.553   4.532  18.164  0.00  0.00    +0.000 C 
ATOM     13  C   UNL     1       6.378   5.682  18.748  0.00  0.00    +0.000 C 
ATOM     14  C   UNL     1       7.237   6.304  17.653  0.00  0.00    +0.000 C 
ATOM     15  O   UNL     1       6.428   6.722  16.555  0.00  0.00    +0.000 OA
ATOM     16  C   UNL     1       5.745   5.633  15.934  0.00  0.00    +0.000 C 
ATOM     17  C   UNL     1       4.786   4.976  16.919  0.00  0.00    +0.000 C 
ENDBRANCH   7  12
BRANCH   1  18
ATOM     18  C   UNL     1       1.407   7.059  20.761  0.00  0.00    +0.000 C 
BRANCH  18  24
ATOM     19  C   UNL     1       1.138   9.448  19.718  0.00  0.00    +0.000 A 
ATOM     20  C   UNL     1       1.444  10.263  18.591  0.00  0.00    +0.000 A 
ATOM     21  C   UNL     1       2.229   9.827  17.522  0.00  0.00    +0.000 A 
ATOM     22  C   UNL     1       2.731   8.541  17.528  0.00  0.00    +0.000 A 
ATOM     23  C   UNL     1       2.446   7.705  18.601  0.00  0.00    +0.000 A 
ATOM     24  C   UNL     1       1.659   8.126  19.707  0.00  0.00    +0.000 A 
BRANCH  19  28
ATOM     25  C   UNL     1      -1.538  11.165  22.580  0.00  0.00    +0.000 A 
ATOM     26  C   UNL     1      -0.809  10.052  22.962  0.00  0.00    +0.000 A 
ATOM     27  C   UNL     1       0.089   9.491  22.047  0.00  0.00    +0.000 A 
ATOM     28  C   UNL     1       0.283  10.052  20.781  0.00  0.00    +0.000 A 
ATOM     29  C   UNL     1      -0.478  11.207  20.534  0.00  0.00    +0.000 A 
ATOM     30  N   UNL     1      -1.382  11.765  21.381  0.00  0.00    +0.000 NA
BRANCH  25  32
ATOM     31  N   UNL     1      -3.397  12.103  24.134  0.00  0.00    +0.000 NA
ATOM     32  C   UNL     1      -2.553  11.710  23.438  0.00  0.00    +0.000 C 
ENDBRANCH  25  32
ENDBRANCH  19  28
ENDBRANCH  18  24
ENDBRANCH   1  18
TORSDOF 5
ENDMDL
MODEL 7
REMARK VINA RESULT:      -8.0      2.666      8.869
REMARK  Name = 
REMARK  5 active torsions:
REMARK  status: ('A' for Active; 'I' for Inactive)
REMARK    1  A    between atoms: C_2  and  C_3
REMARK    2  A    between atoms: C_6  and  C_7
REMARK    3  A    between atoms: C_12  and  C_13
REMARK    4  A    between atoms: C_13  and  C_14
REMARK    5  A    between atoms: N_20  and  C_21
REMARK                            x       y       z     vdW  Elec       q    Type
REMARK                         _______ _______ _______ _____ _____    ______ ____
ROOT
ATOM      1  C   UNL     1       1.876   5.965  20.534  0.00  0.00    +0.000 A 
ATOM      2  N   UNL     1       2.878   5.851  19.699  0.00  0.00    +0.000 NA
ATOM      3  C   UNL     1       3.451   4.620  19.696  0.00  0.00    +0.000 A 
ATOM      4  C   UNL     1       3.069   3.539  20.457  0.00  0.00    +0.000 A 
ATOM      5  C   UNL     1       3.984   2.522  20.171  0.00  0.00    +0.000 A 
ATOM      6  N   UNL     1       4.895   2.912  19.275  0.00  0.00    +0.000 NA
ATOM      7  N   UNL     1       4.553   4.197  18.990  0.00  0.00    +0.000 N 
ATOM      8  C   UNL     1       1.944   3.657  21.332  0.00  0.00    +0.000 A 
ATOM      9  O   UNL     1       1.515   2.755  22.036  0.00  0.00    +0.000 OA
ATOM     10  N   UNL     1       1.399   4.927  21.321  0.00  0.00    +0.000 N 
ATOM     11  H   UNL     1       0.617   5.062  21.944  0.00  0.00    +0.000 HD
ENDROOT
BRANCH   7  12
ATOM     12  C   UNL     1       5.356   4.905  18.004  0.00  0.00    +0.000 C 
ATOM     13  C   UNL     1       5.674   4.097  16.743  0.00  0.00    +0.000 C 
ATOM     14  C   UNL     1       6.501   4.947  15.785  0.00  0.00    +0.000 C 
ATOM     15  O   UNL     1       7.680   5.429  16.430  0.00  0.00    +0.000 OA
ATOM     16  C   UNL     1       7.387   6.277  17.540  0.00  0.00    +0.000 C 
ATOM     17  C   UNL     1       6.624   5.508  18.610  0.00  0.00    +0.000 C 
ENDBRANCH   7  12
BRANCH   1  18
ATOM     18  C   UNL     1       1.259   7.329  20.773  0.00  0.00    +0.000 C 
BRANCH  18  24
ATOM     19  C   UNL     1       0.978   9.746  19.801  0.00  0.00    +0.000 A 
ATOM     20  C   UNL     1       1.286  10.598  18.702  0.00  0.00    +0.000 A 
ATOM     21  C   UNL     1       2.083  10.201  17.627  0.00  0.00    +0.000 A 
ATOM     22  C   UNL     1       2.595   8.920  17.597  0.00  0.00    +0.000 A 
ATOM     23  C   UNL     1       2.309   8.048  18.642  0.00  0.00    +0.000 A 
ATOM     24  C   UNL     1       1.510   8.429  19.753  0.00  0.00    +0.000 A 
BRANCH  19  28
ATOM     25  C   UNL     1      -1.739  11.326  22.703  0.00  0.00    +0.000 A 
ATOM     26  C   UNL     1      -0.910  10.287  23.090  0.00  0.00    +0.000 A 
ATOM     27  C   UNL     1       0.001   9.772  22.161  0.00  0.00    +0.000 A 
ATOM     28  C   UNL     1       0.110  10.310  20.875  0.00  0.00    +0.000 A 
ATOM     29  C   UNL     1      -0.750  11.392  20.623  0.00  0.00    +0.000 A 
ATOM     30  N   UNL     1      -1.669  11.900  21.484  0.00  0.00    +0.000 NA
BRANCH  25  32
ATOM     31  N   UNL     1      -3.631  12.166  24.274  0.00  0.00    +0.000 NA
ATOM     32  C   UNL     1      -2.768  11.812  23.580  0.00  0.00    +0.000 C 
ENDBRANCH  25  32
ENDBRANCH  19  28
ENDBRANCH  18  24
ENDBRANCH   1  18
TORSDOF 5
ENDMDL
MODEL 8
REMARK VINA RESULT:      -7.9      3.164      4.417
REMARK  Name = 
REMARK  5 active torsions:
REMARK  status: ('A' for Active; 'I' for Inactive)
REMARK    1  A    between atoms: C_2  and  C_3
REMARK    2  A    between atoms: C_6  and  C_7
REMARK    3  A    between atoms: C_12  and  C_13
REMARK    4  A    between atoms: C_13  and  C_14
REMARK    5  A    between atoms: N_20  and  C_21
REMARK                            x       y       z     vdW  Elec       q    Type
REMARK                         _______ _______ _______ _____ _____    ______ ____
ROOT
ATOM      1  C   UNL     1       1.512   9.785  18.184  0.00  0.00    +0.000 A 
ATOM      2  N   UNL     1       2.142  10.909  18.418  0.00  0.00    +0.000 NA
ATOM      3  C   UNL     1       1.317  11.973  18.594  0.00  0.00    +0.000 A 
ATOM      4  C   UNL     1      -0.058  11.955  18.558  0.00  0.00    +0.000 A 
ATOM      5  C   UNL     1      -0.467  13.281  18.721  0.00  0.00    +0.000 A 
ATOM      6  N   UNL     1       0.574  14.107  18.864  0.00  0.00    +0.000 NA
ATOM      7  N   UNL     1       1.659  13.290  18.789  0.00  0.00    +0.000 N 
ATOM      8  C   UNL     1      -0.740  10.715  18.349  0.00  0.00    +0.000 A 
ATOM      9  O   UNL     1      -1.956  10.589  18.316  0.00  0.00    +0.000 OA
ATOM     10  N   UNL     1       0.132   9.661  18.156  0.00  0.00    +0.000 N 
ATOM     11  H   UNL     1      -0.308   8.769  17.980  0.00  0.00    +0.000 HD
ENDROOT
BRANCH   7  12
ATOM     12  C   UNL     1       2.973  13.900  18.941  0.00  0.00    +0.000 C 
ATOM     13  C   UNL     1       3.291  14.382  20.359  0.00  0.00    +0.000 C 
ATOM     14  C   UNL     1       4.691  14.983  20.394  0.00  0.00    +0.000 C 
ATOM     15  O   UNL     1       4.815  16.026  19.427  0.00  0.00    +0.000 OA
ATOM     16  C   UNL     1       4.632  15.557  18.091  0.00  0.00    +0.000 C 
ATOM     17  C   UNL     1       3.225  15.001  17.912  0.00  0.00    +0.000 C 
ENDBRANCH   7  12
BRANCH   1  18
ATOM     18  C   UNL     1       2.307   8.556  17.791  0.00  0.00    +0.000 C 
BRANCH  18  24
ATOM     19  C   UNL     1       3.164   6.217  18.606  0.00  0.00    +0.000 A 
ATOM     20  C   UNL     1       3.052   5.233  19.629  0.00  0.00    +0.000 A 
ATOM     21  C   UNL     1       2.260   5.398  20.766  0.00  0.00    +0.000 A 
ATOM     22  C   UNL     1       1.527   6.558  20.921  0.00  0.00    +0.000 A 
ATOM     23  C   UNL     1       1.595   7.541  19.941  0.00  0.00    +0.000 A 
ATOM     24  C   UNL     1       2.401   7.403  18.779  0.00  0.00    +0.000 A 
BRANCH  19  28
ATOM     25  C   UNL     1       5.918   5.411  15.433  0.00  0.00    +0.000 A 
ATOM     26  C   UNL     1       5.150   4.360  15.907  0.00  0.00    +0.000 A 
ATOM     27  C   UNL     1       4.228   4.610  16.929  0.00  0.00    +0.000 A 
ATOM     28  C   UNL     1       4.047   5.896  17.448  0.00  0.00    +0.000 A 
ATOM     29  C   UNL     1       4.848   6.882  16.848  0.00  0.00    +0.000 A 
ATOM     30  N   UNL     1       5.777   6.677  15.878  0.00  0.00    +0.000 NA
BRANCH  25  32
ATOM     31  N   UNL     1       7.813   5.053  13.692  0.00  0.00    +0.000 NA
ATOM     32  C   UNL     1       6.957   5.186  14.467  0.00  0.00    +0.000 C 
ENDBRANCH  25  32
ENDBRANCH  19  28
ENDBRANCH  18  24
ENDBRANCH   1  18
TORSDOF 5
ENDMDL
MODEL 9
REMARK VINA RESULT:      -7.8      5.863      9.620
REMARK  Name = 
REMARK  5 active torsions:
REMARK  status: ('A' for Active; 'I' for Inactive)
REMARK    1  A    between atoms: C_2  and  C_3
REMARK    2  A    between atoms: C_6  and  C_7
REMARK    3  A    between atoms: C_12  and  C_13
REMARK    4  A    between atoms: C_13  and  C_14
REMARK    5  A    between atoms: N_20  and  C_21
REMARK                            x       y       z     vdW  Elec       q    Type
REMARK                         _______ _______ _______ _____ _____    ______ ____
ROOT
ATOM      1  C   UNL     1      -1.798  11.667  18.917  0.00  0.00    +0.000 A 
ATOM      2  N   UNL     1      -2.901  12.100  19.474  0.00  0.00    +0.000 NA
ATOM      3  C   UNL     1      -3.980  12.066  18.652  0.00  0.00    +0.000 A 
ATOM      4  C   UNL     1      -4.001  11.623  17.348  0.00  0.00    +0.000 A 
ATOM      5  C   UNL     1      -5.301  11.840  16.887  0.00  0.00    +0.000 A 
ATOM      6  N   UNL     1      -6.079  12.379  17.830  0.00  0.00    +0.000 NA
ATOM      7  N   UNL     1      -5.258  12.507  18.906  0.00  0.00    +0.000 N 
ATOM      8  C   UNL     1      -2.802  11.108  16.762  0.00  0.00    +0.000 A 
ATOM      9  O   UNL     1      -2.718  10.676  15.622  0.00  0.00    +0.000 OA
ATOM     10  N   UNL     1      -1.723  11.175  17.623  0.00  0.00    +0.000 N 
ATOM     11  H   UNL     1      -0.850  10.844  17.240  0.00  0.00    +0.000 HD
ENDROOT
BRANCH   7  12
ATOM     12  C   UNL     1      -5.830  13.050  20.130  0.00  0.00    +0.000 C 
ATOM     13  C   UNL     1      -6.384  11.999  21.095  0.00  0.00    +0.000 C 
ATOM     14  C   UNL     1      -6.937  12.686  22.338  0.00  0.00    +0.000 C 
ATOM     15  O   UNL     1      -7.916  13.662  21.980  0.00  0.00    +0.000 OA
ATOM     16  C   UNL     1      -7.375  14.707  21.172  0.00  0.00    +0.000 C 
ATOM     17  C   UNL     1      -6.858  14.147  19.854  0.00  0.00    +0.000 C 
ENDBRANCH   7  12
BRANCH   1  18
ATOM     18  C   UNL     1      -0.484  11.816  19.657  0.00  0.00    +0.000 C 
BRANCH  18  24
ATOM     19  C   UNL     1      -0.512  10.918  22.120  0.00  0.00    +0.000 A 
ATOM     20  C   UNL     1      -0.030   9.898  22.988  0.00  0.00    +0.000 A 
ATOM     21  C   UNL     1       0.746   8.824  22.550  0.00  0.00    +0.000 A 
ATOM     22  C   UNL     1       1.089   8.734  21.215  0.00  0.00    +0.000 A 
ATOM     23  C   UNL     1       0.653   9.716  20.333  0.00  0.00    +0.000 A 
ATOM     24  C   UNL     1      -0.146  10.813  20.750  0.00  0.00    +0.000 A 
BRANCH  19  28
ATOM     25  C   UNL     1      -2.785  14.202  23.653  0.00  0.00    +0.000 A 
ATOM     26  C   UNL     1      -3.413  12.973  23.550  0.00  0.00    +0.000 A 
ATOM     27  C   UNL     1      -2.678  11.882  23.072  0.00  0.00    +0.000 A 
ATOM     28  C   UNL     1      -1.327  12.006  22.735  0.00  0.00    +0.000 A 
ATOM     29  C   UNL     1      -0.795  13.291  22.932  0.00  0.00    +0.000 A 
ATOM     30  N   UNL     1      -1.479  14.383  23.363  0.00  0.00    +0.000 NA
BRANCH  25  32
ATOM     31  N   UNL     1      -4.081  16.339  24.364  0.00  0.00    +0.000 NA
ATOM     32  C   UNL     1      -3.523  15.377  24.029  0.00  0.00    +0.000 C 
ENDBRANCH  25  32
ENDBRANCH  19  28
ENDBRANCH  18  24
ENDBRANCH   1  18
TORSDOF 5
ENDMDL
