MODEL 1
REMARK VINA RESULT:      -7.6      0.000      0.000
REMARK  Name = 
REMARK  4 active torsions:
REMARK  status: ('A' for Active; 'I' for Inactive)
REMARK    1  A    between atoms: C_1  and  C_2
REMARK    2  A    between atoms: C_2  and  O_3
REMARK    3  A    between atoms: O_3  and  C_4
REMARK    4  A    between atoms: C_11  and  C_12
REMARK                            x       y       z     vdW  Elec       q    Type
REMARK                         _______ _______ _______ _____ _____    ______ ____
ROOT
ATOM      1  C   UNL     1       5.963   3.487  12.273  0.00  0.00    +0.000 A 
ATOM      2  C   UNL     1       7.156   4.204  12.238  0.00  0.00    +0.000 A 
ATOM      3  C   UNL     1       7.590   4.904  13.367  0.00  0.00    +0.000 A 
ATOM      4  C   UNL     1       6.861   4.915  14.544  0.00  0.00    +0.000 A 
ATOM      5  N   UNL     1       7.341   5.599  15.591  0.00  0.00    +0.000 NA
ATOM      6  C   UNL     1       6.610   5.601  16.726  0.00  0.00    +0.000 A 
ATOM      7 CL   UNL     1       7.357   6.491  17.998  0.00  0.00    +0.000 Cl
ATOM      8  C   UNL     1       5.390   4.948  16.885  0.00  0.00    +0.000 A 
ATOM      9  C   UNL     1       4.908   4.235  15.783  0.00  0.00    +0.000 A 
ATOM     10  C   UNL     1       5.645   4.202  14.587  0.00  0.00    +0.000 A 
ATOM     11  C   UNL     1       5.209   3.490  13.450  0.00  0.00    +0.000 A 
ENDROOT
BRANCH   8  12
ATOM     12  C   UNL     1       4.613   4.991  18.129  0.00  0.00    +0.000 C 
ATOM     13  C   UNL     1       3.754   5.962  18.461  0.00  0.00    +0.000 C 
ATOM     14  S   UNL     1       3.308   7.351  17.538  0.00  0.00    +0.000 S 
ATOM     15  C   UNL     1       2.279   7.968  18.812  0.00  0.00    +0.000 C 
ATOM     16  S   UNL     1       1.408   9.375  18.781  0.00  0.00    +0.000 S 
ATOM     17  N   UNL     1       2.287   7.109  19.867  0.00  0.00    +0.000 N 
ATOM     18  C   UNL     1       3.052   5.981  19.773  0.00  0.00    +0.000 C 
ATOM     19  O   UNL     1       3.144   5.124  20.635  0.00  0.00    +0.000 OA
ATOM     20  H   UNL     1       1.753   7.289  20.704  0.00  0.00    +0.000 HD
ENDBRANCH   8  12
BRANCH   1  21
ATOM     21  O   UNL     1       5.443   2.757  11.239  0.00  0.00    +0.000 OA
BRANCH  21  23
ATOM     22  C   UNL     1       3.576   3.939  10.297  0.00  0.00    +0.000 C 
ATOM     23  C   UNL     1       4.017   2.746  11.125  0.00  0.00    +0.000 C 
ENDBRANCH  21  23
ENDBRANCH   1  21
TORSDOF 3
ENDMDL
MODEL 2
REMARK VINA RESULT:      -7.5      1.796      2.163
REMARK  Name = 
REMARK  4 active torsions:
REMARK  status: ('A' for Active; 'I' for Inactive)
REMARK    1  A    between atoms: C_1  and  C_2
REMARK    2  A    between atoms: C_2  and  O_3
REMARK    3  A    between atoms: O_3  and  C_4
REMARK    4  A    between atoms: C_11  and  C_12
REMARK                            x       y       z     vdW  Elec       q    Type
REMARK                         _______ _______ _______ _____ _____    ______ ____
ROOT
ATOM      1  C   UNL     1       5.754   3.461  12.345  0.00  0.00    +0.000 A 
ATOM      2  C   UNL     1       7.109   3.774  12.389  0.00  0.00    +0.000 A 
ATOM      3  C   UNL     1       7.627   4.515  13.455  0.00  0.00    +0.000 A 
ATOM      4  C   UNL     1       6.824   4.961  14.492  0.00  0.00    +0.000 A 
ATOM      5  N   UNL     1       7.388   5.656  15.488  0.00  0.00    +0.000 NA
ATOM      6  C   UNL     1       6.585   6.086  16.484  0.00  0.00    +0.000 A 
ATOM      7 CL   UNL     1       7.444   6.939  17.711  0.00  0.00    +0.000 Cl
ATOM      8  C   UNL     1       5.211   5.865  16.547  0.00  0.00    +0.000 A 
ATOM      9  C   UNL     1       4.642   5.132  15.502  0.00  0.00    +0.000 A 
ATOM     10  C   UNL     1       5.447   4.659  14.452  0.00  0.00    +0.000 A 
ATOM     11  C   UNL     1       4.925   3.907  13.379  0.00  0.00    +0.000 A 
ENDROOT
BRANCH   8  12
ATOM     12  C   UNL     1       4.367   6.367  17.637  0.00  0.00    +0.000 C 
ATOM     13  C   UNL     1       3.866   5.614  18.625  0.00  0.00    +0.000 C 
ATOM     14  S   UNL     1       4.101   3.926  18.901  0.00  0.00    +0.000 S 
ATOM     15  C   UNL     1       3.028   3.921  20.284  0.00  0.00    +0.000 C 
ATOM     16  S   UNL     1       2.626   2.613  21.216  0.00  0.00    +0.000 S 
ATOM     17  N   UNL     1       2.553   5.178  20.503  0.00  0.00    +0.000 N 
ATOM     18  C   UNL     1       2.956   6.174  19.660  0.00  0.00    +0.000 C 
ATOM     19  O   UNL     1       2.617   7.343  19.745  0.00  0.00    +0.000 OA
ATOM     20  H   UNL     1       1.916   5.381  21.259  0.00  0.00    +0.000 HD
ENDBRANCH   8  12
BRANCH   1  21
ATOM     21  O   UNL     1       5.135   2.737  11.362  0.00  0.00    +0.000 OA
BRANCH  21  23
ATOM     22  C   UNL     1       3.471   3.847  10.035  0.00  0.00    +0.000 C 
ATOM     23  C   UNL     1       3.726   2.935  11.220  0.00  0.00    +0.000 C 
ENDBRANCH  21  23
ENDBRANCH   1  21
TORSDOF 3
ENDMDL
MODEL 3
REMARK VINA RESULT:      -7.5      1.131      1.163
REMARK  Name = 
REMARK  4 active torsions:
REMARK  status: ('A' for Active; 'I' for Inactive)
REMARK    1  A    between atoms: C_1  and  C_2
REMARK    2  A    between atoms: C_2  and  O_3
REMARK    3  A    between atoms: O_3  and  C_4
REMARK    4  A    between atoms: C_11  and  C_12
REMARK                            x       y       z     vdW  Elec       q    Type
REMARK                         _______ _______ _______ _____ _____    ______ ____
ROOT
ATOM      1  C   UNL     1       6.175   3.952  12.814  0.00  0.00    +0.000 A 
ATOM      2  C   UNL     1       7.361   4.647  13.035  0.00  0.00    +0.000 A 
ATOM      3  C   UNL     1       7.701   5.065  14.325  0.00  0.00    +0.000 A 
ATOM      4  C   UNL     1       6.883   4.813  15.414  0.00  0.00    +0.000 A 
ATOM      5  N   UNL     1       7.276   5.233  16.624  0.00  0.00    +0.000 NA
ATOM      6  C   UNL     1       6.460   4.981  17.669  0.00  0.00    +0.000 A 
ATOM      7 CL   UNL     1       7.099   5.549  19.165  0.00  0.00    +0.000 Cl
ATOM      8  C   UNL     1       5.236   4.322  17.579  0.00  0.00    +0.000 A 
ATOM      9  C   UNL     1       4.847   3.885  16.310  0.00  0.00    +0.000 A 
ATOM     10  C   UNL     1       5.674   4.121  15.198  0.00  0.00    +0.000 A 
ATOM     11  C   UNL     1       5.333   3.692  13.899  0.00  0.00    +0.000 A 
ENDROOT
BRANCH   8  12
ATOM     12  C   UNL     1       4.366   4.085  18.737  0.00  0.00    +0.000 C 
ATOM     13  C   UNL     1       3.540   4.993  19.271  0.00  0.00    +0.000 C 
ATOM     14  S   UNL     1       3.251   6.610  18.742  0.00  0.00    +0.000 S 
ATOM     15  C   UNL     1       2.160   6.936  20.071  0.00  0.00    +0.000 C 
ATOM     16  S   UNL     1       1.377   8.362  20.378  0.00  0.00    +0.000 S 
ATOM     17  N   UNL     1       2.034   5.825  20.846  0.00  0.00    +0.000 N 
ATOM     18  C   UNL     1       2.737   4.709  20.491  0.00  0.00    +0.000 C 
ATOM     19  O   UNL     1       2.711   3.645  21.087  0.00  0.00    +0.000 OA
ATOM     20  H   UNL     1       1.445   5.812  21.666  0.00  0.00    +0.000 HD
ENDBRANCH   8  12
BRANCH   1  21
ATOM     21  O   UNL     1       5.742   3.484  11.603  0.00  0.00    +0.000 OA
BRANCH  21  23
ATOM     22  C   UNL     1       3.597   3.786  10.566  0.00  0.00    +0.000 C 
ATOM     23  C   UNL     1       4.406   2.976  11.561  0.00  0.00    +0.000 C 
ENDBRANCH  21  23
ENDBRANCH   1  21
TORSDOF 3
ENDMDL
MODEL 4
REMARK VINA RESULT:      -7.4      0.826      1.066
REMARK  Name = 
REMARK  4 active torsions:
REMARK  status: ('A' for Active; 'I' for Inactive)
REMARK    1  A    between atoms: C_1  and  C_2
REMARK    2  A    between atoms: C_2  and  O_3
REMARK    3  A    between atoms: O_3  and  C_4
REMARK    4  A    between atoms: C_11  and  C_12
REMARK                            x       y       z     vdW  Elec       q    Type
REMARK                         _______ _______ _______ _____ _____    ______ ____
ROOT
ATOM      1  C   UNL     1       6.250   3.773  12.288  0.00  0.00    +0.000 A 
ATOM      2  C   UNL     1       7.421   4.525  12.344  0.00  0.00    +0.000 A 
ATOM      3  C   UNL     1       7.795   5.157  13.533  0.00  0.00    +0.000 A 
ATOM      4  C   UNL     1       7.027   5.064  14.682  0.00  0.00    +0.000 A 
ATOM      5  N   UNL     1       7.451   5.685  15.790  0.00  0.00    +0.000 NA
ATOM      6  C   UNL     1       6.683   5.587  16.896  0.00  0.00    +0.000 A 
ATOM      7 CL   UNL     1       7.360   6.406  18.252  0.00  0.00    +0.000 Cl
ATOM      8  C   UNL     1       5.479   4.890  16.966  0.00  0.00    +0.000 A 
ATOM      9  C   UNL     1       5.057   4.242  15.802  0.00  0.00    +0.000 A 
ATOM     10  C   UNL     1       5.833   4.315  14.633  0.00  0.00    +0.000 A 
ATOM     11  C   UNL     1       5.458   3.672  13.435  0.00  0.00    +0.000 A 
ENDROOT
BRANCH   8  12
ATOM     12  C   UNL     1       4.661   4.822  18.182  0.00  0.00    +0.000 C 
ATOM     13  C   UNL     1       3.783   5.757  18.566  0.00  0.00    +0.000 C 
ATOM     14  S   UNL     1       3.356   7.217  17.748  0.00  0.00    +0.000 S 
ATOM     15  C   UNL     1       2.280   7.718  19.035  0.00  0.00    +0.000 C 
ATOM     16  S   UNL     1       1.399   9.118  19.093  0.00  0.00    +0.000 S 
ATOM     17  N   UNL     1       2.260   6.772  20.013  0.00  0.00    +0.000 N 
ATOM     18  C   UNL     1       3.037   5.661  19.849  0.00  0.00    +0.000 C 
ATOM     19  O   UNL     1       3.108   4.734  20.639  0.00  0.00    +0.000 OA
ATOM     20  H   UNL     1       1.697   6.878  20.843  0.00  0.00    +0.000 HD
ENDBRANCH   8  12
BRANCH   1  21
ATOM     21  O   UNL     1       5.787   3.103  11.188  0.00  0.00    +0.000 OA
BRANCH  21  23
ATOM     22  C   UNL     1       6.727   0.899  11.039  0.00  0.00    +0.000 C 
ATOM     23  C   UNL     1       5.492   1.716  11.368  0.00  0.00    +0.000 C 
ENDBRANCH  21  23
ENDBRANCH   1  21
TORSDOF 3
ENDMDL
MODEL 5
REMARK VINA RESULT:      -7.2      2.017      2.443
REMARK  Name = 
REMARK  4 active torsions:
REMARK  status: ('A' for Active; 'I' for Inactive)
REMARK    1  A    between atoms: C_1  and  C_2
REMARK    2  A    between atoms: C_2  and  O_3
REMARK    3  A    between atoms: O_3  and  C_4
REMARK    4  A    between atoms: C_11  and  C_12
REMARK                            x       y       z     vdW  Elec       q    Type
REMARK                         _______ _______ _______ _____ _____    ______ ____
ROOT
ATOM      1  C   UNL     1       6.055   3.336  12.615  0.00  0.00    +0.000 A 
ATOM      2  C   UNL     1       7.370   3.793  12.640  0.00  0.00    +0.000 A 
ATOM      3  C   UNL     1       7.796   4.655  13.655  0.00  0.00    +0.000 A 
ATOM      4  C   UNL     1       6.940   5.083  14.656  0.00  0.00    +0.000 A 
ATOM      5  N   UNL     1       7.418   5.900  15.604  0.00  0.00    +0.000 NA
ATOM      6  C   UNL     1       6.564   6.309  16.566  0.00  0.00    +0.000 A 
ATOM      7 CL   UNL     1       7.316   7.329  17.734  0.00  0.00    +0.000 Cl
ATOM      8  C   UNL     1       5.221   5.948  16.641  0.00  0.00    +0.000 A 
ATOM      9  C   UNL     1       4.743   5.090  15.647  0.00  0.00    +0.000 A 
ATOM     10  C   UNL     1       5.603   4.635  14.633  0.00  0.00    +0.000 A 
ATOM     11  C   UNL     1       5.174   3.761  13.613  0.00  0.00    +0.000 A 
ENDROOT
BRANCH   8  12
ATOM     12  C   UNL     1       4.318   6.431  17.692  0.00  0.00    +0.000 C 
ATOM     13  C   UNL     1       3.809   5.672  18.670  0.00  0.00    +0.000 C 
ATOM     14  S   UNL     1       4.098   3.999  18.979  0.00  0.00    +0.000 S 
ATOM     15  C   UNL     1       2.974   3.969  20.321  0.00  0.00    +0.000 C 
ATOM     16  S   UNL     1       2.588   2.659  21.255  0.00  0.00    +0.000 S 
ATOM     17  N   UNL     1       2.444   5.209  20.505  0.00  0.00    +0.000 N 
ATOM     18  C   UNL     1       2.840   6.210  19.663  0.00  0.00    +0.000 C 
ATOM     19  O   UNL     1       2.454   7.365  19.719  0.00  0.00    +0.000 OA
ATOM     20  H   UNL     1       1.772   5.397  21.233  0.00  0.00    +0.000 HD
ENDBRANCH   8  12
BRANCH   1  21
ATOM     21  O   UNL     1       5.527   2.485  11.682  0.00  0.00    +0.000 OA
BRANCH  21  23
ATOM     22  C   UNL     1       6.108   0.200  11.229  0.00  0.00    +0.000 C 
ATOM     23  C   UNL     1       6.457   1.655  10.981  0.00  0.00    +0.000 C 
ENDBRANCH  21  23
ENDBRANCH   1  21
TORSDOF 3
ENDMDL
MODEL 6
REMARK VINA RESULT:      -7.2      4.415      6.982
REMARK  Name = 
REMARK  4 active torsions:
REMARK  status: ('A' for Active; 'I' for Inactive)
REMARK    1  A    between atoms: C_1  and  C_2
REMARK    2  A    between atoms: C_2  and  O_3
REMARK    3  A    between atoms: O_3  and  C_4
REMARK    4  A    between atoms: C_11  and  C_12
REMARK                            x       y       z     vdW  Elec       q    Type
REMARK                         _______ _______ _______ _____ _____    ______ ____
ROOT
ATOM      1  C   UNL     1       3.986   5.570  17.811  0.00  0.00    +0.000 A 
ATOM      2  C   UNL     1       3.694   4.919  19.007  0.00  0.00    +0.000 A 
ATOM      3  C   UNL     1       2.880   5.534  19.962  0.00  0.00    +0.000 A 
ATOM      4  C   UNL     1       2.343   6.795  19.761  0.00  0.00    +0.000 A 
ATOM      5  N   UNL     1       1.562   7.320  20.714  0.00  0.00    +0.000 NA
ATOM      6  C   UNL     1       1.056   8.553  20.500  0.00  0.00    +0.000 A 
ATOM      7 CL   UNL     1       0.048   9.092  21.789  0.00  0.00    +0.000 Cl
ATOM      8  C   UNL     1       1.292   9.321  19.362  0.00  0.00    +0.000 A 
ATOM      9  C   UNL     1       2.104   8.753  18.376  0.00  0.00    +0.000 A 
ATOM     10  C   UNL     1       2.643   7.468  18.559  0.00  0.00    +0.000 A 
ATOM     11  C   UNL     1       3.460   6.846  17.592  0.00  0.00    +0.000 A 
ENDROOT
BRANCH   8  12
ATOM     12  C   UNL     1       0.741  10.667  19.174  0.00  0.00    +0.000 C 
ATOM     13  C   UNL     1      -0.351  10.952  18.453  0.00  0.00    +0.000 C 
ATOM     14  S   UNL     1      -1.392   9.856  17.619  0.00  0.00    +0.000 S 
ATOM     15  C   UNL     1      -2.377  11.153  16.978  0.00  0.00    +0.000 C 
ATOM     16  S   UNL     1      -3.688  10.995  15.979  0.00  0.00    +0.000 S 
ATOM     17  N   UNL     1      -1.911  12.350  17.426  0.00  0.00    +0.000 N 
ATOM     18  C   UNL     1      -0.816  12.350  18.243  0.00  0.00    +0.000 C 
ATOM     19  O   UNL     1      -0.300  13.345  18.723  0.00  0.00    +0.000 OA
ATOM     20  H   UNL     1      -2.347  13.222  17.166  0.00  0.00    +0.000 HD
ENDBRANCH   8  12
BRANCH   1  21
ATOM     21  O   UNL     1       4.760   5.068  16.800  0.00  0.00    +0.000 OA
BRANCH  21  23
ATOM     22  C   UNL     1       7.026   5.850  16.946  0.00  0.00    +0.000 C 
ATOM     23  C   UNL     1       6.089   4.675  17.154  0.00  0.00    +0.000 C 
ENDBRANCH  21  23
ENDBRANCH   1  21
TORSDOF 3
ENDMDL
MODEL 7
REMARK VINA RESULT:      -6.9      5.103      7.339
REMARK  Name = 
REMARK  4 active torsions:
REMARK  status: ('A' for Active; 'I' for Inactive)
REMARK    1  A    between atoms: C_1  and  C_2
REMARK    2  A    between atoms: C_2  and  O_3
REMARK    3  A    between atoms: O_3  and  C_4
REMARK    4  A    between atoms: C_11  and  C_12
REMARK                            x       y       z     vdW  Elec       q    Type
REMARK                         _______ _______ _______ _____ _____    ______ ____
ROOT
ATOM      1  C   UNL     1       3.171   5.063  18.568  0.00  0.00    +0.000 A 
ATOM      2  C   UNL     1       2.876   4.681  19.874  0.00  0.00    +0.000 A 
ATOM      3  C   UNL     1       2.236   5.571  20.740  0.00  0.00    +0.000 A 
ATOM      4  C   UNL     1       1.879   6.848  20.342  0.00  0.00    +0.000 A 
ATOM      5  N   UNL     1       1.258   7.645  21.221  0.00  0.00    +0.000 NA
ATOM      6  C   UNL     1       0.926   8.889  20.813  0.00  0.00    +0.000 A 
ATOM      7 CL   UNL     1       0.109   9.793  22.031  0.00  0.00    +0.000 Cl
ATOM      8  C   UNL     1       1.187   9.404  19.546  0.00  0.00    +0.000 A 
ATOM      9  C   UNL     1       1.830   8.555  18.640  0.00  0.00    +0.000 A 
ATOM     10  C   UNL     1       2.184   7.251  19.025  0.00  0.00    +0.000 A 
ATOM     11  C   UNL     1       2.825   6.351  18.148  0.00  0.00    +0.000 A 
ENDROOT
BRANCH   8  12
ATOM     12  C   UNL     1       0.829  10.769  19.145  0.00  0.00    +0.000 C 
ATOM     13  C   UNL     1      -0.321  11.115  18.553  0.00  0.00    +0.000 C 
ATOM     14  S   UNL     1      -1.661  10.101  18.155  0.00  0.00    +0.000 S 
ATOM     15  C   UNL     1      -2.533  11.415  17.396  0.00  0.00    +0.000 C 
ATOM     16  S   UNL     1      -4.018  11.323  16.670  0.00  0.00    +0.000 S 
ATOM     17  N   UNL     1      -1.807  12.562  17.486  0.00  0.00    +0.000 N 
ATOM     18  C   UNL     1      -0.591  12.508  18.106  0.00  0.00    +0.000 C 
ATOM     19  O   UNL     1       0.156  13.458  18.265  0.00  0.00    +0.000 OA
ATOM     20  H   UNL     1      -2.142  13.435  17.106  0.00  0.00    +0.000 HD
ENDBRANCH   8  12
BRANCH   1  21
ATOM     21  O   UNL     1       3.783   4.279  17.628  0.00  0.00    +0.000 OA
BRANCH  21  23
ATOM     22  C   UNL     1       2.617   2.184  17.503  0.00  0.00    +0.000 C 
ATOM     23  C   UNL     1       3.890   2.887  17.935  0.00  0.00    +0.000 C 
ENDBRANCH  21  23
ENDBRANCH   1  21
TORSDOF 3
ENDMDL
MODEL 8
REMARK VINA RESULT:      -6.8      3.263      4.576
REMARK  Name = 
REMARK  4 active torsions:
REMARK  status: ('A' for Active; 'I' for Inactive)
REMARK    1  A    between atoms: C_1  and  C_2
REMARK    2  A    between atoms: C_2  and  O_3
REMARK    3  A    between atoms: O_3  and  C_4
REMARK    4  A    between atoms: C_11  and  C_12
REMARK                            x       y       z     vdW  Elec       q    Type
REMARK                         _______ _______ _______ _____ _____    ______ ____
ROOT
ATOM      1  C   UNL     1       5.427   5.312  15.820  0.00  0.00    +0.000 A 
ATOM      2  C   UNL     1       4.969   3.998  15.854  0.00  0.00    +0.000 A 
ATOM      3  C   UNL     1       4.007   3.612  16.792  0.00  0.00    +0.000 A 
ATOM      4  C   UNL     1       3.484   4.505  17.711  0.00  0.00    +0.000 A 
ATOM      5  N   UNL     1       2.557   4.070  18.575  0.00  0.00    +0.000 NA
ATOM      6  C   UNL     1       2.066   4.957  19.466  0.00  0.00    +0.000 A 
ATOM      7 CL   UNL     1       0.864   4.273  20.494  0.00  0.00    +0.000 Cl
ATOM      8  C   UNL     1       2.458   6.291  19.557  0.00  0.00    +0.000 A 
ATOM      9  C   UNL     1       3.421   6.728  18.642  0.00  0.00    +0.000 A 
ATOM     10  C   UNL     1       3.950   5.836  17.694  0.00  0.00    +0.000 A 
ATOM     11  C   UNL     1       4.915   6.229  16.744  0.00  0.00    +0.000 A 
ENDROOT
BRANCH   8  12
ATOM     12  C   UNL     1       1.916   7.221  20.553  0.00  0.00    +0.000 C 
ATOM     13  C   UNL     1       1.472   8.455  20.286  0.00  0.00    +0.000 C 
ATOM     14  S   UNL     1       1.378   9.244  18.753  0.00  0.00    +0.000 S 
ATOM     15  C   UNL     1       0.790  10.731  19.463  0.00  0.00    +0.000 C 
ATOM     16  S   UNL     1       0.427  12.132  18.659  0.00  0.00    +0.000 S 
ATOM     17  N   UNL     1       0.664  10.580  20.810  0.00  0.00    +0.000 N 
ATOM     18  C   UNL     1       1.001   9.374  21.356  0.00  0.00    +0.000 C 
ATOM     19  O   UNL     1       0.928   9.099  22.542  0.00  0.00    +0.000 OA
ATOM     20  H   UNL     1       0.337  11.330  21.400  0.00  0.00    +0.000 HD
ENDBRANCH   8  12
BRANCH   1  21
ATOM     21  O   UNL     1       6.354   5.809  14.945  0.00  0.00    +0.000 OA
BRANCH  21  23
ATOM     22  C   UNL     1       7.898   5.568  13.122  0.00  0.00    +0.000 C 
ATOM     23  C   UNL     1       7.079   4.846  14.175  0.00  0.00    +0.000 C 
ENDBRANCH  21  23
ENDBRANCH   1  21
TORSDOF 3
ENDMDL
MODEL 9
REMARK VINA RESULT:      -6.7      1.971      2.365
REMARK  Name = 
REMARK  4 active torsions:
REMARK  status: ('A' for Active; 'I' for Inactive)
REMARK    1  A    between atoms: C_1  and  C_2
REMARK    2  A    between atoms: C_2  and  O_3
REMARK    3  A    between atoms: O_3  and  C_4
REMARK    4  A    between atoms: C_11  and  C_12
REMARK                            x       y       z     vdW  Elec       q    Type
REMARK                         _______ _______ _______ _____ _____    ______ ____
ROOT
ATOM      1  C   UNL     1       6.117   3.761  12.298  0.00  0.00    +0.000 A 
ATOM      2  C   UNL     1       7.422   4.245  12.342  0.00  0.00    +0.000 A 
ATOM      3  C   UNL     1       7.872   4.957  13.457  0.00  0.00    +0.000 A 
ATOM      4  C   UNL     1       7.049   5.209  14.542  0.00  0.00    +0.000 A 
ATOM      5  N   UNL     1       7.549   5.889  15.583  0.00  0.00    +0.000 NA
ATOM      6  C   UNL     1       6.727   6.128  16.627  0.00  0.00    +0.000 A 
ATOM      7 CL   UNL     1       7.504   6.983  17.905  0.00  0.00    +0.000 Cl
ATOM      8  C   UNL     1       5.395   5.724  16.697  0.00  0.00    +0.000 A 
ATOM      9  C   UNL     1       4.895   5.011  15.605  0.00  0.00    +0.000 A 
ATOM     10  C   UNL     1       5.722   4.734  14.503  0.00  0.00    +0.000 A 
ATOM     11  C   UNL     1       5.269   4.010  13.381  0.00  0.00    +0.000 A 
ENDROOT
BRANCH   8  12
ATOM     12  C   UNL     1       4.526   6.022  17.841  0.00  0.00    +0.000 C 
ATOM     13  C   UNL     1       3.564   5.212  18.301  0.00  0.00    +0.000 C 
ATOM     14  S   UNL     1       3.127   3.644  17.727  0.00  0.00    +0.000 S 
ATOM     15  C   UNL     1       1.803   3.508  18.863  0.00  0.00    +0.000 C 
ATOM     16  S   UNL     1       0.754   2.235  19.006  0.00  0.00    +0.000 S 
ATOM     17  N   UNL     1       1.748   4.622  19.642  0.00  0.00    +0.000 N 
ATOM     18  C   UNL     1       2.669   5.607  19.422  0.00  0.00    +0.000 C 
ATOM     19  O   UNL     1       2.741   6.650  20.050  0.00  0.00    +0.000 OA
ATOM     20  H   UNL     1       1.050   4.734  20.361  0.00  0.00    +0.000 HD
ENDBRANCH   8  12
BRANCH   1  21
ATOM     21  O   UNL     1       5.568   3.045  11.269  0.00  0.00    +0.000 OA
BRANCH  21  23
ATOM     22  C   UNL     1       6.819   1.023  10.925  0.00  0.00    +0.000 C 
ATOM     23  C   UNL     1       5.524   1.625  11.438  0.00  0.00    +0.000 C 
ENDBRANCH  21  23
ENDBRANCH   1  21
TORSDOF 3
ENDMDL
