MODEL 1
REMARK VINA RESULT:      -7.4      0.000      0.000
REMARK  Name = 
REMARK  7 active torsions:
REMARK  status: ('A' for Active; 'I' for Inactive)
REMARK    1  A    between atoms: C_1  and  C_2
REMARK    2  A    between atoms: C_5  and  C_6
REMARK    3  A    between atoms: C_12  and  C_13
REMARK    4  A    between atoms: C_13  and  O_15
REMARK    5  A    between atoms: O_15  and  C_16
REMARK    6  A    between atoms: C_16  and  C_17
REMARK    7  A    between atoms: N_20  and  C_21
REMARK                            x       y       z     vdW  Elec       q    Type
REMARK                         _______ _______ _______ _____ _____    ______ ____
ROOT
ATOM      1  C   UNL     1       2.745   5.800  19.290  0.00  0.00    +0.000 C 
ATOM      2  C   UNL     1       1.675   4.699  19.549  0.00  0.00    +0.000 C 
ATOM      3  C   UNL     1       2.275   3.274  19.431  0.00  0.00    +0.000 C 
ATOM      4  C   UNL     1       2.272   2.672  18.007  0.00  0.00    +0.000 C 
ATOM      5  C   UNL     1       3.682   2.915  17.455  0.00  0.00    +0.000 C 
ATOM      6  C   UNL     1       4.245   3.952  18.430  0.00  0.00    +0.000 C 
ATOM      7  C   UNL     1       3.581   5.343  18.085  0.00  0.00    +0.000 C 
ATOM      8  N   UNL     1       3.705   3.435  19.729  0.00  0.00    +0.000 NA
ATOM      9  C   UNL     1       4.297   2.206  20.246  0.00  0.00    +0.000 C 
ENDROOT
BRANCH   1  14
ATOM     10  C   UNL     1       0.648  11.228  19.243  0.00  0.00    +0.000 C 
ATOM     11  C   UNL     1       1.125   9.810  19.240  0.00  0.00    +0.000 A 
ATOM     12  C   UNL     1       1.230   9.094  20.431  0.00  0.00    +0.000 A 
ATOM     13  C   UNL     1       1.734   7.798  20.423  0.00  0.00    +0.000 A 
ATOM     14  C   UNL     1       2.156   7.189  19.228  0.00  0.00    +0.000 A 
ATOM     15  C   UNL     1       2.032   7.903  18.037  0.00  0.00    +0.000 A 
ATOM     16  C   UNL     1       1.522   9.202  18.040  0.00  0.00    +0.000 A 
ENDBRANCH   1  14
BRANCH   7  17
ATOM     17  C   UNL     1       4.500   6.408  17.511  0.00  0.00    +0.000 C 
ATOM     18  O   UNL     1       4.242   6.986  16.461  0.00  0.00    +0.000 OA
BRANCH  17  19
ATOM     19  O   UNL     1       5.611   6.621  18.263  0.00  0.00    +0.000 OA
BRANCH  19  20
ATOM     20  C   UNL     1       6.842   6.679  17.520  0.00  0.00    +0.000 C 
BRANCH  20  21
ATOM     21  C   UNL     1       7.438   5.307  17.518  0.00  0.00    +0.000 C 
ATOM     22  C   UNL     1       7.381   4.378  16.552  0.00  0.00    +0.000 C 
ATOM     23  I   UNL     1       6.471   4.562  14.731  0.00  0.00    +0.000 I 
ENDBRANCH  20  21
ENDBRANCH  19  20
ENDBRANCH  17  19
ENDBRANCH   7  17
TORSDOF 5
ENDMDL
MODEL 2
REMARK VINA RESULT:      -7.4      0.095      1.009
REMARK  Name = 
REMARK  7 active torsions:
REMARK  status: ('A' for Active; 'I' for Inactive)
REMARK    1  A    between atoms: C_1  and  C_2
REMARK    2  A    between atoms: C_5  and  C_6
REMARK    3  A    between atoms: C_12  and  C_13
REMARK    4  A    between atoms: C_13  and  O_15
REMARK    5  A    between atoms: O_15  and  C_16
REMARK    6  A    between atoms: C_16  and  C_17
REMARK    7  A    between atoms: N_20  and  C_21
REMARK                            x       y       z     vdW  Elec       q    Type
REMARK                         _______ _______ _______ _____ _____    ______ ____
ROOT
ATOM      1  C   UNL     1       2.785   5.828  19.356  0.00  0.00    +0.000 C 
ATOM      2  C   UNL     1       1.714   4.733  19.636  0.00  0.00    +0.000 C 
ATOM      3  C   UNL     1       2.297   3.304  19.480  0.00  0.00    +0.000 C 
ATOM      4  C   UNL     1       2.240   2.720  18.050  0.00  0.00    +0.000 C 
ATOM      5  C   UNL     1       3.633   2.958  17.454  0.00  0.00    +0.000 C 
ATOM      6  C   UNL     1       4.238   3.977  18.423  0.00  0.00    +0.000 C 
ATOM      7  C   UNL     1       3.577   5.378  18.117  0.00  0.00    +0.000 C 
ATOM      8  N   UNL     1       3.737   3.449  19.732  0.00  0.00    +0.000 NA
ATOM      9  C   UNL     1       4.334   2.208  20.214  0.00  0.00    +0.000 C 
ENDROOT
BRANCH   1  14
ATOM     10  C   UNL     1       0.386  11.121  19.064  0.00  0.00    +0.000 C 
ATOM     11  C   UNL     1       1.062   9.790  19.153  0.00  0.00    +0.000 A 
ATOM     12  C   UNL     1       1.524   9.150  18.005  0.00  0.00    +0.000 A 
ATOM     13  C   UNL     1       2.094   7.884  18.094  0.00  0.00    +0.000 A 
ATOM     14  C   UNL     1       2.207   7.223  19.330  0.00  0.00    +0.000 A 
ATOM     15  C   UNL     1       1.761   7.876  20.478  0.00  0.00    +0.000 A 
ATOM     16  C   UNL     1       1.192   9.147  20.394  0.00  0.00    +0.000 A 
ENDBRANCH   1  14
BRANCH   7  17
ATOM     17  C   UNL     1       4.486   6.443  17.526  0.00  0.00    +0.000 C 
ATOM     18  O   UNL     1       4.210   7.020  16.480  0.00  0.00    +0.000 OA
BRANCH  17  19
ATOM     19  O   UNL     1       5.610   6.656  18.259  0.00  0.00    +0.000 OA
BRANCH  19  20
ATOM     20  C   UNL     1       6.829   6.696  17.497  0.00  0.00    +0.000 C 
BRANCH  20  21
ATOM     21  C   UNL     1       7.420   5.323  17.508  0.00  0.00    +0.000 C 
ATOM     22  C   UNL     1       7.363   4.386  16.549  0.00  0.00    +0.000 C 
ATOM     23  I   UNL     1       6.463   4.560  14.723  0.00  0.00    +0.000 I 
ENDBRANCH  20  21
ENDBRANCH  19  20
ENDBRANCH  17  19
ENDBRANCH   7  17
TORSDOF 5
ENDMDL
MODEL 3
REMARK VINA RESULT:      -7.4      2.448      4.251
REMARK  Name = 
REMARK  7 active torsions:
REMARK  status: ('A' for Active; 'I' for Inactive)
REMARK    1  A    between atoms: C_1  and  C_2
REMARK    2  A    between atoms: C_5  and  C_6
REMARK    3  A    between atoms: C_12  and  C_13
REMARK    4  A    between atoms: C_13  and  O_15
REMARK    5  A    between atoms: O_15  and  C_16
REMARK    6  A    between atoms: C_16  and  C_17
REMARK    7  A    between atoms: N_20  and  C_21
REMARK                            x       y       z     vdW  Elec       q    Type
REMARK                         _______ _______ _______ _____ _____    ______ ____
ROOT
ATOM      1  C   UNL     1       3.451   6.654  17.514  0.00  0.00    +0.000 C 
ATOM      2  C   UNL     1       4.963   7.022  17.584  0.00  0.00    +0.000 C 
ATOM      3  C   UNL     1       5.847   5.963  16.876  0.00  0.00    +0.000 C 
ATOM      4  C   UNL     1       6.293   4.777  17.761  0.00  0.00    +0.000 C 
ATOM      5  C   UNL     1       5.315   3.638  17.445  0.00  0.00    +0.000 C 
ATOM      6  C   UNL     1       4.184   4.367  16.714  0.00  0.00    +0.000 C 
ATOM      7  C   UNL     1       3.340   5.148  17.798  0.00  0.00    +0.000 C 
ATOM      8  N   UNL     1       4.968   5.334  15.881  0.00  0.00    +0.000 NA
ATOM      9  C   UNL     1       5.720   4.780  14.761  0.00  0.00    +0.000 C 
ENDROOT
BRANCH   1  14
ATOM     10  C   UNL     1      -0.093  10.156  20.519  0.00  0.00    +0.000 C 
ATOM     11  C   UNL     1       0.870   9.294  19.766  0.00  0.00    +0.000 A 
ATOM     12  C   UNL     1       1.086   9.493  18.404  0.00  0.00    +0.000 A 
ATOM     13  C   UNL     1       1.935   8.645  17.701  0.00  0.00    +0.000 A 
ATOM     14  C   UNL     1       2.583   7.573  18.340  0.00  0.00    +0.000 A 
ATOM     15  C   UNL     1       2.378   7.389  19.707  0.00  0.00    +0.000 A 
ATOM     16  C   UNL     1       1.530   8.240  20.416  0.00  0.00    +0.000 A 
ENDBRANCH   1  14
BRANCH   7  17
ATOM     17  C   UNL     1       1.924   4.651  18.041  0.00  0.00    +0.000 C 
ATOM     18  O   UNL     1       1.171   4.373  17.116  0.00  0.00    +0.000 OA
BRANCH  17  19
ATOM     19  O   UNL     1       1.601   4.575  19.358  0.00  0.00    +0.000 OA
BRANCH  19  20
ATOM     20  C   UNL     1       0.927   3.364  19.744  0.00  0.00    +0.000 C 
BRANCH  20  21
ATOM     21  C   UNL     1       1.327   3.046  21.149  0.00  0.00    +0.000 C 
ATOM     22  C   UNL     1       2.495   2.554  21.590  0.00  0.00    +0.000 C 
ATOM     23  I   UNL     1       4.137   2.108  20.458  0.00  0.00    +0.000 I 
ENDBRANCH  20  21
ENDBRANCH  19  20
ENDBRANCH  17  19
ENDBRANCH   7  17
TORSDOF 5
ENDMDL
MODEL 4
REMARK VINA RESULT:      -7.3      2.441      4.161
REMARK  Name = 
REMARK  7 active torsions:
REMARK  status: ('A' for Active; 'I' for Inactive)
REMARK    1  A    between atoms: C_1  and  C_2
REMARK    2  A    between atoms: C_5  and  C_6
REMARK    3  A    between atoms: C_12  and  C_13
REMARK    4  A    between atoms: C_13  and  O_15
REMARK    5  A    between atoms: O_15  and  C_16
REMARK    6  A    between atoms: C_16  and  C_17
REMARK    7  A    between atoms: N_20  and  C_21
REMARK                            x       y       z     vdW  Elec       q    Type
REMARK                         _______ _______ _______ _____ _____    ______ ____
ROOT
ATOM      1  C   UNL     1       3.377   6.708  17.500  0.00  0.00    +0.000 C 
ATOM      2  C   UNL     1       4.874   7.131  17.572  0.00  0.00    +0.000 C 
ATOM      3  C   UNL     1       5.801   6.085  16.900  0.00  0.00    +0.000 C 
ATOM      4  C   UNL     1       6.280   4.939  17.819  0.00  0.00    +0.000 C 
ATOM      5  C   UNL     1       5.345   3.759  17.526  0.00  0.00    +0.000 C 
ATOM      6  C   UNL     1       4.196   4.427  16.768  0.00  0.00    +0.000 C 
ATOM      7  C   UNL     1       3.316   5.206  17.824  0.00  0.00    +0.000 C 
ATOM      8  N   UNL     1       4.953   5.400  15.915  0.00  0.00    +0.000 NA
ATOM      9  C   UNL     1       5.733   4.843  14.816  0.00  0.00    +0.000 C 
ENDROOT
BRANCH   1  14
ATOM     10  C   UNL     1       0.086  10.250  20.738  0.00  0.00    +0.000 C 
ATOM     11  C   UNL     1       0.877   9.304  19.891  0.00  0.00    +0.000 A 
ATOM     12  C   UNL     1       1.550   8.229  20.466  0.00  0.00    +0.000 A 
ATOM     13  C   UNL     1       2.333   7.393  19.677  0.00  0.00    +0.000 A 
ATOM     14  C   UNL     1       2.470   7.617  18.295  0.00  0.00    +0.000 A 
ATOM     15  C   UNL     1       1.779   8.683  17.721  0.00  0.00    +0.000 A 
ATOM     16  C   UNL     1       0.989   9.521  18.509  0.00  0.00    +0.000 A 
ENDBRANCH   1  14
BRANCH   7  17
ATOM     17  C   UNL     1       1.917   4.667  18.069  0.00  0.00    +0.000 C 
ATOM     18  O   UNL     1       1.170   4.366  17.145  0.00  0.00    +0.000 OA
BRANCH  17  19
ATOM     19  O   UNL     1       1.598   4.581  19.386  0.00  0.00    +0.000 OA
BRANCH  19  20
ATOM     20  C   UNL     1       0.915   3.372  19.764  0.00  0.00    +0.000 C 
BRANCH  20  21
ATOM     21  C   UNL     1       1.324   3.034  21.162  0.00  0.00    +0.000 C 
ATOM     22  C   UNL     1       2.497   2.539  21.588  0.00  0.00    +0.000 C 
ATOM     23  I   UNL     1       4.134   2.117  20.440  0.00  0.00    +0.000 I 
ENDBRANCH  20  21
ENDBRANCH  19  20
ENDBRANCH  17  19
ENDBRANCH   7  17
TORSDOF 5
ENDMDL
MODEL 5
REMARK VINA RESULT:      -7.3      2.691      5.374
REMARK  Name = 
REMARK  7 active torsions:
REMARK  status: ('A' for Active; 'I' for Inactive)
REMARK    1  A    between atoms: C_1  and  C_2
REMARK    2  A    between atoms: C_5  and  C_6
REMARK    3  A    between atoms: C_12  and  C_13
REMARK    4  A    between atoms: C_13  and  O_15
REMARK    5  A    between atoms: O_15  and  C_16
REMARK    6  A    between atoms: C_16  and  C_17
REMARK    7  A    between atoms: N_20  and  C_21
REMARK                            x       y       z     vdW  Elec       q    Type
REMARK                         _______ _______ _______ _____ _____    ______ ____
ROOT
ATOM      1  C   UNL     1       3.741   4.517  18.593  0.00  0.00    +0.000 C 
ATOM      2  C   UNL     1       4.095   3.139  19.227  0.00  0.00    +0.000 C 
ATOM      3  C   UNL     1       2.826   2.365  19.668  0.00  0.00    +0.000 C 
ATOM      4  C   UNL     1       2.325   2.676  21.096  0.00  0.00    +0.000 C 
ATOM      5  C   UNL     1       1.195   3.699  20.922  0.00  0.00    +0.000 C 
ATOM      6  C   UNL     1       1.395   4.170  19.479  0.00  0.00    +0.000 C 
ATOM      7  C   UNL     1       2.639   5.143  19.463  0.00  0.00    +0.000 C 
ATOM      8  N   UNL     1       1.748   2.877  18.810  0.00  0.00    +0.000 NA
ATOM      9  C   UNL     1       0.673   1.905  18.646  0.00  0.00    +0.000 C 
ENDROOT
BRANCH   1  14
ATOM     10  C   UNL     1       8.268   8.004  17.498  0.00  0.00    +0.000 C 
ATOM     11  C   UNL     1       7.136   7.058  17.746  0.00  0.00    +0.000 A 
ATOM     12  C   UNL     1       6.019   7.054  16.914  0.00  0.00    +0.000 A 
ATOM     13  C   UNL     1       4.945   6.214  17.192  0.00  0.00    +0.000 A 
ATOM     14  C   UNL     1       4.958   5.366  18.313  0.00  0.00    +0.000 A 
ATOM     15  C   UNL     1       6.086   5.360  19.132  0.00  0.00    +0.000 A 
ATOM     16  C   UNL     1       7.166   6.198  18.854  0.00  0.00    +0.000 A 
ENDBRANCH   1  14
BRANCH   7  17
ATOM     17  C   UNL     1       2.351   6.605  19.164  0.00  0.00    +0.000 C 
ATOM     18  O   UNL     1       2.082   6.992  18.032  0.00  0.00    +0.000 OA
BRANCH  17  19
ATOM     19  O   UNL     1       2.442   7.405  20.258  0.00  0.00    +0.000 OA
BRANCH  19  20
ATOM     20  C   UNL     1       1.237   7.500  21.038  0.00  0.00    +0.000 C 
BRANCH  20  21
ATOM     21  C   UNL     1       1.225   8.842  21.698  0.00  0.00    +0.000 C 
ATOM     22  C   UNL     1       0.854  10.021  21.176  0.00  0.00    +0.000 C 
ATOM     23  I   UNL     1       0.146  10.354  19.289  0.00  0.00    +0.000 I 
ENDBRANCH  20  21
ENDBRANCH  19  20
ENDBRANCH  17  19
ENDBRANCH   7  17
TORSDOF 5
ENDMDL
MODEL 6
REMARK VINA RESULT:      -7.1      2.729      5.884
REMARK  Name = 
REMARK  7 active torsions:
REMARK  status: ('A' for Active; 'I' for Inactive)
REMARK    1  A    between atoms: C_1  and  C_2
REMARK    2  A    between atoms: C_5  and  C_6
REMARK    3  A    between atoms: C_12  and  C_13
REMARK    4  A    between atoms: C_13  and  O_15
REMARK    5  A    between atoms: O_15  and  C_16
REMARK    6  A    between atoms: C_16  and  C_17
REMARK    7  A    between atoms: N_20  and  C_21
REMARK                            x       y       z     vdW  Elec       q    Type
REMARK                         _______ _______ _______ _____ _____    ______ ____
ROOT
ATOM      1  C   UNL     1       3.821   3.815  17.227  0.00  0.00    +0.000 C 
ATOM      2  C   UNL     1       3.993   2.432  17.921  0.00  0.00    +0.000 C 
ATOM      3  C   UNL     1       2.931   2.207  19.029  0.00  0.00    +0.000 C 
ATOM      4  C   UNL     1       3.313   2.742  20.428  0.00  0.00    +0.000 C 
ATOM      5  C   UNL     1       2.620   4.105  20.550  0.00  0.00    +0.000 C 
ATOM      6  C   UNL     1       2.228   4.408  19.102  0.00  0.00    +0.000 C 
ATOM      7  C   UNL     1       3.537   4.843  18.333  0.00  0.00    +0.000 C 
ATOM      8  N   UNL     1       1.791   3.050  18.642  0.00  0.00    +0.000 NA
ATOM      9  C   UNL     1       0.532   2.546  19.179  0.00  0.00    +0.000 C 
ENDROOT
BRANCH   1  14
ATOM     10  C   UNL     1       7.991   5.250  13.431  0.00  0.00    +0.000 C 
ATOM     11  C   UNL     1       6.937   4.817  14.400  0.00  0.00    +0.000 A 
ATOM     12  C   UNL     1       5.625   4.613  13.978  0.00  0.00    +0.000 A 
ATOM     13  C   UNL     1       4.641   4.272  14.900  0.00  0.00    +0.000 A 
ATOM     14  C   UNL     1       4.942   4.134  16.266  0.00  0.00    +0.000 A 
ATOM     15  C   UNL     1       6.260   4.320  16.680  0.00  0.00    +0.000 A 
ATOM     16  C   UNL     1       7.250   4.659  15.758  0.00  0.00    +0.000 A 
ENDBRANCH   1  14
BRANCH   7  17
ATOM     17  C   UNL     1       3.608   6.293  17.883  0.00  0.00    +0.000 C 
ATOM     18  O   UNL     1       4.674   6.836  17.619  0.00  0.00    +0.000 OA
BRANCH  17  19
ATOM     19  O   UNL     1       2.393   6.898  17.829  0.00  0.00    +0.000 OA
BRANCH  19  20
ATOM     20  C   UNL     1       2.265   8.070  18.655  0.00  0.00    +0.000 C 
BRANCH  20  21
ATOM     21  C   UNL     1       1.500   9.094  17.880  0.00  0.00    +0.000 C 
ATOM     22  C   UNL     1       0.580   9.962  18.330  0.00  0.00    +0.000 C 
ATOM     23  I   UNL     1      -0.050  10.181  20.261  0.00  0.00    +0.000 I 
ENDBRANCH  20  21
ENDBRANCH  19  20
ENDBRANCH  17  19
ENDBRANCH   7  17
TORSDOF 5
ENDMDL
MODEL 7
REMARK VINA RESULT:      -7.1      2.666      5.246
REMARK  Name = 
REMARK  7 active torsions:
REMARK  status: ('A' for Active; 'I' for Inactive)
REMARK    1  A    between atoms: C_1  and  C_2
REMARK    2  A    between atoms: C_5  and  C_6
REMARK    3  A    between atoms: C_12  and  C_13
REMARK    4  A    between atoms: C_13  and  O_15
REMARK    5  A    between atoms: O_15  and  C_16
REMARK    6  A    between atoms: C_16  and  C_17
REMARK    7  A    between atoms: N_20  and  C_21
REMARK                            x       y       z     vdW  Elec       q    Type
REMARK                         _______ _______ _______ _____ _____    ______ ____
ROOT
ATOM      1  C   UNL     1       3.699   4.596  18.657  0.00  0.00    +0.000 C 
ATOM      2  C   UNL     1       4.045   3.154  19.130  0.00  0.00    +0.000 C 
ATOM      3  C   UNL     1       2.781   2.378  19.585  0.00  0.00    +0.000 C 
ATOM      4  C   UNL     1       2.390   2.564  21.068  0.00  0.00    +0.000 C 
ATOM      5  C   UNL     1       1.289   3.632  21.073  0.00  0.00    +0.000 C 
ATOM      6  C   UNL     1       1.408   4.235  19.671  0.00  0.00    +0.000 C 
ATOM      7  C   UNL     1       2.682   5.168  19.659  0.00  0.00    +0.000 C 
ATOM      8  N   UNL     1       1.667   3.003  18.858  0.00  0.00    +0.000 NA
ATOM      9  C   UNL     1       0.548   2.085  18.679  0.00  0.00    +0.000 C 
ENDROOT
BRANCH   1  14
ATOM     10  C   UNL     1       8.261   8.032  17.544  0.00  0.00    +0.000 C 
ATOM     11  C   UNL     1       7.120   7.099  17.798  0.00  0.00    +0.000 A 
ATOM     12  C   UNL     1       6.009   7.092  16.958  0.00  0.00    +0.000 A 
ATOM     13  C   UNL     1       4.926   6.265  17.241  0.00  0.00    +0.000 A 
ATOM     14  C   UNL     1       4.925   5.432  18.374  0.00  0.00    +0.000 A 
ATOM     15  C   UNL     1       6.047   5.429  19.200  0.00  0.00    +0.000 A 
ATOM     16  C   UNL     1       7.136   6.254  18.918  0.00  0.00    +0.000 A 
ENDBRANCH   1  14
BRANCH   7  17
ATOM     17  C   UNL     1       2.429   6.660  19.521  0.00  0.00    +0.000 C 
ATOM     18  O   UNL     1       2.371   7.397  20.498  0.00  0.00    +0.000 OA
BRANCH  17  19
ATOM     19  O   UNL     1       2.260   7.060  18.234  0.00  0.00    +0.000 OA
BRANCH  19  20
ATOM     20  C   UNL     1       2.359   8.480  18.025  0.00  0.00    +0.000 C 
BRANCH  20  21
ATOM     21  C   UNL     1       1.003   8.981  17.644  0.00  0.00    +0.000 C 
ATOM     22  C   UNL     1       0.230   9.866  18.294  0.00  0.00    +0.000 C 
ATOM     23  I   UNL     1       0.690  10.849  20.025  0.00  0.00    +0.000 I 
ENDBRANCH  20  21
ENDBRANCH  19  20
ENDBRANCH  17  19
ENDBRANCH   7  17
TORSDOF 5
ENDMDL
MODEL 8
REMARK VINA RESULT:      -7.1      3.198      4.635
REMARK  Name = 
REMARK  7 active torsions:
REMARK  status: ('A' for Active; 'I' for Inactive)
REMARK    1  A    between atoms: C_1  and  C_2
REMARK    2  A    between atoms: C_5  and  C_6
REMARK    3  A    between atoms: C_12  and  C_13
REMARK    4  A    between atoms: C_13  and  O_15
REMARK    5  A    between atoms: O_15  and  C_16
REMARK    6  A    between atoms: C_16  and  C_17
REMARK    7  A    between atoms: N_20  and  C_21
REMARK                            x       y       z     vdW  Elec       q    Type
REMARK                         _______ _______ _______ _____ _____    ______ ____
ROOT
ATOM      1  C   UNL     1       5.630   5.143  18.233  0.00  0.00    +0.000 C 
ATOM      2  C   UNL     1       4.357   5.396  19.093  0.00  0.00    +0.000 C 
ATOM      3  C   UNL     1       3.345   4.226  18.982  0.00  0.00    +0.000 C 
ATOM      4  C   UNL     1       2.341   4.330  17.812  0.00  0.00    +0.000 C 
ATOM      5  C   UNL     1       2.920   3.452  16.695  0.00  0.00    +0.000 C 
ATOM      6  C   UNL     1       4.362   3.234  17.159  0.00  0.00    +0.000 C 
ATOM      7  C   UNL     1       5.159   4.570  16.887  0.00  0.00    +0.000 C 
ATOM      8  N   UNL     1       4.156   3.052  18.632  0.00  0.00    +0.000 NA
ATOM      9  C   UNL     1       3.527   1.807  19.061  0.00  0.00    +0.000 C 
ENDROOT
BRANCH   1  14
ATOM     10  C   UNL     1       8.976   9.903  18.105  0.00  0.00    +0.000 C 
ATOM     11  C   UNL     1       8.154   8.653  18.089  0.00  0.00    +0.000 A 
ATOM     12  C   UNL     1       6.967   8.593  17.362  0.00  0.00    +0.000 A 
ATOM     13  C   UNL     1       6.179   7.448  17.405  0.00  0.00    +0.000 A 
ATOM     14  C   UNL     1       6.554   6.337  18.183  0.00  0.00    +0.000 A 
ATOM     15  C   UNL     1       7.752   6.395  18.893  0.00  0.00    +0.000 A 
ATOM     16  C   UNL     1       8.546   7.541  18.849  0.00  0.00    +0.000 A 
ENDBRANCH   1  14
BRANCH   7  17
ATOM     17  C   UNL     1       6.233   4.511  15.813  0.00  0.00    +0.000 C 
ATOM     18  O   UNL     1       7.391   4.207  16.074  0.00  0.00    +0.000 OA
BRANCH  17  19
ATOM     19  O   UNL     1       5.775   4.842  14.577  0.00  0.00    +0.000 OA
BRANCH  19  20
ATOM     20  C   UNL     1       6.291   4.033  13.506  0.00  0.00    +0.000 C 
BRANCH  20  21
ATOM     21  C   UNL     1       5.151   3.696  12.598  0.00  0.00    +0.000 C 
ATOM     22  C   UNL     1       5.081   2.721  11.679  0.00  0.00    +0.000 C 
ATOM     23  I   UNL     1       6.526   1.343  11.246  0.00  0.00    +0.000 I 
ENDBRANCH  20  21
ENDBRANCH  19  20
ENDBRANCH  17  19
ENDBRANCH   7  17
TORSDOF 5
ENDMDL
MODEL 9
REMARK VINA RESULT:      -7.1      2.762      4.122
REMARK  Name = 
REMARK  7 active torsions:
REMARK  status: ('A' for Active; 'I' for Inactive)
REMARK    1  A    between atoms: C_1  and  C_2
REMARK    2  A    between atoms: C_5  and  C_6
REMARK    3  A    between atoms: C_12  and  C_13
REMARK    4  A    between atoms: C_13  and  O_15
REMARK    5  A    between atoms: O_15  and  C_16
REMARK    6  A    between atoms: C_16  and  C_17
REMARK    7  A    between atoms: N_20  and  C_21
REMARK                            x       y       z     vdW  Elec       q    Type
REMARK                         _______ _______ _______ _____ _____    ______ ____
ROOT
ATOM      1  C   UNL     1       3.953   4.494  19.587  0.00  0.00    +0.000 C 
ATOM      2  C   UNL     1       2.914   5.334  20.388  0.00  0.00    +0.000 C 
ATOM      3  C   UNL     1       1.733   4.463  20.889  0.00  0.00    +0.000 C 
ATOM      4  C   UNL     1       0.557   4.310  19.898  0.00  0.00    +0.000 C 
ATOM      5  C   UNL     1       0.779   2.961  19.202  0.00  0.00    +0.000 C 
ATOM      6  C   UNL     1       2.231   2.638  19.561  0.00  0.00    +0.000 C 
ATOM      7  C   UNL     1       3.159   3.553  18.667  0.00  0.00    +0.000 C 
ATOM      8  N   UNL     1       2.276   3.101  20.985  0.00  0.00    +0.000 NA
ATOM      9  C   UNL     1       1.555   2.293  21.963  0.00  0.00    +0.000 C 
ENDROOT
BRANCH   1  14
ATOM     10  C   UNL     1       7.936   7.984  17.176  0.00  0.00    +0.000 C 
ATOM     11  C   UNL     1       6.924   7.042  17.746  0.00  0.00    +0.000 A 
ATOM     12  C   UNL     1       5.569   7.197  17.459  0.00  0.00    +0.000 A 
ATOM     13  C   UNL     1       4.631   6.354  18.046  0.00  0.00    +0.000 A 
ATOM     14  C   UNL     1       5.022   5.342  18.940  0.00  0.00    +0.000 A 
ATOM     15  C   UNL     1       6.380   5.179  19.210  0.00  0.00    +0.000 A 
ATOM     16  C   UNL     1       7.324   6.020  18.620  0.00  0.00    +0.000 A 
ENDBRANCH   1  14
BRANCH   7  17
ATOM     17  C   UNL     1       3.993   2.845  17.612  0.00  0.00    +0.000 C 
ATOM     18  O   UNL     1       4.248   1.649  17.687  0.00  0.00    +0.000 OA
BRANCH  17  19
ATOM     19  O   UNL     1       4.422   3.672  16.624  0.00  0.00    +0.000 OA
BRANCH  19  20
ATOM     20  C   UNL     1       5.557   3.189  15.882  0.00  0.00    +0.000 C 
BRANCH  20  21
ATOM     21  C   UNL     1       6.274   4.374  15.320  0.00  0.00    +0.000 C 
ATOM     22  C   UNL     1       6.575   4.632  14.038  0.00  0.00    +0.000 C 
ATOM     23  I   UNL     1       6.107   3.479  12.417  0.00  0.00    +0.000 I 
ENDBRANCH  20  21
ENDBRANCH  19  20
ENDBRANCH  17  19
ENDBRANCH   7  17
TORSDOF 5
ENDMDL
