MODEL 1
REMARK VINA RESULT:      -7.9      0.000      0.000
REMARK  Name = 
REMARK  11 active torsions:
REMARK  status: ('A' for Active; 'I' for Inactive)
REMARK    1  A    between atoms: C_1  and  C_2
REMARK    2  A    between atoms: C_2  and  O_3
REMARK    3  A    between atoms: O_3  and  C_4
REMARK    4  A    between atoms: C_4  and  C_6
REMARK    5  A    between atoms: C_6  and  C_7
REMARK    6  A    between atoms: C_6  and  S_8
REMARK    7  A    between atoms: S_8  and  C_9
REMARK    8  A    between atoms: C_11  and  C_12
REMARK    9  A    between atoms: C_12  and  S_13
REMARK   10  A    between atoms: S_13  and  C_16
REMARK   11  A    between atoms: C_23  and  C_24
REMARK                            x       y       z     vdW  Elec       q    Type
REMARK                         _______ _______ _______ _____ _____    ______ ____
ROOT
ATOM      1  C   UNL     1       4.374   7.023  17.713  0.00  0.00    +0.000 A 
ATOM      2  C   UNL     1       3.537   8.058  17.348  0.00  0.00    +0.000 A 
ATOM      3  C   UNL     1       2.243   8.017  17.830  0.00  0.00    +0.000 A 
ATOM      4  N   UNL     1       1.802   6.962  18.553  0.00  0.00    +0.000 NA
ATOM      5  C   UNL     1       2.683   5.981  18.845  0.00  0.00    +0.000 A 
ATOM      6  N   UNL     1       3.968   5.975  18.448  0.00  0.00    +0.000 NA
ENDROOT
BRANCH   5   7
ATOM      7  C   UNL     1       2.190   4.818  19.611  0.00  0.00    +0.000 A 
ATOM      8  C   UNL     1       2.560   4.600  20.954  0.00  0.00    +0.000 A 
ATOM      9  C   UNL     1       2.077   3.508  21.683  0.00  0.00    +0.000 A 
ATOM     10  C   UNL     1       1.212   2.598  21.084  0.00  0.00    +0.000 A 
ATOM     11  C   UNL     1       0.831   2.779  19.758  0.00  0.00    +0.000 A 
ATOM     12  C   UNL     1       1.315   3.874  19.033  0.00  0.00    +0.000 A 
ENDBRANCH   5   7
BRANCH   1  13
ATOM     13  S   UNL     1       6.104   7.094  17.265  0.00  0.00    +0.000 S 
BRANCH  13  14
ATOM     14  C   UNL     1       6.738   5.671  18.236  0.00  0.00    +0.000 C 
ATOM     15  C   UNL     1       7.849   6.126  19.172  0.00  0.00    +0.000 C 
BRANCH  14  16
ATOM     16  C   UNL     1       7.247   4.584  17.304  0.00  0.00    +0.000 C 
ATOM     17  O   UNL     1       8.372   4.100  17.307  0.00  0.00    +0.000 OA
BRANCH  16  18
ATOM     18  O   UNL     1       6.267   4.264  16.407  0.00  0.00    +0.000 OA
BRANCH  18  20
ATOM     19  C   UNL     1       5.420   4.234  14.174  0.00  0.00    +0.000 C 
ATOM     20  C   UNL     1       6.670   4.319  15.032  0.00  0.00    +0.000 C 
ENDBRANCH  18  20
ENDBRANCH  16  18
ENDBRANCH  14  16
ENDBRANCH  13  14
ENDBRANCH   1  13
BRANCH   3  21
ATOM     21  C   UNL     1       1.236   9.097  17.541  0.00  0.00    +0.000 C 
BRANCH  21  22
ATOM     22  S   UNL     1       1.040  10.128  18.987  0.00  0.00    +0.000 S 
ATOM     23  O   UNL     1       1.156   9.303  20.172  0.00  0.00    +0.000 OA
ATOM     24  O   UNL     1       1.858  11.319  18.826  0.00  0.00    +0.000 OA
BRANCH  22  25
ATOM     25  C   UNL     1      -0.644  10.696  18.905  0.00  0.00    +0.000 A 
ATOM     26  C   UNL     1      -1.075  11.715  19.763  0.00  0.00    +0.000 A 
ATOM     27  C   UNL     1      -2.380  12.199  19.656  0.00  0.00    +0.000 A 
ATOM     28  C   UNL     1      -3.245  11.668  18.698  0.00  0.00    +0.000 A 
ATOM     29  C   UNL     1      -2.808  10.659  17.838  0.00  0.00    +0.000 A 
ATOM     30  C   UNL     1      -1.504  10.175  17.933  0.00  0.00    +0.000 A 
ENDBRANCH  22  25
ENDBRANCH  21  22
ENDBRANCH   3  21
TORSDOF 9
ENDMDL
MODEL 2
REMARK VINA RESULT:      -7.7      0.890      1.634
REMARK  Name = 
REMARK  11 active torsions:
REMARK  status: ('A' for Active; 'I' for Inactive)
REMARK    1  A    between atoms: C_1  and  C_2
REMARK    2  A    between atoms: C_2  and  O_3
REMARK    3  A    between atoms: O_3  and  C_4
REMARK    4  A    between atoms: C_4  and  C_6
REMARK    5  A    between atoms: C_6  and  C_7
REMARK    6  A    between atoms: C_6  and  S_8
REMARK    7  A    between atoms: S_8  and  C_9
REMARK    8  A    between atoms: C_11  and  C_12
REMARK    9  A    between atoms: C_12  and  S_13
REMARK   10  A    between atoms: S_13  and  C_16
REMARK   11  A    between atoms: C_23  and  C_24
REMARK                            x       y       z     vdW  Elec       q    Type
REMARK                         _______ _______ _______ _____ _____    ______ ____
ROOT
ATOM      1  C   UNL     1       4.470   6.898  17.725  0.00  0.00    +0.000 A 
ATOM      2  C   UNL     1       3.641   7.924  17.321  0.00  0.00    +0.000 A 
ATOM      3  C   UNL     1       2.336   7.889  17.774  0.00  0.00    +0.000 A 
ATOM      4  N   UNL     1       1.880   6.847  18.505  0.00  0.00    +0.000 NA
ATOM      5  C   UNL     1       2.755   5.873  18.836  0.00  0.00    +0.000 A 
ATOM      6  N   UNL     1       4.049   5.862  18.470  0.00  0.00    +0.000 NA
ENDROOT
BRANCH   5   7
ATOM      7  C   UNL     1       2.246   4.723  19.612  0.00  0.00    +0.000 A 
ATOM      8  C   UNL     1       1.420   3.739  19.029  0.00  0.00    +0.000 A 
ATOM      9  C   UNL     1       0.956   2.641  19.760  0.00  0.00    +0.000 A 
ATOM     10  C   UNL     1       1.303   2.499  21.101  0.00  0.00    +0.000 A 
ATOM     11  C   UNL     1       2.111   3.454  21.708  0.00  0.00    +0.000 A 
ATOM     12  C   UNL     1       2.576   4.550  20.972  0.00  0.00    +0.000 A 
ENDBRANCH   5   7
BRANCH   1  13
ATOM     13  S   UNL     1       6.211   6.964  17.316  0.00  0.00    +0.000 S 
BRANCH  13  14
ATOM     14  C   UNL     1       6.453   5.252  16.700  0.00  0.00    +0.000 C 
ATOM     15  C   UNL     1       7.561   4.562  17.484  0.00  0.00    +0.000 C 
BRANCH  14  16
ATOM     16  C   UNL     1       6.791   5.271  15.218  0.00  0.00    +0.000 C 
ATOM     17  O   UNL     1       7.864   5.598  14.726  0.00  0.00    +0.000 OA
BRANCH  16  18
ATOM     18  O   UNL     1       5.683   4.921  14.498  0.00  0.00    +0.000 OA
BRANCH  18  20
ATOM     19  C   UNL     1       6.246   3.608  12.585  0.00  0.00    +0.000 C 
ATOM     20  C   UNL     1       5.691   3.578  13.998  0.00  0.00    +0.000 C 
ENDBRANCH  18  20
ENDBRANCH  16  18
ENDBRANCH  14  16
ENDBRANCH  13  14
ENDBRANCH   1  13
BRANCH   3  21
ATOM     21  C   UNL     1       1.333   8.961  17.441  0.00  0.00    +0.000 C 
BRANCH  21  22
ATOM     22  S   UNL     1       1.165  10.067  18.833  0.00  0.00    +0.000 S 
ATOM     23  O   UNL     1       1.234   9.296  20.058  0.00  0.00    +0.000 OA
ATOM     24  O   UNL     1       2.031  11.217  18.627  0.00  0.00    +0.000 OA
BRANCH  22  25
ATOM     25  C   UNL     1      -0.495  10.697  18.704  0.00  0.00    +0.000 A 
ATOM     26  C   UNL     1      -1.368  10.162  17.751  0.00  0.00    +0.000 A 
ATOM     27  C   UNL     1      -2.686  10.617  17.693  0.00  0.00    +0.000 A 
ATOM     28  C   UNL     1      -3.126  11.600  18.581  0.00  0.00    +0.000 A 
ATOM     29  C   UNL     1      -2.254  12.124  19.537  0.00  0.00    +0.000 A 
ATOM     30  C   UNL     1      -0.938  11.669  19.607  0.00  0.00    +0.000 A 
ENDBRANCH  22  25
ENDBRANCH  21  22
ENDBRANCH   3  21
TORSDOF 9
ENDMDL
MODEL 3
REMARK VINA RESULT:      -7.6      1.532      2.112
REMARK  Name = 
REMARK  11 active torsions:
REMARK  status: ('A' for Active; 'I' for Inactive)
REMARK    1  A    between atoms: C_1  and  C_2
REMARK    2  A    between atoms: C_2  and  O_3
REMARK    3  A    between atoms: O_3  and  C_4
REMARK    4  A    between atoms: C_4  and  C_6
REMARK    5  A    between atoms: C_6  and  C_7
REMARK    6  A    between atoms: C_6  and  S_8
REMARK    7  A    between atoms: S_8  and  C_9
REMARK    8  A    between atoms: C_11  and  C_12
REMARK    9  A    between atoms: C_12  and  S_13
REMARK   10  A    between atoms: S_13  and  C_16
REMARK   11  A    between atoms: C_23  and  C_24
REMARK                            x       y       z     vdW  Elec       q    Type
REMARK                         _______ _______ _______ _____ _____    ______ ____
ROOT
ATOM      1  C   UNL     1       4.311   7.190  17.765  0.00  0.00    +0.000 A 
ATOM      2  C   UNL     1       3.455   8.227  17.455  0.00  0.00    +0.000 A 
ATOM      3  C   UNL     1       2.162   8.136  17.934  0.00  0.00    +0.000 A 
ATOM      4  N   UNL     1       1.741   7.037  18.600  0.00  0.00    +0.000 NA
ATOM      5  C   UNL     1       2.640   6.058  18.840  0.00  0.00    +0.000 A 
ATOM      6  N   UNL     1       3.924   6.097  18.444  0.00  0.00    +0.000 NA
ENDROOT
BRANCH   5   7
ATOM      7  C   UNL     1       2.169   4.847  19.543  0.00  0.00    +0.000 A 
ATOM      8  C   UNL     1       2.429   4.634  20.913  0.00  0.00    +0.000 A 
ATOM      9  C   UNL     1       1.965   3.495  21.581  0.00  0.00    +0.000 A 
ATOM     10  C   UNL     1       1.232   2.533  20.892  0.00  0.00    +0.000 A 
ATOM     11  C   UNL     1       0.963   2.709  19.539  0.00  0.00    +0.000 A 
ATOM     12  C   UNL     1       1.426   3.851  18.875  0.00  0.00    +0.000 A 
ENDBRANCH   5   7
BRANCH   1  13
ATOM     13  S   UNL     1       6.039   7.316  17.322  0.00  0.00    +0.000 S 
BRANCH  13  14
ATOM     14  C   UNL     1       6.642   5.698  17.946  0.00  0.00    +0.000 C 
ATOM     15  C   UNL     1       7.488   5.898  19.194  0.00  0.00    +0.000 C 
BRANCH  14  16
ATOM     16  C   UNL     1       7.448   4.988  16.870  0.00  0.00    +0.000 C 
ATOM     17  O   UNL     1       8.191   4.030  17.041  0.00  0.00    +0.000 OA
BRANCH  16  18
ATOM     18  O   UNL     1       7.267   5.626  15.676  0.00  0.00    +0.000 OA
BRANCH  18  20
ATOM     19  C   UNL     1       5.461   4.489  14.604  0.00  0.00    +0.000 C 
ATOM     20  C   UNL     1       6.954   4.762  14.575  0.00  0.00    +0.000 C 
ENDBRANCH  18  20
ENDBRANCH  16  18
ENDBRANCH  14  16
ENDBRANCH  13  14
ENDBRANCH   1  13
BRANCH   3  21
ATOM     21  C   UNL     1       1.134   9.211  17.702  0.00  0.00    +0.000 C 
BRANCH  21  22
ATOM     22  S   UNL     1       0.683   9.947  19.266  0.00  0.00    +0.000 S 
ATOM     23  O   UNL     1      -0.759   9.913  19.403  0.00  0.00    +0.000 OA
ATOM     24  O   UNL     1       1.543   9.405  20.305  0.00  0.00    +0.000 OA
BRANCH  22  25
ATOM     25  C   UNL     1       1.154  11.656  19.107  0.00  0.00    +0.000 A 
ATOM     26  C   UNL     1       2.265  12.000  18.329  0.00  0.00    +0.000 A 
ATOM     27  C   UNL     1       2.595  13.346  18.159  0.00  0.00    +0.000 A 
ATOM     28  C   UNL     1       1.820  14.337  18.763  0.00  0.00    +0.000 A 
ATOM     29  C   UNL     1       0.707  13.990  19.530  0.00  0.00    +0.000 A 
ATOM     30  C   UNL     1       0.365  12.648  19.699  0.00  0.00    +0.000 A 
ENDBRANCH  22  25
ENDBRANCH  21  22
ENDBRANCH   3  21
TORSDOF 9
ENDMDL
MODEL 4
REMARK VINA RESULT:      -7.6      1.691      2.179
REMARK  Name = 
REMARK  11 active torsions:
REMARK  status: ('A' for Active; 'I' for Inactive)
REMARK    1  A    between atoms: C_1  and  C_2
REMARK    2  A    between atoms: C_2  and  O_3
REMARK    3  A    between atoms: O_3  and  C_4
REMARK    4  A    between atoms: C_4  and  C_6
REMARK    5  A    between atoms: C_6  and  C_7
REMARK    6  A    between atoms: C_6  and  S_8
REMARK    7  A    between atoms: S_8  and  C_9
REMARK    8  A    between atoms: C_11  and  C_12
REMARK    9  A    between atoms: C_12  and  S_13
REMARK   10  A    between atoms: S_13  and  C_16
REMARK   11  A    between atoms: C_23  and  C_24
REMARK                            x       y       z     vdW  Elec       q    Type
REMARK                         _______ _______ _______ _____ _____    ______ ____
ROOT
ATOM      1  C   UNL     1       4.304   7.061  17.610  0.00  0.00    +0.000 A 
ATOM      2  C   UNL     1       3.498   8.162  17.405  0.00  0.00    +0.000 A 
ATOM      3  C   UNL     1       2.192   8.072  17.846  0.00  0.00    +0.000 A 
ATOM      4  N   UNL     1       1.711   6.923  18.373  0.00  0.00    +0.000 NA
ATOM      5  C   UNL     1       2.565   5.887  18.516  0.00  0.00    +0.000 A 
ATOM      6  N   UNL     1       3.859   5.915  18.151  0.00  0.00    +0.000 NA
ENDROOT
BRANCH   5   7
ATOM      7  C   UNL     1       2.030   4.624  19.066  0.00  0.00    +0.000 A 
ATOM      8  C   UNL     1       1.965   4.385  20.455  0.00  0.00    +0.000 A 
ATOM      9  C   UNL     1       1.440   3.197  20.973  0.00  0.00    +0.000 A 
ATOM     10  C   UNL     1       0.969   2.209  20.114  0.00  0.00    +0.000 A 
ATOM     11  C   UNL     1       1.024   2.409  18.738  0.00  0.00    +0.000 A 
ATOM     12  C   UNL     1       1.547   3.601  18.223  0.00  0.00    +0.000 A 
ENDBRANCH   5   7
BRANCH   1  13
ATOM     13  S   UNL     1       6.047   7.164  17.218  0.00  0.00    +0.000 S 
BRANCH  13  14
ATOM     14  C   UNL     1       6.648   5.649  18.063  0.00  0.00    +0.000 C 
ATOM     15  C   UNL     1       7.581   6.020  19.206  0.00  0.00    +0.000 C 
BRANCH  14  16
ATOM     16  C   UNL     1       7.363   4.745  17.072  0.00  0.00    +0.000 C 
ATOM     17  O   UNL     1       8.316   4.016  17.318  0.00  0.00    +0.000 OA
BRANCH  16  18
ATOM     18  O   UNL     1       6.815   4.912  15.832  0.00  0.00    +0.000 OA
BRANCH  18  20
ATOM     19  C   UNL     1       5.805   3.997  13.871  0.00  0.00    +0.000 C 
ATOM     20  C   UNL     1       6.055   3.793  15.354  0.00  0.00    +0.000 C 
ENDBRANCH  18  20
ENDBRANCH  16  18
ENDBRANCH  14  16
ENDBRANCH  13  14
ENDBRANCH   1  13
BRANCH   3  21
ATOM     21  C   UNL     1       1.214   9.209  17.720  0.00  0.00    +0.000 C 
BRANCH  21  22
ATOM     22  S   UNL     1       0.837   9.851  19.343  0.00  0.00    +0.000 S 
ATOM     23  O   UNL     1      -0.602   9.905  19.506  0.00  0.00    +0.000 OA
ATOM     24  O   UNL     1       1.671   9.171  20.321  0.00  0.00    +0.000 OA
BRANCH  22  25
ATOM     25  C   UNL     1       1.424  11.530  19.307  0.00  0.00    +0.000 A 
ATOM     26  C   UNL     1       1.094  12.403  20.350  0.00  0.00    +0.000 A 
ATOM     27  C   UNL     1       1.606  13.702  20.348  0.00  0.00    +0.000 A 
ATOM     28  C   UNL     1       2.440  14.122  19.311  0.00  0.00    +0.000 A 
ATOM     29  C   UNL     1       2.775  13.245  18.278  0.00  0.00    +0.000 A 
ATOM     30  C   UNL     1       2.274  11.944  18.276  0.00  0.00    +0.000 A 
ENDBRANCH  22  25
ENDBRANCH  21  22
ENDBRANCH   3  21
TORSDOF 9
ENDMDL
MODEL 5
REMARK VINA RESULT:      -7.5      1.724      8.060
REMARK  Name = 
REMARK  11 active torsions:
REMARK  status: ('A' for Active; 'I' for Inactive)
REMARK    1  A    between atoms: C_1  and  C_2
REMARK    2  A    between atoms: C_2  and  O_3
REMARK    3  A    between atoms: O_3  and  C_4
REMARK    4  A    between atoms: C_4  and  C_6
REMARK    5  A    between atoms: C_6  and  C_7
REMARK    6  A    between atoms: C_6  and  S_8
REMARK    7  A    between atoms: S_8  and  C_9
REMARK    8  A    between atoms: C_11  and  C_12
REMARK    9  A    between atoms: C_12  and  S_13
REMARK   10  A    between atoms: S_13  and  C_16
REMARK   11  A    between atoms: C_23  and  C_24
REMARK                            x       y       z     vdW  Elec       q    Type
REMARK                         _______ _______ _______ _____ _____    ______ ____
ROOT
ATOM      1  C   UNL     1       2.657   8.305  18.117  0.00  0.00    +0.000 A 
ATOM      2  C   UNL     1       3.737   8.148  17.273  0.00  0.00    +0.000 A 
ATOM      3  C   UNL     1       4.235   6.867  17.126  0.00  0.00    +0.000 A 
ATOM      4  N   UNL     1       3.737   5.838  17.848  0.00  0.00    +0.000 NA
ATOM      5  C   UNL     1       2.693   6.087  18.668  0.00  0.00    +0.000 A 
ATOM      6  N   UNL     1       2.128   7.296  18.829  0.00  0.00    +0.000 NA
ENDROOT
BRANCH   5   7
ATOM      7  C   UNL     1       2.169   4.966  19.476  0.00  0.00    +0.000 A 
ATOM      8  C   UNL     1       1.314   3.988  18.926  0.00  0.00    +0.000 A 
ATOM      9  C   UNL     1       0.835   2.917  19.688  0.00  0.00    +0.000 A 
ATOM     10  C   UNL     1       1.194   2.798  21.027  0.00  0.00    +0.000 A 
ATOM     11  C   UNL     1       2.031   3.749  21.603  0.00  0.00    +0.000 A 
ATOM     12  C   UNL     1       2.511   4.817  20.837  0.00  0.00    +0.000 A 
ENDBRANCH   5   7
BRANCH   1  13
ATOM     13  S   UNL     1       1.855   9.900  18.228  0.00  0.00    +0.000 S 
BRANCH  13  14
ATOM     14  C   UNL     1       0.174   9.371  18.743  0.00  0.00    +0.000 C 
ATOM     15  C   UNL     1      -0.847   9.755  17.682  0.00  0.00    +0.000 C 
BRANCH  14  16
ATOM     16  C   UNL     1      -0.189  10.003  20.077  0.00  0.00    +0.000 C 
ATOM     17  O   UNL     1      -0.324  11.201  20.294  0.00  0.00    +0.000 OA
BRANCH  16  18
ATOM     18  O   UNL     1      -0.286   9.027  21.027  0.00  0.00    +0.000 OA
BRANCH  18  20
ATOM     19  C   UNL     1       0.027   9.481  23.351  0.00  0.00    +0.000 C 
ATOM     20  C   UNL     1       0.712   9.087  22.054  0.00  0.00    +0.000 C 
ENDBRANCH  18  20
ENDBRANCH  16  18
ENDBRANCH  14  16
ENDBRANCH  13  14
ENDBRANCH   1  13
BRANCH   3  21
ATOM     21  C   UNL     1       5.387   6.545  16.211  0.00  0.00    +0.000 C 
BRANCH  21  22
ATOM     22  S   UNL     1       5.594   4.774  16.120  0.00  0.00    +0.000 S 
ATOM     23  O   UNL     1       6.626   4.372  17.053  0.00  0.00    +0.000 OA
ATOM     24  O   UNL     1       4.282   4.147  16.144  0.00  0.00    +0.000 OA
BRANCH  22  25
ATOM     25  C   UNL     1       6.226   4.482  14.482  0.00  0.00    +0.000 A 
ATOM     26  C   UNL     1       5.561   3.593  13.630  0.00  0.00    +0.000 A 
ATOM     27  C   UNL     1       6.026   3.413  12.326  0.00  0.00    +0.000 A 
ATOM     28  C   UNL     1       7.146   4.116  11.880  0.00  0.00    +0.000 A 
ATOM     29  C   UNL     1       7.800   5.009  12.730  0.00  0.00    +0.000 A 
ATOM     30  C   UNL     1       7.338   5.201  14.032  0.00  0.00    +0.000 A 
ENDBRANCH  22  25
ENDBRANCH  21  22
ENDBRANCH   3  21
TORSDOF 9
ENDMDL
MODEL 6
REMARK VINA RESULT:      -7.5      2.582      6.373
REMARK  Name = 
REMARK  11 active torsions:
REMARK  status: ('A' for Active; 'I' for Inactive)
REMARK    1  A    between atoms: C_1  and  C_2
REMARK    2  A    between atoms: C_2  and  O_3
REMARK    3  A    between atoms: O_3  and  C_4
REMARK    4  A    between atoms: C_4  and  C_6
REMARK    5  A    between atoms: C_6  and  C_7
REMARK    6  A    between atoms: C_6  and  S_8
REMARK    7  A    between atoms: S_8  and  C_9
REMARK    8  A    between atoms: C_11  and  C_12
REMARK    9  A    between atoms: C_12  and  S_13
REMARK   10  A    between atoms: S_13  and  C_16
REMARK   11  A    between atoms: C_23  and  C_24
REMARK                            x       y       z     vdW  Elec       q    Type
REMARK                         _______ _______ _______ _____ _____    ______ ____
ROOT
ATOM      1  C   UNL     1       3.674   6.710  18.207  0.00  0.00    +0.000 A 
ATOM      2  C   UNL     1       3.683   5.777  19.224  0.00  0.00    +0.000 A 
ATOM      3  C   UNL     1       2.753   5.942  20.233  0.00  0.00    +0.000 A 
ATOM      4  N   UNL     1       1.936   7.019  20.258  0.00  0.00    +0.000 NA
ATOM      5  C   UNL     1       2.010   7.895  19.233  0.00  0.00    +0.000 A 
ATOM      6  N   UNL     1       2.858   7.777  18.196  0.00  0.00    +0.000 NA
ENDROOT
BRANCH   5   7
ATOM      7  C   UNL     1       1.135   9.085  19.278  0.00  0.00    +0.000 A 
ATOM      8  C   UNL     1       0.537   9.613  18.115  0.00  0.00    +0.000 A 
ATOM      9  C   UNL     1      -0.306  10.728  18.163  0.00  0.00    +0.000 A 
ATOM     10  C   UNL     1      -0.571  11.351  19.379  0.00  0.00    +0.000 A 
ATOM     11  C   UNL     1       0.008  10.859  20.545  0.00  0.00    +0.000 A 
ATOM     12  C   UNL     1       0.848   9.742  20.493  0.00  0.00    +0.000 A 
ENDBRANCH   5   7
BRANCH   1  13
ATOM     13  S   UNL     1       4.735   6.469  16.787  0.00  0.00    +0.000 S 
BRANCH  13  14
ATOM     14  C   UNL     1       6.306   6.048  17.636  0.00  0.00    +0.000 C 
ATOM     15  C   UNL     1       7.266   7.228  17.581  0.00  0.00    +0.000 C 
BRANCH  14  16
ATOM     16  C   UNL     1       6.939   4.824  16.994  0.00  0.00    +0.000 C 
ATOM     17  O   UNL     1       8.027   4.341  17.280  0.00  0.00    +0.000 OA
BRANCH  16  18
ATOM     18  O   UNL     1       6.128   4.371  15.992  0.00  0.00    +0.000 OA
BRANCH  18  20
ATOM     19  C   UNL     1       5.670   3.958  13.685  0.00  0.00    +0.000 C 
ATOM     20  C   UNL     1       6.740   4.328  14.697  0.00  0.00    +0.000 C 
ENDBRANCH  18  20
ENDBRANCH  16  18
ENDBRANCH  14  16
ENDBRANCH  13  14
ENDBRANCH   1  13
BRANCH   3  21
ATOM     21  C   UNL     1       2.627   4.981  21.384  0.00  0.00    +0.000 C 
BRANCH  21  22
ATOM     22  S   UNL     1       1.534   3.645  20.924  0.00  0.00    +0.000 S 
ATOM     23  O   UNL     1       1.388   2.747  22.052  0.00  0.00    +0.000 OA
ATOM     24  O   UNL     1       0.368   4.202  20.259  0.00  0.00    +0.000 OA
BRANCH  22  25
ATOM     25  C   UNL     1       2.420   2.758  19.660  0.00  0.00    +0.000 A 
ATOM     26  C   UNL     1       1.915   2.721  18.356  0.00  0.00    +0.000 A 
ATOM     27  C   UNL     1       2.643   2.075  17.355  0.00  0.00    +0.000 A 
ATOM     28  C   UNL     1       3.865   1.473  17.658  0.00  0.00    +0.000 A 
ATOM     29  C   UNL     1       4.370   1.522  18.958  0.00  0.00    +0.000 A 
ATOM     30  C   UNL     1       3.653   2.171  19.963  0.00  0.00    +0.000 A 
ENDBRANCH  22  25
ENDBRANCH  21  22
ENDBRANCH   3  21
TORSDOF 9
ENDMDL
MODEL 7
REMARK VINA RESULT:      -7.5      1.631      2.037
REMARK  Name = 
REMARK  11 active torsions:
REMARK  status: ('A' for Active; 'I' for Inactive)
REMARK    1  A    between atoms: C_1  and  C_2
REMARK    2  A    between atoms: C_2  and  O_3
REMARK    3  A    between atoms: O_3  and  C_4
REMARK    4  A    between atoms: C_4  and  C_6
REMARK    5  A    between atoms: C_6  and  C_7
REMARK    6  A    between atoms: C_6  and  S_8
REMARK    7  A    between atoms: S_8  and  C_9
REMARK    8  A    between atoms: C_11  and  C_12
REMARK    9  A    between atoms: C_12  and  S_13
REMARK   10  A    between atoms: S_13  and  C_16
REMARK   11  A    between atoms: C_23  and  C_24
REMARK                            x       y       z     vdW  Elec       q    Type
REMARK                         _______ _______ _______ _____ _____    ______ ____
ROOT
ATOM      1  C   UNL     1       3.764   6.918  17.715  0.00  0.00    +0.000 A 
ATOM      2  C   UNL     1       2.986   8.033  17.953  0.00  0.00    +0.000 A 
ATOM      3  C   UNL     1       2.098   7.961  19.009  0.00  0.00    +0.000 A 
ATOM      4  N   UNL     1       1.943   6.817  19.714  0.00  0.00    +0.000 NA
ATOM      5  C   UNL     1       2.731   5.767  19.397  0.00  0.00    +0.000 A 
ATOM      6  N   UNL     1       3.647   5.777  18.414  0.00  0.00    +0.000 NA
ENDROOT
BRANCH   5   7
ATOM      7  C   UNL     1       2.540   4.510  20.151  0.00  0.00    +0.000 A 
ATOM      8  C   UNL     1       1.312   4.191  20.768  0.00  0.00    +0.000 A 
ATOM      9  C   UNL     1       1.128   2.992  21.464  0.00  0.00    +0.000 A 
ATOM     10  C   UNL     1       2.173   2.077  21.567  0.00  0.00    +0.000 A 
ATOM     11  C   UNL     1       3.399   2.364  20.975  0.00  0.00    +0.000 A 
ATOM     12  C   UNL     1       3.579   3.563  20.277  0.00  0.00    +0.000 A 
ENDBRANCH   5   7
BRANCH   1  13
ATOM     13  S   UNL     1       5.051   6.996  16.474  0.00  0.00    +0.000 S 
BRANCH  13  14
ATOM     14  C   UNL     1       6.467   6.356  17.450  0.00  0.00    +0.000 C 
ATOM     15  C   UNL     1       7.618   7.351  17.421  0.00  0.00    +0.000 C 
BRANCH  14  16
ATOM     16  C   UNL     1       6.918   5.012  16.902  0.00  0.00    +0.000 C 
ATOM     17  O   UNL     1       7.999   4.475  17.108  0.00  0.00    +0.000 OA
BRANCH  16  18
ATOM     18  O   UNL     1       5.948   4.511  16.081  0.00  0.00    +0.000 OA
BRANCH  18  20
ATOM     19  C   UNL     1       5.522   4.176  13.755  0.00  0.00    +0.000 C 
ATOM     20  C   UNL     1       6.437   3.832  14.917  0.00  0.00    +0.000 C 
ENDBRANCH  18  20
ENDBRANCH  16  18
ENDBRANCH  14  16
ENDBRANCH  13  14
ENDBRANCH   1  13
BRANCH   3  21
ATOM     21  C   UNL     1       1.213   9.113  19.405  0.00  0.00    +0.000 C 
BRANCH  21  22
ATOM     22  S   UNL     1       0.699   8.910  21.103  0.00  0.00    +0.000 S 
ATOM     23  O   UNL     1      -0.132   7.728  21.205  0.00  0.00    +0.000 OA
ATOM     24  O   UNL     1       1.855   9.084  21.967  0.00  0.00    +0.000 OA
BRANCH  22  25
ATOM     25  C   UNL     1      -0.346  10.315  21.423  0.00  0.00    +0.000 A 
ATOM     26  C   UNL     1      -0.706  10.626  22.740  0.00  0.00    +0.000 A 
ATOM     27  C   UNL     1      -1.476  11.762  22.992  0.00  0.00    +0.000 A 
ATOM     28  C   UNL     1      -1.882  12.579  21.936  0.00  0.00    +0.000 A 
ATOM     29  C   UNL     1      -1.513  12.271  20.626  0.00  0.00    +0.000 A 
ATOM     30  C   UNL     1      -0.737  11.141  20.365  0.00  0.00    +0.000 A 
ENDBRANCH  22  25
ENDBRANCH  21  22
ENDBRANCH   3  21
TORSDOF 9
ENDMDL
MODEL 8
REMARK VINA RESULT:      -7.4      1.697      8.004
REMARK  Name = 
REMARK  11 active torsions:
REMARK  status: ('A' for Active; 'I' for Inactive)
REMARK    1  A    between atoms: C_1  and  C_2
REMARK    2  A    between atoms: C_2  and  O_3
REMARK    3  A    between atoms: O_3  and  C_4
REMARK    4  A    between atoms: C_4  and  C_6
REMARK    5  A    between atoms: C_6  and  C_7
REMARK    6  A    between atoms: C_6  and  S_8
REMARK    7  A    between atoms: S_8  and  C_9
REMARK    8  A    between atoms: C_11  and  C_12
REMARK    9  A    between atoms: C_12  and  S_13
REMARK   10  A    between atoms: S_13  and  C_16
REMARK   11  A    between atoms: C_23  and  C_24
REMARK                            x       y       z     vdW  Elec       q    Type
REMARK                         _______ _______ _______ _____ _____    ______ ____
ROOT
ATOM      1  C   UNL     1       2.606   8.170  17.998  0.00  0.00    +0.000 A 
ATOM      2  C   UNL     1       3.769   8.042  17.267  0.00  0.00    +0.000 A 
ATOM      3  C   UNL     1       4.364   6.795  17.250  0.00  0.00    +0.000 A 
ATOM      4  N   UNL     1       3.870   5.777  17.990  0.00  0.00    +0.000 NA
ATOM      5  C   UNL     1       2.739   5.997  18.694  0.00  0.00    +0.000 A 
ATOM      6  N   UNL     1       2.081   7.169  18.723  0.00  0.00    +0.000 NA
ENDROOT
BRANCH   5   7
ATOM      7  C   UNL     1       2.217   4.890  19.523  0.00  0.00    +0.000 A 
ATOM      8  C   UNL     1       2.594   4.730  20.873  0.00  0.00    +0.000 A 
ATOM      9  C   UNL     1       2.084   3.693  21.661  0.00  0.00    +0.000 A 
ATOM     10  C   UNL     1       1.183   2.781  21.117  0.00  0.00    +0.000 A 
ATOM     11  C   UNL     1       0.796   2.907  19.787  0.00  0.00    +0.000 A 
ATOM     12  C   UNL     1       1.306   3.947  19.002  0.00  0.00    +0.000 A 
ENDBRANCH   5   7
BRANCH   1  13
ATOM     13  S   UNL     1       1.692   9.706  17.931  0.00  0.00    +0.000 S 
BRANCH  13  14
ATOM     14  C   UNL     1       0.810   9.616  19.538  0.00  0.00    +0.000 C 
ATOM     15  C   UNL     1      -0.692   9.516  19.309  0.00  0.00    +0.000 C 
BRANCH  14  16
ATOM     16  C   UNL     1       1.134  10.837  20.384  0.00  0.00    +0.000 C 
ATOM     17  O   UNL     1       1.418  11.951  19.963  0.00  0.00    +0.000 OA
BRANCH  16  18
ATOM     18  O   UNL     1       1.120  10.487  21.705  0.00  0.00    +0.000 OA
BRANCH  18  20
ATOM     19  C   UNL     1      -0.391   9.555  23.302  0.00  0.00    +0.000 C 
ATOM     20  C   UNL     1      -0.122  10.730  22.378  0.00  0.00    +0.000 C 
ENDBRANCH  18  20
ENDBRANCH  16  18
ENDBRANCH  14  16
ENDBRANCH  13  14
ENDBRANCH   1  13
BRANCH   3  21
ATOM     21  C   UNL     1       5.616   6.505  16.466  0.00  0.00    +0.000 C 
BRANCH  21  22
ATOM     22  S   UNL     1       5.757   4.744  16.204  0.00  0.00    +0.000 S 
ATOM     23  O   UNL     1       6.819   4.227  17.043  0.00  0.00    +0.000 OA
ATOM     24  O   UNL     1       4.427   4.157  16.241  0.00  0.00    +0.000 OA
BRANCH  22  25
ATOM     25  C   UNL     1       6.297   4.585  14.516  0.00  0.00    +0.000 A 
ATOM     26  C   UNL     1       7.413   5.304  14.074  0.00  0.00    +0.000 A 
ATOM     27  C   UNL     1       7.869   5.130  12.766  0.00  0.00    +0.000 A 
ATOM     28  C   UNL     1       7.213   4.246  11.909  0.00  0.00    +0.000 A 
ATOM     29  C   UNL     1       6.106   3.524  12.357  0.00  0.00    +0.000 A 
ATOM     30  C   UNL     1       5.648   3.685  13.664  0.00  0.00    +0.000 A 
ENDBRANCH  22  25
ENDBRANCH  21  22
ENDBRANCH   3  21
TORSDOF 9
ENDMDL
MODEL 9
REMARK VINA RESULT:      -7.3      2.756      7.813
REMARK  Name = 
REMARK  11 active torsions:
REMARK  status: ('A' for Active; 'I' for Inactive)
REMARK    1  A    between atoms: C_1  and  C_2
REMARK    2  A    between atoms: C_2  and  O_3
REMARK    3  A    between atoms: O_3  and  C_4
REMARK    4  A    between atoms: C_4  and  C_6
REMARK    5  A    between atoms: C_6  and  C_7
REMARK    6  A    between atoms: C_6  and  S_8
REMARK    7  A    between atoms: S_8  and  C_9
REMARK    8  A    between atoms: C_11  and  C_12
REMARK    9  A    between atoms: C_12  and  S_13
REMARK   10  A    between atoms: S_13  and  C_16
REMARK   11  A    between atoms: C_23  and  C_24
REMARK                            x       y       z     vdW  Elec       q    Type
REMARK                         _______ _______ _______ _____ _____    ______ ____
ROOT
ATOM      1  C   UNL     1       2.373   7.880  18.466  0.00  0.00    +0.000 A 
ATOM      2  C   UNL     1       2.020   7.236  19.633  0.00  0.00    +0.000 A 
ATOM      3  C   UNL     1       2.745   6.109  19.970  0.00  0.00    +0.000 A 
ATOM      4  N   UNL     1       3.696   5.619  19.143  0.00  0.00    +0.000 NA
ATOM      5  C   UNL     1       3.961   6.301  18.008  0.00  0.00    +0.000 A 
ATOM      6  N   UNL     1       3.328   7.428  17.637  0.00  0.00    +0.000 NA
ENDROOT
BRANCH   5   7
ATOM      7  C   UNL     1       4.981   5.748  17.093  0.00  0.00    +0.000 A 
ATOM      8  C   UNL     1       6.326   6.171  17.135  0.00  0.00    +0.000 A 
ATOM      9  C   UNL     1       7.294   5.631  16.281  0.00  0.00    +0.000 A 
ATOM     10  C   UNL     1       6.940   4.654  15.355  0.00  0.00    +0.000 A 
ATOM     11  C   UNL     1       5.620   4.219  15.283  0.00  0.00    +0.000 A 
ATOM     12  C   UNL     1       4.656   4.759  16.141  0.00  0.00    +0.000 A 
ENDBRANCH   5   7
BRANCH   1  13
ATOM     13  S   UNL     1       1.592   9.435  18.051  0.00  0.00    +0.000 S 
BRANCH  13  14
ATOM     14  C   UNL     1       0.660   9.742  19.603  0.00  0.00    +0.000 C 
ATOM     15  C   UNL     1      -0.832   9.824  19.313  0.00  0.00    +0.000 C 
BRANCH  14  16
ATOM     16  C   UNL     1       1.141  11.026  20.259  0.00  0.00    +0.000 C 
ATOM     17  O   UNL     1       1.621  11.994  19.682  0.00  0.00    +0.000 OA
BRANCH  16  18
ATOM     18  O   UNL     1       1.014  10.916  21.614  0.00  0.00    +0.000 OA
BRANCH  18  20
ATOM     19  C   UNL     1      -0.118   9.461  23.133  0.00  0.00    +0.000 C 
ATOM     20  C   UNL     1       0.998   9.571  22.109  0.00  0.00    +0.000 C 
ENDBRANCH  18  20
ENDBRANCH  16  18
ENDBRANCH  14  16
ENDBRANCH  13  14
ENDBRANCH   1  13
BRANCH   3  21
ATOM     21  C   UNL     1       2.492   5.329  21.233  0.00  0.00    +0.000 C 
BRANCH  21  22
ATOM     22  S   UNL     1       1.446   3.929  20.864  0.00  0.00    +0.000 S 
ATOM     23  O   UNL     1       1.293   3.128  22.062  0.00  0.00    +0.000 OA
ATOM     24  O   UNL     1       0.283   4.393  20.126  0.00  0.00    +0.000 OA
BRANCH  22  25
ATOM     25  C   UNL     1       2.388   2.962  19.704  0.00  0.00    +0.000 A 
ATOM     26  C   UNL     1       1.908   2.781  18.402  0.00  0.00    +0.000 A 
ATOM     27  C   UNL     1       2.678   2.072  17.478  0.00  0.00    +0.000 A 
ATOM     28  C   UNL     1       3.915   1.549  17.854  0.00  0.00    +0.000 A 
ATOM     29  C   UNL     1       4.394   1.741  19.151  0.00  0.00    +0.000 A 
ATOM     30  C   UNL     1       3.636   2.454  20.079  0.00  0.00    +0.000 A 
ENDBRANCH  22  25
ENDBRANCH  21  22
ENDBRANCH   3  21
TORSDOF 9
ENDMDL
