MODEL 1
REMARK VINA RESULT:      -7.1      0.000      0.000
REMARK  Name = 
REMARK  5 active torsions:
REMARK  status: ('A' for Active; 'I' for Inactive)
REMARK    1  A    between atoms: C_2  and  C_3
REMARK    2  A    between atoms: C_3  and  N_4
REMARK    3  A    between atoms: C_7  and  N_8
REMARK    4  A    between atoms: C_9  and  C_10
REMARK    5  A    between atoms: C_10  and  C_12
REMARK                            x       y       z     vdW  Elec       q    Type
REMARK                         _______ _______ _______ _____ _____    ______ ____
ROOT
ATOM      1  N   UNL     1       6.962   4.139  13.144  0.00  0.00    +0.000 N 
ATOM      2  C   UNL     1       6.735   4.467  14.439  0.00  0.00    +0.000 A 
ATOM      3  N   UNL     1       7.275   5.536  14.975  0.00  0.00    +0.000 NA
ATOM      4  C   UNL     1       6.926   5.640  16.293  0.00  0.00    +0.000 A 
ATOM      5  C   UNL     1       6.075   4.672  16.786  0.00  0.00    +0.000 A 
ATOM      6  S   UNL     1       5.770   3.541  15.523  0.00  0.00    +0.000 S 
ATOM      7  H   UNL     1       7.422   4.885  12.628  0.00  0.00    +0.000 HD
ENDROOT
BRANCH   4   8
ATOM      8  N   UNL     1       7.468   6.675  16.953  0.00  0.00    +0.000 N 
ATOM      9  H   UNL     1       8.130   7.237  16.423  0.00  0.00    +0.000 HD
ATOM     10  H   UNL     1       7.712   6.619  17.937  0.00  0.00    +0.000 HD
ENDBRANCH   4   8
BRANCH   5  11
ATOM     11  C   UNL     1       5.467   4.442  18.080  0.00  0.00    +0.000 C 
ATOM     12  O   UNL     1       6.054   4.615  19.150  0.00  0.00    +0.000 OA
BRANCH  11  13
ATOM     13  C   UNL     1       4.064   3.979  18.183  0.00  0.00    +0.000 A 
ATOM     14  C   UNL     1       2.972   4.728  17.740  0.00  0.00    +0.000 A 
ATOM     15  C   UNL     1       1.683   4.230  17.917  0.00  0.00    +0.000 A 
ATOM     16  C   UNL     1       1.533   2.984  18.504  0.00  0.00    +0.000 A 
ATOM     17  N   UNL     1       2.569   2.216  18.906  0.00  0.00    +0.000 NA
ATOM     18  C   UNL     1       3.813   2.725  18.724  0.00  0.00    +0.000 A 
ENDBRANCH  11  13
ENDBRANCH   5  11
BRANCH   1  19
ATOM     19  C   UNL     1       5.958   3.438  12.375  0.00  0.00    +0.000 C 
BRANCH  19  21
ATOM     20  C   UNL     1       6.127   1.233  11.178  0.00  0.00    +0.000 C 
ATOM     21  C   UNL     1       6.662   2.404  11.551  0.00  0.00    +0.000 C 
ENDBRANCH  19  21
ENDBRANCH   1  19
TORSDOF 5
ENDMDL
MODEL 2
REMARK VINA RESULT:      -6.9      0.810      1.000
REMARK  Name = 
REMARK  5 active torsions:
REMARK  status: ('A' for Active; 'I' for Inactive)
REMARK    1  A    between atoms: C_2  and  C_3
REMARK    2  A    between atoms: C_3  and  N_4
REMARK    3  A    between atoms: C_7  and  N_8
REMARK    4  A    between atoms: C_9  and  C_10
REMARK    5  A    between atoms: C_10  and  C_12
REMARK                            x       y       z     vdW  Elec       q    Type
REMARK                         _______ _______ _______ _____ _____    ______ ____
ROOT
ATOM      1  N   UNL     1       6.770   4.257  13.146  0.00  0.00    +0.000 N 
ATOM      2  C   UNL     1       6.413   4.546  14.421  0.00  0.00    +0.000 A 
ATOM      3  N   UNL     1       6.500   5.767  14.892  0.00  0.00    +0.000 NA
ATOM      4  C   UNL     1       6.115   5.804  16.204  0.00  0.00    +0.000 A 
ATOM      5  C   UNL     1       5.684   4.615  16.756  0.00  0.00    +0.000 A 
ATOM      6  S   UNL     1       5.851   3.385  15.562  0.00  0.00    +0.000 S 
ATOM      7  H   UNL     1       6.922   5.092  12.586  0.00  0.00    +0.000 HD
ENDROOT
BRANCH   4   8
ATOM      8  N   UNL     1       6.214   7.002  16.801  0.00  0.00    +0.000 N 
ATOM      9  H   UNL     1       7.161   7.343  16.950  0.00  0.00    +0.000 HD
ATOM     10  H   UNL     1       5.581   7.289  17.541  0.00  0.00    +0.000 HD
ENDBRANCH   4   8
BRANCH   5  11
ATOM     11  C   UNL     1       5.187   4.243  18.064  0.00  0.00    +0.000 C 
ATOM     12  O   UNL     1       5.862   4.307  19.093  0.00  0.00    +0.000 OA
BRANCH  11  13
ATOM     13  C   UNL     1       3.797   3.761  18.234  0.00  0.00    +0.000 A 
ATOM     14  C   UNL     1       2.675   4.483  17.817  0.00  0.00    +0.000 A 
ATOM     15  C   UNL     1       1.403   3.969  18.058  0.00  0.00    +0.000 A 
ATOM     16  C   UNL     1       1.297   2.736  18.680  0.00  0.00    +0.000 A 
ATOM     17  N   UNL     1       2.361   1.994  19.058  0.00  0.00    +0.000 NA
ATOM     18  C   UNL     1       3.588   2.517  18.814  0.00  0.00    +0.000 A 
ENDBRANCH  11  13
ENDBRANCH   5  11
BRANCH   1  19
ATOM     19  C   UNL     1       6.118   3.187  12.424  0.00  0.00    +0.000 C 
BRANCH  19  21
ATOM     20  C   UNL     1       4.012   3.115  11.051  0.00  0.00    +0.000 C 
ATOM     21  C   UNL     1       4.772   3.686  11.997  0.00  0.00    +0.000 C 
ENDBRANCH  19  21
ENDBRANCH   1  19
TORSDOF 5
ENDMDL
MODEL 3
REMARK VINA RESULT:      -6.9      1.337      1.396
REMARK  Name = 
REMARK  5 active torsions:
REMARK  status: ('A' for Active; 'I' for Inactive)
REMARK    1  A    between atoms: C_2  and  C_3
REMARK    2  A    between atoms: C_3  and  N_4
REMARK    3  A    between atoms: C_7  and  N_8
REMARK    4  A    between atoms: C_9  and  C_10
REMARK    5  A    between atoms: C_10  and  C_12
REMARK                            x       y       z     vdW  Elec       q    Type
REMARK                         _______ _______ _______ _____ _____    ______ ____
ROOT
ATOM      1  N   UNL     1       6.517   3.795  13.973  0.00  0.00    +0.000 N 
ATOM      2  C   UNL     1       6.426   4.057  15.300  0.00  0.00    +0.000 A 
ATOM      3  N   UNL     1       7.500   4.249  16.030  0.00  0.00    +0.000 NA
ATOM      4  C   UNL     1       7.159   4.463  17.337  0.00  0.00    +0.000 A 
ATOM      5  C   UNL     1       5.811   4.482  17.629  0.00  0.00    +0.000 A 
ATOM      6  S   UNL     1       4.948   4.135  16.180  0.00  0.00    +0.000 S 
ATOM      7  H   UNL     1       7.453   3.947  13.610  0.00  0.00    +0.000 HD
ENDROOT
BRANCH   4   8
ATOM      8  N   UNL     1       8.189   4.621  18.183  0.00  0.00    +0.000 N 
ATOM      9  H   UNL     1       9.115   4.550  17.768  0.00  0.00    +0.000 HD
ATOM     10  H   UNL     1       8.165   4.266  19.133  0.00  0.00    +0.000 HD
ENDBRANCH   4   8
BRANCH   5  11
ATOM     11  C   UNL     1       5.056   4.694  18.847  0.00  0.00    +0.000 C 
ATOM     12  O   UNL     1       5.443   5.407  19.774  0.00  0.00    +0.000 OA
BRANCH  11  13
ATOM     13  C   UNL     1       3.737   4.047  19.039  0.00  0.00    +0.000 A 
ATOM     14  C   UNL     1       2.523   4.735  18.962  0.00  0.00    +0.000 A 
ATOM     15  C   UNL     1       1.333   4.052  19.199  0.00  0.00    +0.000 A 
ATOM     16  C   UNL     1       1.395   2.695  19.474  0.00  0.00    +0.000 A 
ATOM     17  N   UNL     1       2.548   1.992  19.514  0.00  0.00    +0.000 NA
ATOM     18  C   UNL     1       3.692   2.680  19.282  0.00  0.00    +0.000 A 
ENDBRANCH  11  13
ENDBRANCH   5  11
BRANCH   1  19
ATOM     19  C   UNL     1       5.469   4.215  13.069  0.00  0.00    +0.000 C 
BRANCH  19  21
ATOM     20  C   UNL     1       4.256   3.052  11.198  0.00  0.00    +0.000 C 
ATOM     21  C   UNL     1       5.276   3.120  12.064  0.00  0.00    +0.000 C 
ENDBRANCH  19  21
ENDBRANCH   1  19
TORSDOF 5
ENDMDL
MODEL 4
REMARK VINA RESULT:      -6.9      0.779      1.221
REMARK  Name = 
REMARK  5 active torsions:
REMARK  status: ('A' for Active; 'I' for Inactive)
REMARK    1  A    between atoms: C_2  and  C_3
REMARK    2  A    between atoms: C_3  and  N_4
REMARK    3  A    between atoms: C_7  and  N_8
REMARK    4  A    between atoms: C_9  and  C_10
REMARK    5  A    between atoms: C_10  and  C_12
REMARK                            x       y       z     vdW  Elec       q    Type
REMARK                         _______ _______ _______ _____ _____    ______ ____
ROOT
ATOM      1  N   UNL     1       6.571   3.934  12.868  0.00  0.00    +0.000 N 
ATOM      2  C   UNL     1       6.475   4.277  14.176  0.00  0.00    +0.000 A 
ATOM      3  N   UNL     1       7.150   5.291  14.665  0.00  0.00    +0.000 NA
ATOM      4  C   UNL     1       6.915   5.421  16.006  0.00  0.00    +0.000 A 
ATOM      5  C   UNL     1       6.021   4.533  16.566  0.00  0.00    +0.000 A 
ATOM      6  S   UNL     1       5.518   3.438  15.335  0.00  0.00    +0.000 S 
ATOM      7  H   UNL     1       7.055   4.638  12.316  0.00  0.00    +0.000 HD
ENDROOT
BRANCH   4   8
ATOM      8  N   UNL     1       7.598   6.401  16.618  0.00  0.00    +0.000 N 
ATOM      9  H   UNL     1       7.857   6.218  17.585  0.00  0.00    +0.000 HD
ATOM     10  H   UNL     1       7.398   7.382  16.452  0.00  0.00    +0.000 HD
ENDBRANCH   4   8
BRANCH   5  11
ATOM     11  C   UNL     1       5.497   4.353  17.904  0.00  0.00    +0.000 C 
ATOM     12  O   UNL     1       6.147   4.578  18.927  0.00  0.00    +0.000 OA
BRANCH  11  13
ATOM     13  C   UNL     1       4.108   3.884  18.114  0.00  0.00    +0.000 A 
ATOM     14  C   UNL     1       3.790   2.628  18.636  0.00  0.00    +0.000 A 
ATOM     15  C   UNL     1       2.453   2.256  18.757  0.00  0.00    +0.000 A 
ATOM     16  C   UNL     1       1.479   3.166  18.381  0.00  0.00    +0.000 A 
ATOM     17  N   UNL     1       1.751   4.403  17.911  0.00  0.00    +0.000 NA
ATOM     18  C   UNL     1       3.060   4.740  17.801  0.00  0.00    +0.000 A 
ENDBRANCH  11  13
ENDBRANCH   5  11
BRANCH   1  19
ATOM     19  C   UNL     1       5.451   3.329  12.182  0.00  0.00    +0.000 C 
BRANCH  19  21
ATOM     20  C   UNL     1       7.242   1.857  11.208  0.00  0.00    +0.000 C 
ATOM     21  C   UNL     1       5.955   2.097  11.496  0.00  0.00    +0.000 C 
ENDBRANCH  19  21
ENDBRANCH   1  19
TORSDOF 5
ENDMDL
MODEL 5
REMARK VINA RESULT:      -6.8      1.510      1.808
REMARK  Name = 
REMARK  5 active torsions:
REMARK  status: ('A' for Active; 'I' for Inactive)
REMARK    1  A    between atoms: C_2  and  C_3
REMARK    2  A    between atoms: C_3  and  N_4
REMARK    3  A    between atoms: C_7  and  N_8
REMARK    4  A    between atoms: C_9  and  C_10
REMARK    5  A    between atoms: C_10  and  C_12
REMARK                            x       y       z     vdW  Elec       q    Type
REMARK                         _______ _______ _______ _____ _____    ______ ____
ROOT
ATOM      1  N   UNL     1       6.444   3.752  14.013  0.00  0.00    +0.000 N 
ATOM      2  C   UNL     1       6.386   4.025  15.340  0.00  0.00    +0.000 A 
ATOM      3  N   UNL     1       7.477   4.215  16.044  0.00  0.00    +0.000 NA
ATOM      4  C   UNL     1       7.168   4.444  17.356  0.00  0.00    +0.000 A 
ATOM      5  C   UNL     1       5.826   4.476  17.678  0.00  0.00    +0.000 A 
ATOM      6  S   UNL     1       4.929   4.124  16.251  0.00  0.00    +0.000 S 
ATOM      7  H   UNL     1       7.374   3.892  13.627  0.00  0.00    +0.000 HD
ENDROOT
BRANCH   4   8
ATOM      8  N   UNL     1       8.217   4.600  18.177  0.00  0.00    +0.000 N 
ATOM      9  H   UNL     1       9.093   4.194  17.855  0.00  0.00    +0.000 HD
ATOM     10  H   UNL     1       8.122   4.559  19.187  0.00  0.00    +0.000 HD
ENDBRANCH   4   8
BRANCH   5  11
ATOM     11  C   UNL     1       5.101   4.705  18.911  0.00  0.00    +0.000 C 
ATOM     12  O   UNL     1       5.508   5.433  19.817  0.00  0.00    +0.000 OA
BRANCH  11  13
ATOM     13  C   UNL     1       3.789   4.058  19.144  0.00  0.00    +0.000 A 
ATOM     14  C   UNL     1       3.628   2.681  19.315  0.00  0.00    +0.000 A 
ATOM     15  C   UNL     1       2.348   2.158  19.485  0.00  0.00    +0.000 A 
ATOM     16  C   UNL     1       1.275   3.035  19.511  0.00  0.00    +0.000 A 
ATOM     17  N   UNL     1       1.400   4.374  19.391  0.00  0.00    +0.000 NA
ATOM     18  C   UNL     1       2.656   4.858  19.224  0.00  0.00    +0.000 A 
ENDBRANCH  11  13
ENDBRANCH   5  11
BRANCH   1  19
ATOM     19  C   UNL     1       5.380   4.172  13.129  0.00  0.00    +0.000 C 
BRANCH  19  21
ATOM     20  C   UNL     1       4.235   3.051  11.190  0.00  0.00    +0.000 C 
ATOM     21  C   UNL     1       5.265   3.147  12.043  0.00  0.00    +0.000 C 
ENDBRANCH  19  21
ENDBRANCH   1  19
TORSDOF 5
ENDMDL
MODEL 6
REMARK VINA RESULT:      -6.8      1.041      1.526
REMARK  Name = 
REMARK  5 active torsions:
REMARK  status: ('A' for Active; 'I' for Inactive)
REMARK    1  A    between atoms: C_2  and  C_3
REMARK    2  A    between atoms: C_3  and  N_4
REMARK    3  A    between atoms: C_7  and  N_8
REMARK    4  A    between atoms: C_9  and  C_10
REMARK    5  A    between atoms: C_10  and  C_12
REMARK                            x       y       z     vdW  Elec       q    Type
REMARK                         _______ _______ _______ _____ _____    ______ ____
ROOT
ATOM      1  N   UNL     1       6.698   4.230  13.239  0.00  0.00    +0.000 N 
ATOM      2  C   UNL     1       6.348   4.540  14.512  0.00  0.00    +0.000 A 
ATOM      3  N   UNL     1       6.472   5.762  14.973  0.00  0.00    +0.000 NA
ATOM      4  C   UNL     1       6.085   5.822  16.283  0.00  0.00    +0.000 A 
ATOM      5  C   UNL     1       5.616   4.652  16.843  0.00  0.00    +0.000 A 
ATOM      6  S   UNL     1       5.747   3.407  15.660  0.00  0.00    +0.000 S 
ATOM      7  H   UNL     1       6.878   5.055  12.673  0.00  0.00    +0.000 HD
ENDROOT
BRANCH   4   8
ATOM      8  N   UNL     1       6.220   7.022  16.870  0.00  0.00    +0.000 N 
ATOM      9  H   UNL     1       6.916   7.073  17.611  0.00  0.00    +0.000 HD
ATOM     10  H   UNL     1       5.426   7.628  17.045  0.00  0.00    +0.000 HD
ENDBRANCH   4   8
BRANCH   5  11
ATOM     11  C   UNL     1       5.104   4.307  18.154  0.00  0.00    +0.000 C 
ATOM     12  O   UNL     1       5.731   4.485  19.199  0.00  0.00    +0.000 OA
BRANCH  11  13
ATOM     13  C   UNL     1       3.755   3.714  18.304  0.00  0.00    +0.000 A 
ATOM     14  C   UNL     1       3.500   2.560  19.050  0.00  0.00    +0.000 A 
ATOM     15  C   UNL     1       2.205   2.050  19.098  0.00  0.00    +0.000 A 
ATOM     16  C   UNL     1       1.202   2.729  18.425  0.00  0.00    +0.000 A 
ATOM     17  N   UNL     1       1.407   3.869  17.730  0.00  0.00    +0.000 NA
ATOM     18  C   UNL     1       2.677   4.344  17.696  0.00  0.00    +0.000 A 
ENDBRANCH  11  13
ENDBRANCH   5  11
BRANCH   1  19
ATOM     19  C   UNL     1       6.015   3.174  12.525  0.00  0.00    +0.000 C 
BRANCH  19  21
ATOM     20  C   UNL     1       3.903   3.094  11.161  0.00  0.00    +0.000 C 
ATOM     21  C   UNL     1       4.769   3.762  11.937  0.00  0.00    +0.000 C 
ENDBRANCH  19  21
ENDBRANCH   1  19
TORSDOF 5
ENDMDL
MODEL 7
REMARK VINA RESULT:      -6.7      1.031      1.066
REMARK  Name = 
REMARK  5 active torsions:
REMARK  status: ('A' for Active; 'I' for Inactive)
REMARK    1  A    between atoms: C_2  and  C_3
REMARK    2  A    between atoms: C_3  and  N_4
REMARK    3  A    between atoms: C_7  and  N_8
REMARK    4  A    between atoms: C_9  and  C_10
REMARK    5  A    between atoms: C_10  and  C_12
REMARK                            x       y       z     vdW  Elec       q    Type
REMARK                         _______ _______ _______ _____ _____    ______ ____
ROOT
ATOM      1  N   UNL     1       6.968   3.701  13.322  0.00  0.00    +0.000 N 
ATOM      2  C   UNL     1       6.557   4.376  14.424  0.00  0.00    +0.000 A 
ATOM      3  N   UNL     1       7.336   5.251  15.015  0.00  0.00    +0.000 NA
ATOM      4  C   UNL     1       6.718   5.776  16.116  0.00  0.00    +0.000 A 
ATOM      5  C   UNL     1       5.432   5.345  16.368  0.00  0.00    +0.000 A 
ATOM      6  S   UNL     1       5.028   4.160  15.185  0.00  0.00    +0.000 S 
ATOM      7  H   UNL     1       7.828   4.077  12.933  0.00  0.00    +0.000 HD
ENDROOT
BRANCH   4   8
ATOM      8  N   UNL     1       7.449   6.648  16.827  0.00  0.00    +0.000 N 
ATOM      9  H   UNL     1       7.460   6.497  17.833  0.00  0.00    +0.000 HD
ATOM     10  H   UNL     1       7.499   7.632  16.586  0.00  0.00    +0.000 HD
ENDBRANCH   4   8
BRANCH   5  11
ATOM     11  C   UNL     1       4.453   5.664  17.387  0.00  0.00    +0.000 C 
ATOM     12  O   UNL     1       4.272   6.800  17.827  0.00  0.00    +0.000 OA
BRANCH  11  13
ATOM     13  C   UNL     1       3.590   4.605  17.961  0.00  0.00    +0.000 A 
ATOM     14  C   UNL     1       2.215   4.524  17.731  0.00  0.00    +0.000 A 
ATOM     15  C   UNL     1       1.476   3.518  18.349  0.00  0.00    +0.000 A 
ATOM     16  C   UNL     1       2.144   2.607  19.151  0.00  0.00    +0.000 A 
ATOM     17  N   UNL     1       3.478   2.632  19.361  0.00  0.00    +0.000 NA
ATOM     18  C   UNL     1       4.174   3.623  18.750  0.00  0.00    +0.000 A 
ENDBRANCH  11  13
ENDBRANCH   5  11
BRANCH   1  19
ATOM     19  C   UNL     1       6.014   3.279  12.320  0.00  0.00    +0.000 C 
BRANCH  19  21
ATOM     20  C   UNL     1       6.250   1.085  11.115  0.00  0.00    +0.000 C 
ATOM     21  C   UNL     1       6.709   2.307  11.417  0.00  0.00    +0.000 C 
ENDBRANCH  19  21
ENDBRANCH   1  19
TORSDOF 5
ENDMDL
MODEL 8
REMARK VINA RESULT:      -6.7      1.602      1.840
REMARK  Name = 
REMARK  5 active torsions:
REMARK  status: ('A' for Active; 'I' for Inactive)
REMARK    1  A    between atoms: C_2  and  C_3
REMARK    2  A    between atoms: C_3  and  N_4
REMARK    3  A    between atoms: C_7  and  N_8
REMARK    4  A    between atoms: C_9  and  C_10
REMARK    5  A    between atoms: C_10  and  C_12
REMARK                            x       y       z     vdW  Elec       q    Type
REMARK                         _______ _______ _______ _____ _____    ______ ____
ROOT
ATOM      1  N   UNL     1       6.526   4.171  13.871  0.00  0.00    +0.000 N 
ATOM      2  C   UNL     1       6.532   4.666  15.133  0.00  0.00    +0.000 A 
ATOM      3  N   UNL     1       7.113   5.808  15.413  0.00  0.00    +0.000 NA
ATOM      4  C   UNL     1       7.015   6.082  16.749  0.00  0.00    +0.000 A 
ATOM      5  C   UNL     1       6.318   5.172  17.516  0.00  0.00    +0.000 A 
ATOM      6  S   UNL     1       5.833   3.875  16.493  0.00  0.00    +0.000 S 
ATOM      7  H   UNL     1       6.845   4.850  13.185  0.00  0.00    +0.000 HD
ENDROOT
BRANCH   4   8
ATOM      8  N   UNL     1       7.623   7.207  17.154  0.00  0.00    +0.000 N 
ATOM      9  H   UNL     1       8.047   7.768  16.418  0.00  0.00    +0.000 HD
ATOM     10  H   UNL     1       8.145   7.255  18.022  0.00  0.00    +0.000 HD
ENDBRANCH   4   8
BRANCH   5  11
ATOM     11  C   UNL     1       5.977   5.105  18.923  0.00  0.00    +0.000 C 
ATOM     12  O   UNL     1       6.773   5.352  19.830  0.00  0.00    +0.000 OA
BRANCH  11  13
ATOM     13  C   UNL     1       4.608   4.732  19.350  0.00  0.00    +0.000 A 
ATOM     14  C   UNL     1       4.234   3.429  19.686  0.00  0.00    +0.000 A 
ATOM     15  C   UNL     1       2.912   3.166  20.035  0.00  0.00    +0.000 A 
ATOM     16  C   UNL     1       2.015   4.222  20.066  0.00  0.00    +0.000 A 
ATOM     17  N   UNL     1       2.353   5.499  19.788  0.00  0.00    +0.000 NA
ATOM     18  C   UNL     1       3.646   5.729  19.449  0.00  0.00    +0.000 A 
ENDBRANCH  11  13
ENDBRANCH   5  11
BRANCH   1  19
ATOM     19  C   UNL     1       5.428   3.352  13.407  0.00  0.00    +0.000 C 
BRANCH  19  21
ATOM     20  C   UNL     1       4.253   3.210  11.188  0.00  0.00    +0.000 C 
ATOM     21  C   UNL     1       5.328   3.530  11.923  0.00  0.00    +0.000 C 
ENDBRANCH  19  21
ENDBRANCH   1  19
TORSDOF 5
ENDMDL
MODEL 9
REMARK VINA RESULT:      -6.6      2.731      4.671
REMARK  Name = 
REMARK  5 active torsions:
REMARK  status: ('A' for Active; 'I' for Inactive)
REMARK    1  A    between atoms: C_2  and  C_3
REMARK    2  A    between atoms: C_3  and  N_4
REMARK    3  A    between atoms: C_7  and  N_8
REMARK    4  A    between atoms: C_9  and  C_10
REMARK    5  A    between atoms: C_10  and  C_12
REMARK                            x       y       z     vdW  Elec       q    Type
REMARK                         _______ _______ _______ _____ _____    ______ ____
ROOT
ATOM      1  N   UNL     1       7.618   6.749  16.932  0.00  0.00    +0.000 N 
ATOM      2  C   UNL     1       6.648   5.804  16.859  0.00  0.00    +0.000 A 
ATOM      3  N   UNL     1       6.790   4.741  16.104  0.00  0.00    +0.000 NA
ATOM      4  C   UNL     1       5.674   3.953  16.170  0.00  0.00    +0.000 A 
ATOM      5  C   UNL     1       4.668   4.376  17.014  0.00  0.00    +0.000 A 
ATOM      6  S   UNL     1       5.143   5.887  17.691  0.00  0.00    +0.000 S 
ATOM      7  H   UNL     1       8.487   6.448  16.500  0.00  0.00    +0.000 HD
ENDROOT
BRANCH   4   8
ATOM      8  N   UNL     1       5.693   2.859  15.393  0.00  0.00    +0.000 N 
ATOM      9  H   UNL     1       5.939   1.990  15.861  0.00  0.00    +0.000 HD
ATOM     10  H   UNL     1       6.022   2.886  14.433  0.00  0.00    +0.000 HD
ENDBRANCH   4   8
BRANCH   5  11
ATOM     11  C   UNL     1       3.374   3.835  17.375  0.00  0.00    +0.000 C 
ATOM     12  O   UNL     1       2.598   3.324  16.566  0.00  0.00    +0.000 OA
BRANCH  11  13
ATOM     13  C   UNL     1       2.912   3.862  18.782  0.00  0.00    +0.000 A 
ATOM     14  C   UNL     1       2.002   4.801  19.276  0.00  0.00    +0.000 A 
ATOM     15  C   UNL     1       1.658   4.776  20.626  0.00  0.00    +0.000 A 
ATOM     16  C   UNL     1       2.212   3.793  21.429  0.00  0.00    +0.000 A 
ATOM     17  N   UNL     1       3.062   2.846  20.975  0.00  0.00    +0.000 NA
ATOM     18  C   UNL     1       3.382   2.893  19.659  0.00  0.00    +0.000 A 
ENDBRANCH  11  13
ENDBRANCH   5  11
BRANCH   1  19
ATOM     19  C   UNL     1       7.807   7.516  18.143  0.00  0.00    +0.000 C 
BRANCH  19  21
ATOM     20  C   UNL     1       8.792   9.806  18.476  0.00  0.00    +0.000 C 
ATOM     21  C   UNL     1       8.093   8.930  17.740  0.00  0.00    +0.000 C 
ENDBRANCH  19  21
ENDBRANCH   1  19
TORSDOF 5
ENDMDL
