MODEL 1
REMARK VINA RESULT:      -7.5      0.000      0.000
REMARK  Name = 
REMARK  8 active torsions:
REMARK  status: ('A' for Active; 'I' for Inactive)
REMARK    1  A    between atoms: C_1  and  C_2
REMARK    2  A    between atoms: C_2  and  C_12
REMARK    3  A    between atoms: C_3  and  C_4
REMARK    4  A    between atoms: C_5  and  C_6
REMARK    5  A    between atoms: C_6  and  C_7
REMARK    6  A    between atoms: C_8  and  C_9
REMARK    7  A    between atoms: C_9  and  O_11
REMARK    8  A    between atoms: C_16  and  C_17
REMARK                            x       y       z     vdW  Elec       q    Type
REMARK                         _______ _______ _______ _____ _____    ______ ____
ROOT
ATOM      1  C   UNL     1       8.055   6.456  18.997  0.00  0.00    +0.000 C 
ATOM      2  C   UNL     1       7.082   5.760  18.070  0.00  0.00    +0.000 C 
ATOM      3  C   UNL     1       7.229   5.937  16.747  0.00  0.00    +0.000 C 
ENDROOT
BRANCH   2   4
ATOM      4  C   UNL     1       6.086   4.934  18.748  0.00  0.00    +0.000 C 
ATOM      5  C   UNL     1       4.744   5.116  18.771  0.00  0.00    +0.000 C 
ATOM      6  C   UNL     1       4.119   6.285  18.032  0.00  0.00    +0.000 C 
ATOM      7  C   UNL     1       2.774   6.730  18.584  0.00  0.00    +0.000 C 
ATOM      8  C   UNL     1       1.791   5.566  18.660  0.00  0.00    +0.000 C 
ATOM      9  C   UNL     1       1.325   5.077  17.285  0.00  0.00    +0.000 C 
ATOM     10  C   UNL     1       2.394   4.413  19.432  0.00  0.00    +0.000 A 
ATOM     11  C   UNL     1       1.495   3.519  20.051  0.00  0.00    +0.000 A 
ATOM     12  C   UNL     1       1.956   2.410  20.743  0.00  0.00    +0.000 A 
ATOM     13  C   UNL     1       3.323   2.197  20.846  0.00  0.00    +0.000 A 
ATOM     14  C   UNL     1       4.227   3.083  20.238  0.00  0.00    +0.000 A 
ATOM     15  C   UNL     1       3.793   4.199  19.496  0.00  0.00    +0.000 A 
ENDBRANCH   2   4
BRANCH   3  16
ATOM     16  C   UNL     1       6.545   5.402  15.593  0.00  0.00    +0.000 C 
ATOM     17  C   UNL     1       7.008   4.445  14.771  0.00  0.00    +0.000 C 
BRANCH  17  18
ATOM     18  C   UNL     1       6.512   4.182  13.410  0.00  0.00    +0.000 C 
ATOM     19  C   UNL     1       7.325   4.630  12.218  0.00  0.00    +0.000 C 
ATOM     20  C   UNL     1       5.395   3.433  13.241  0.00  0.00    +0.000 C 
BRANCH  20  21
ATOM     21  C   UNL     1       4.956   2.922  11.916  0.00  0.00    +0.000 C 
ATOM     22  O   UNL     1       4.140   3.450  11.189  0.00  0.00    +0.000 OA
BRANCH  21  23
ATOM     23  O   UNL     1       5.608   1.791  11.573  0.00  0.00    +0.000 OA
ATOM     24  H   UNL     1       5.398   1.456  10.684  0.00  0.00    +0.000 HD
ENDBRANCH  21  23
ENDBRANCH  20  21
ENDBRANCH  17  18
ENDBRANCH   3  16
TORSDOF 5
ENDMDL
MODEL 2
REMARK VINA RESULT:      -7.5      1.216      2.026
REMARK  Name = 
REMARK  8 active torsions:
REMARK  status: ('A' for Active; 'I' for Inactive)
REMARK    1  A    between atoms: C_1  and  C_2
REMARK    2  A    between atoms: C_2  and  C_12
REMARK    3  A    between atoms: C_3  and  C_4
REMARK    4  A    between atoms: C_5  and  C_6
REMARK    5  A    between atoms: C_6  and  C_7
REMARK    6  A    between atoms: C_8  and  C_9
REMARK    7  A    between atoms: C_9  and  O_11
REMARK    8  A    between atoms: C_16  and  C_17
REMARK                            x       y       z     vdW  Elec       q    Type
REMARK                         _______ _______ _______ _____ _____    ______ ____
ROOT
ATOM      1  C   UNL     1       8.002   6.177  19.246  0.00  0.00    +0.000 C 
ATOM      2  C   UNL     1       6.948   5.880  18.201  0.00  0.00    +0.000 C 
ATOM      3  C   UNL     1       7.334   5.784  16.919  0.00  0.00    +0.000 C 
ENDROOT
BRANCH   2   4
ATOM      4  C   UNL     1       5.600   5.703  18.736  0.00  0.00    +0.000 C 
ATOM      5  C   UNL     1       4.750   4.675  18.500  0.00  0.00    +0.000 C 
ATOM      6  C   UNL     1       5.166   3.533  17.590  0.00  0.00    +0.000 C 
ATOM      7  C   UNL     1       4.007   2.794  16.941  0.00  0.00    +0.000 C 
ATOM      8  C   UNL     1       3.007   2.302  17.982  0.00  0.00    +0.000 C 
ATOM      9  C   UNL     1       3.549   1.163  18.852  0.00  0.00    +0.000 C 
ATOM     10  C   UNL     1       2.558   3.445  18.866  0.00  0.00    +0.000 A 
ATOM     11  C   UNL     1       1.298   3.315  19.487  0.00  0.00    +0.000 A 
ATOM     12  C   UNL     1       0.823   4.293  20.348  0.00  0.00    +0.000 A 
ATOM     13  C   UNL     1       1.591   5.425  20.576  0.00  0.00    +0.000 A 
ATOM     14  C   UNL     1       2.845   5.567  19.959  0.00  0.00    +0.000 A 
ATOM     15  C   UNL     1       3.375   4.578  19.108  0.00  0.00    +0.000 A 
ENDBRANCH   2   4
BRANCH   3  16
ATOM     16  C   UNL     1       6.637   5.466  15.694  0.00  0.00    +0.000 C 
ATOM     17  C   UNL     1       6.774   4.339  14.977  0.00  0.00    +0.000 C 
BRANCH  17  18
ATOM     18  C   UNL     1       6.382   4.178  13.567  0.00  0.00    +0.000 C 
ATOM     19  C   UNL     1       7.279   4.713  12.474  0.00  0.00    +0.000 C 
ATOM     20  C   UNL     1       5.285   3.443  13.260  0.00  0.00    +0.000 C 
BRANCH  20  21
ATOM     21  C   UNL     1       4.948   3.032  11.871  0.00  0.00    +0.000 C 
ATOM     22  O   UNL     1       4.188   3.615  11.126  0.00  0.00    +0.000 OA
BRANCH  21  23
ATOM     23  O   UNL     1       5.627   1.928  11.496  0.00  0.00    +0.000 OA
ATOM     24  H   UNL     1       6.549   1.894  11.806  0.00  0.00    +0.000 HD
ENDBRANCH  21  23
ENDBRANCH  20  21
ENDBRANCH  17  18
ENDBRANCH   3  16
TORSDOF 5
ENDMDL
MODEL 3
REMARK VINA RESULT:      -7.4      5.077      8.064
REMARK  Name = 
REMARK  8 active torsions:
REMARK  status: ('A' for Active; 'I' for Inactive)
REMARK    1  A    between atoms: C_1  and  C_2
REMARK    2  A    between atoms: C_2  and  C_12
REMARK    3  A    between atoms: C_3  and  C_4
REMARK    4  A    between atoms: C_5  and  C_6
REMARK    5  A    between atoms: C_6  and  C_7
REMARK    6  A    between atoms: C_8  and  C_9
REMARK    7  A    between atoms: C_9  and  O_11
REMARK    8  A    between atoms: C_16  and  C_17
REMARK                            x       y       z     vdW  Elec       q    Type
REMARK                         _______ _______ _______ _____ _____    ______ ____
ROOT
ATOM      1  C   UNL     1       1.641   8.904  22.149  0.00  0.00    +0.000 C 
ATOM      2  C   UNL     1       1.123   8.850  20.727  0.00  0.00    +0.000 C 
ATOM      3  C   UNL     1      -0.015   9.505  20.441  0.00  0.00    +0.000 C 
ENDROOT
BRANCH   2   4
ATOM      4  C   UNL     1       1.964   8.092  19.805  0.00  0.00    +0.000 C 
ATOM      5  C   UNL     1       2.168   6.753  19.789  0.00  0.00    +0.000 C 
ATOM      6  C   UNL     1       1.480   5.863  20.808  0.00  0.00    +0.000 C 
ATOM      7  C   UNL     1       2.198   4.551  21.083  0.00  0.00    +0.000 C 
ATOM      8  C   UNL     1       2.454   3.777  19.793  0.00  0.00    +0.000 C 
ATOM      9  C   UNL     1       1.178   3.214  19.161  0.00  0.00    +0.000 C 
ATOM     10  C   UNL     1       3.177   4.647  18.789  0.00  0.00    +0.000 A 
ATOM     11  C   UNL     1       3.950   3.986  17.810  0.00  0.00    +0.000 A 
ATOM     12  C   UNL     1       4.612   4.700  16.823  0.00  0.00    +0.000 A 
ATOM     13  C   UNL     1       4.531   6.085  16.820  0.00  0.00    +0.000 A 
ATOM     14  C   UNL     1       3.769   6.753  17.792  0.00  0.00    +0.000 A 
ATOM     15  C   UNL     1       3.054   6.059  18.786  0.00  0.00    +0.000 A 
ENDBRANCH   2   4
BRANCH   3  16
ATOM     16  C   UNL     1      -0.756   9.717  19.220  0.00  0.00    +0.000 C 
ATOM     17  C   UNL     1      -1.636  10.706  18.990  0.00  0.00    +0.000 C 
BRANCH  17  18
ATOM     18  C   UNL     1      -2.659  10.702  17.931  0.00  0.00    +0.000 C 
ATOM     19  C   UNL     1      -4.020  11.300  18.203  0.00  0.00    +0.000 C 
ATOM     20  C   UNL     1      -2.329  10.276  16.687  0.00  0.00    +0.000 C 
BRANCH  20  21
ATOM     21  C   UNL     1      -3.216  10.455  15.508  0.00  0.00    +0.000 C 
ATOM     22  O   UNL     1      -3.847   9.576  14.958  0.00  0.00    +0.000 OA
BRANCH  21  23
ATOM     23  O   UNL     1      -3.283  11.747  15.122  0.00  0.00    +0.000 OA
ATOM     24  H   UNL     1      -2.593  12.319  15.501  0.00  0.00    +0.000 HD
ENDBRANCH  21  23
ENDBRANCH  20  21
ENDBRANCH  17  18
ENDBRANCH   3  16
TORSDOF 5
ENDMDL
MODEL 4
REMARK VINA RESULT:      -7.4      4.988      7.744
REMARK  Name = 
REMARK  8 active torsions:
REMARK  status: ('A' for Active; 'I' for Inactive)
REMARK    1  A    between atoms: C_1  and  C_2
REMARK    2  A    between atoms: C_2  and  C_12
REMARK    3  A    between atoms: C_3  and  C_4
REMARK    4  A    between atoms: C_5  and  C_6
REMARK    5  A    between atoms: C_6  and  C_7
REMARK    6  A    between atoms: C_8  and  C_9
REMARK    7  A    between atoms: C_9  and  O_11
REMARK    8  A    between atoms: C_16  and  C_17
REMARK                            x       y       z     vdW  Elec       q    Type
REMARK                         _______ _______ _______ _____ _____    ______ ____
ROOT
ATOM      1  C   UNL     1       1.677   9.256  22.419  0.00  0.00    +0.000 C 
ATOM      2  C   UNL     1       0.961   8.790  21.169  0.00  0.00    +0.000 C 
ATOM      3  C   UNL     1       0.339   9.710  20.414  0.00  0.00    +0.000 C 
ENDROOT
BRANCH   2   4
ATOM      4  C   UNL     1       1.060   7.355  20.915  0.00  0.00    +0.000 C 
ATOM      5  C   UNL     1       1.834   6.734  19.993  0.00  0.00    +0.000 C 
ATOM      6  C   UNL     1       2.735   7.546  19.081  0.00  0.00    +0.000 C 
ATOM      7  C   UNL     1       3.074   6.864  17.764  0.00  0.00    +0.000 C 
ATOM      8  C   UNL     1       3.665   5.476  17.992  0.00  0.00    +0.000 C 
ATOM      9  C   UNL     1       5.069   5.509  18.603  0.00  0.00    +0.000 C 
ATOM     10  C   UNL     1       2.750   4.649  18.868  0.00  0.00    +0.000 A 
ATOM     11  C   UNL     1       2.842   3.246  18.741  0.00  0.00    +0.000 A 
ATOM     12  C   UNL     1       2.072   2.408  19.534  0.00  0.00    +0.000 A 
ATOM     13  C   UNL     1       1.184   2.963  20.443  0.00  0.00    +0.000 A 
ATOM     14  C   UNL     1       1.081   4.357  20.574  0.00  0.00    +0.000 A 
ATOM     15  C   UNL     1       1.873   5.238  19.812  0.00  0.00    +0.000 A 
ENDBRANCH   2   4
BRANCH   3  16
ATOM     16  C   UNL     1      -0.375   9.645  19.160  0.00  0.00    +0.000 C 
ATOM     17  C   UNL     1      -1.374  10.456  18.776  0.00  0.00    +0.000 C 
BRANCH  17  18
ATOM     18  C   UNL     1      -2.344  10.161  17.708  0.00  0.00    +0.000 C 
ATOM     19  C   UNL     1      -3.557   9.313  18.011  0.00  0.00    +0.000 C 
ATOM     20  C   UNL     1      -2.203  10.755  16.497  0.00  0.00    +0.000 C 
BRANCH  20  21
ATOM     21  C   UNL     1      -3.251  10.705  15.444  0.00  0.00    +0.000 C 
ATOM     22  O   UNL     1      -3.121  10.218  14.340  0.00  0.00    +0.000 OA
BRANCH  21  23
ATOM     23  O   UNL     1      -4.415  11.239  15.868  0.00  0.00    +0.000 OA
ATOM     24  H   UNL     1      -4.960  11.633  15.165  0.00  0.00    +0.000 HD
ENDBRANCH  21  23
ENDBRANCH  20  21
ENDBRANCH  17  18
ENDBRANCH   3  16
TORSDOF 5
ENDMDL
MODEL 5
REMARK VINA RESULT:      -7.3      4.902      6.718
REMARK  Name = 
REMARK  8 active torsions:
REMARK  status: ('A' for Active; 'I' for Inactive)
REMARK    1  A    between atoms: C_1  and  C_2
REMARK    2  A    between atoms: C_2  and  C_12
REMARK    3  A    between atoms: C_3  and  C_4
REMARK    4  A    between atoms: C_5  and  C_6
REMARK    5  A    between atoms: C_6  and  C_7
REMARK    6  A    between atoms: C_8  and  C_9
REMARK    7  A    between atoms: C_9  and  O_11
REMARK    8  A    between atoms: C_16  and  C_17
REMARK                            x       y       z     vdW  Elec       q    Type
REMARK                         _______ _______ _______ _____ _____    ______ ____
ROOT
ATOM      1  C   UNL     1       6.783   5.389  15.940  0.00  0.00    +0.000 C 
ATOM      2  C   UNL     1       6.716   6.443  17.024  0.00  0.00    +0.000 C 
ATOM      3  C   UNL     1       7.751   7.290  17.151  0.00  0.00    +0.000 C 
ENDROOT
BRANCH   2   4
ATOM      4  C   UNL     1       5.483   6.427  17.808  0.00  0.00    +0.000 C 
ATOM      5  C   UNL     1       4.760   5.345  18.182  0.00  0.00    +0.000 C 
ATOM      6  C   UNL     1       5.212   3.951  17.788  0.00  0.00    +0.000 C 
ATOM      7  C   UNL     1       4.093   2.923  17.726  0.00  0.00    +0.000 C 
ATOM      8  C   UNL     1       3.309   2.874  19.034  0.00  0.00    +0.000 C 
ATOM      9  C   UNL     1       4.108   2.277  20.196  0.00  0.00    +0.000 C 
ATOM     10  C   UNL     1       2.821   4.256  19.409  0.00  0.00    +0.000 A 
ATOM     11  C   UNL     1       1.679   4.327  20.235  0.00  0.00    +0.000 A 
ATOM     12  C   UNL     1       1.186   5.549  20.665  0.00  0.00    +0.000 A 
ATOM     13  C   UNL     1       1.813   6.715  20.253  0.00  0.00    +0.000 A 
ATOM     14  C   UNL     1       2.948   6.656  19.428  0.00  0.00    +0.000 A 
ATOM     15  C   UNL     1       3.499   5.432  19.002  0.00  0.00    +0.000 A 
ENDBRANCH   2   4
BRANCH   3  16
ATOM     16  C   UNL     1       8.004   8.424  18.008  0.00  0.00    +0.000 C 
ATOM     17  C   UNL     1       8.330   9.664  17.605  0.00  0.00    +0.000 C 
BRANCH  17  18
ATOM     18  C   UNL     1       8.959  10.693  18.449  0.00  0.00    +0.000 C 
ATOM     19  C   UNL     1       9.090  12.107  17.932  0.00  0.00    +0.000 C 
ATOM     20  C   UNL     1       9.302  10.390  19.725  0.00  0.00    +0.000 C 
BRANCH  20  21
ATOM     21  C   UNL     1       9.720  11.417  20.716  0.00  0.00    +0.000 C 
ATOM     22  O   UNL     1       8.975  12.059  21.426  0.00  0.00    +0.000 OA
BRANCH  21  23
ATOM     23  O   UNL     1      11.063  11.538  20.776  0.00  0.00    +0.000 OA
ATOM     24  H   UNL     1      11.444  11.392  21.659  0.00  0.00    +0.000 HD
ENDBRANCH  21  23
ENDBRANCH  20  21
ENDBRANCH  17  18
ENDBRANCH   3  16
TORSDOF 5
ENDMDL
MODEL 6
REMARK VINA RESULT:      -7.3      4.789      6.615
REMARK  Name = 
REMARK  8 active torsions:
REMARK  status: ('A' for Active; 'I' for Inactive)
REMARK    1  A    between atoms: C_1  and  C_2
REMARK    2  A    between atoms: C_2  and  C_12
REMARK    3  A    between atoms: C_3  and  C_4
REMARK    4  A    between atoms: C_5  and  C_6
REMARK    5  A    between atoms: C_6  and  C_7
REMARK    6  A    between atoms: C_8  and  C_9
REMARK    7  A    between atoms: C_9  and  O_11
REMARK    8  A    between atoms: C_16  and  C_17
REMARK                            x       y       z     vdW  Elec       q    Type
REMARK                         _______ _______ _______ _____ _____    ______ ____
ROOT
ATOM      1  C   UNL     1       6.337   5.522  15.642  0.00  0.00    +0.000 C 
ATOM      2  C   UNL     1       6.448   6.454  16.830  0.00  0.00    +0.000 C 
ATOM      3  C   UNL     1       7.578   7.167  16.974  0.00  0.00    +0.000 C 
ENDROOT
BRANCH   2   4
ATOM      4  C   UNL     1       5.265   6.486  17.687  0.00  0.00    +0.000 C 
ATOM      5  C   UNL     1       4.542   5.430  18.130  0.00  0.00    +0.000 C 
ATOM      6  C   UNL     1       4.937   4.017  17.741  0.00  0.00    +0.000 C 
ATOM      7  C   UNL     1       3.794   3.015  17.772  0.00  0.00    +0.000 C 
ATOM      8  C   UNL     1       3.090   3.014  19.125  0.00  0.00    +0.000 C 
ATOM      9  C   UNL     1       3.944   2.423  20.251  0.00  0.00    +0.000 C 
ATOM     10  C   UNL     1       2.658   4.415  19.497  0.00  0.00    +0.000 A 
ATOM     11  C   UNL     1       1.570   4.532  20.388  0.00  0.00    +0.000 A 
ATOM     12  C   UNL     1       1.131   5.775  20.819  0.00  0.00    +0.000 A 
ATOM     13  C   UNL     1       1.759   6.916  20.342  0.00  0.00    +0.000 A 
ATOM     14  C   UNL     1       2.840   6.812  19.451  0.00  0.00    +0.000 A 
ATOM     15  C   UNL     1       3.335   5.565  19.022  0.00  0.00    +0.000 A 
ENDBRANCH   2   4
BRANCH   3  16
ATOM     16  C   UNL     1       8.004   8.168  17.924  0.00  0.00    +0.000 C 
ATOM     17  C   UNL     1       8.342   9.436  17.638  0.00  0.00    +0.000 C 
BRANCH  17  18
ATOM     18  C   UNL     1       9.132  10.321  18.510  0.00  0.00    +0.000 C 
ATOM     19  C   UNL     1       9.127  10.099  20.005  0.00  0.00    +0.000 C 
ATOM     20  C   UNL     1       9.953  11.246  17.953  0.00  0.00    +0.000 C 
BRANCH  20  21
ATOM     21  C   UNL     1      10.955  12.016  18.736  0.00  0.00    +0.000 C 
ATOM     22  O   UNL     1      10.712  12.952  19.468  0.00  0.00    +0.000 OA
BRANCH  21  23
ATOM     23  O   UNL     1      12.201  11.525  18.576  0.00  0.00    +0.000 OA
ATOM     24  H   UNL     1      12.470  10.874  19.248  0.00  0.00    +0.000 HD
ENDBRANCH  21  23
ENDBRANCH  20  21
ENDBRANCH  17  18
ENDBRANCH   3  16
TORSDOF 5
ENDMDL
MODEL 7
REMARK VINA RESULT:      -7.2      5.566      8.228
REMARK  Name = 
REMARK  8 active torsions:
REMARK  status: ('A' for Active; 'I' for Inactive)
REMARK    1  A    between atoms: C_1  and  C_2
REMARK    2  A    between atoms: C_2  and  C_12
REMARK    3  A    between atoms: C_3  and  C_4
REMARK    4  A    between atoms: C_5  and  C_6
REMARK    5  A    between atoms: C_6  and  C_7
REMARK    6  A    between atoms: C_8  and  C_9
REMARK    7  A    between atoms: C_9  and  O_11
REMARK    8  A    between atoms: C_16  and  C_17
REMARK                            x       y       z     vdW  Elec       q    Type
REMARK                         _______ _______ _______ _____ _____    ______ ____
ROOT
ATOM      1  C   UNL     1       1.885   9.239  22.524  0.00  0.00    +0.000 C 
ATOM      2  C   UNL     1       0.957   8.777  21.421  0.00  0.00    +0.000 C 
ATOM      3  C   UNL     1       0.157   9.687  20.841  0.00  0.00    +0.000 C 
ENDROOT
BRANCH   2   4
ATOM      4  C   UNL     1       1.067   7.358  21.092  0.00  0.00    +0.000 C 
ATOM      5  C   UNL     1       1.750   6.802  20.063  0.00  0.00    +0.000 C 
ATOM      6  C   UNL     1       2.520   7.681  19.094  0.00  0.00    +0.000 C 
ATOM      7  C   UNL     1       2.728   7.067  17.719  0.00  0.00    +0.000 C 
ATOM      8  C   UNL     1       3.380   5.691  17.817  0.00  0.00    +0.000 C 
ATOM      9  C   UNL     1       4.843   5.745  18.269  0.00  0.00    +0.000 C 
ATOM     10  C   UNL     1       2.593   4.798  18.750  0.00  0.00    +0.000 A 
ATOM     11  C   UNL     1       2.709   3.406  18.550  0.00  0.00    +0.000 A 
ATOM     12  C   UNL     1       2.058   2.510  19.384  0.00  0.00    +0.000 A 
ATOM     13  C   UNL     1       1.262   2.996  20.410  0.00  0.00    +0.000 A 
ATOM     14  C   UNL     1       1.135   4.380  20.615  0.00  0.00    +0.000 A 
ATOM     15  C   UNL     1       1.811   5.318  19.811  0.00  0.00    +0.000 A 
ENDBRANCH   2   4
BRANCH   3  16
ATOM     16  C   UNL     1      -0.789   9.626  19.751  0.00  0.00    +0.000 C 
ATOM     17  C   UNL     1      -0.917  10.526  18.763  0.00  0.00    +0.000 C 
BRANCH  17  18
ATOM     18  C   UNL     1      -2.100  10.676  17.900  0.00  0.00    +0.000 C 
ATOM     19  C   UNL     1      -2.154   9.957  16.572  0.00  0.00    +0.000 C 
ATOM     20  C   UNL     1      -3.179  11.358  18.359  0.00  0.00    +0.000 C 
BRANCH  20  21
ATOM     21  C   UNL     1      -4.491  11.361  17.662  0.00  0.00    +0.000 C 
ATOM     22  O   UNL     1      -4.747  11.962  16.639  0.00  0.00    +0.000 OA
BRANCH  21  23
ATOM     23  O   UNL     1      -5.391  10.568  18.281  0.00  0.00    +0.000 OA
ATOM     24  H   UNL     1      -6.320  10.759  18.061  0.00  0.00    +0.000 HD
ENDBRANCH  21  23
ENDBRANCH  20  21
ENDBRANCH  17  18
ENDBRANCH   3  16
TORSDOF 5
ENDMDL
MODEL 8
REMARK VINA RESULT:      -7.2      4.164      7.757
REMARK  Name = 
REMARK  8 active torsions:
REMARK  status: ('A' for Active; 'I' for Inactive)
REMARK    1  A    between atoms: C_1  and  C_2
REMARK    2  A    between atoms: C_2  and  C_12
REMARK    3  A    between atoms: C_3  and  C_4
REMARK    4  A    between atoms: C_5  and  C_6
REMARK    5  A    between atoms: C_6  and  C_7
REMARK    6  A    between atoms: C_8  and  C_9
REMARK    7  A    between atoms: C_9  and  O_11
REMARK    8  A    between atoms: C_16  and  C_17
REMARK                            x       y       z     vdW  Elec       q    Type
REMARK                         _______ _______ _______ _____ _____    ______ ____
ROOT
ATOM      1  C   UNL     1       2.285   1.803  18.651  0.00  0.00    +0.000 C 
ATOM      2  C   UNL     1       2.415   3.256  18.249  0.00  0.00    +0.000 C 
ATOM      3  C   UNL     1       1.735   4.173  18.957  0.00  0.00    +0.000 C 
ENDROOT
BRANCH   2   4
ATOM      4  C   UNL     1       3.312   3.494  17.120  0.00  0.00    +0.000 C 
ATOM      5  C   UNL     1       4.498   4.147  17.136  0.00  0.00    +0.000 C 
ATOM      6  C   UNL     1       5.034   4.727  18.433  0.00  0.00    +0.000 C 
ATOM      7  C   UNL     1       5.997   5.890  18.250  0.00  0.00    +0.000 C 
ATOM      8  C   UNL     1       7.148   5.518  17.322  0.00  0.00    +0.000 C 
ATOM      9  C   UNL     1       8.121   4.508  17.939  0.00  0.00    +0.000 C 
ATOM     10  C   UNL     1       6.619   4.978  16.012  0.00  0.00    +0.000 A 
ATOM     11  C   UNL     1       7.461   5.096  14.885  0.00  0.00    +0.000 A 
ATOM     12  C   UNL     1       7.077   4.591  13.652  0.00  0.00    +0.000 A 
ATOM     13  C   UNL     1       5.836   3.986  13.526  0.00  0.00    +0.000 A 
ATOM     14  C   UNL     1       4.987   3.867  14.639  0.00  0.00    +0.000 A 
ATOM     15  C   UNL     1       5.360   4.335  15.914  0.00  0.00    +0.000 A 
ENDBRANCH   2   4
BRANCH   3  16
ATOM     16  C   UNL     1       1.664   5.615  18.901  0.00  0.00    +0.000 C 
ATOM     17  C   UNL     1       2.224   6.469  19.773  0.00  0.00    +0.000 C 
BRANCH  17  18
ATOM     18  C   UNL     1       1.838   7.879  19.948  0.00  0.00    +0.000 C 
ATOM     19  C   UNL     1       1.896   8.823  18.768  0.00  0.00    +0.000 C 
ATOM     20  C   UNL     1       1.317   8.286  21.132  0.00  0.00    +0.000 C 
BRANCH  20  21
ATOM     21  C   UNL     1       0.687   9.619  21.323  0.00  0.00    +0.000 C 
ATOM     22  O   UNL     1       1.238  10.605  21.767  0.00  0.00    +0.000 OA
BRANCH  21  23
ATOM     23  O   UNL     1      -0.595   9.633  20.901  0.00  0.00    +0.000 OA
ATOM     24  H   UNL     1      -0.722   9.345  19.980  0.00  0.00    +0.000 HD
ENDBRANCH  21  23
ENDBRANCH  20  21
ENDBRANCH  17  18
ENDBRANCH   3  16
TORSDOF 5
ENDMDL
MODEL 9
REMARK VINA RESULT:      -7.2      5.792      8.685
REMARK  Name = 
REMARK  8 active torsions:
REMARK  status: ('A' for Active; 'I' for Inactive)
REMARK    1  A    between atoms: C_1  and  C_2
REMARK    2  A    between atoms: C_2  and  C_12
REMARK    3  A    between atoms: C_3  and  C_4
REMARK    4  A    between atoms: C_5  and  C_6
REMARK    5  A    between atoms: C_6  and  C_7
REMARK    6  A    between atoms: C_8  and  C_9
REMARK    7  A    between atoms: C_9  and  O_11
REMARK    8  A    between atoms: C_16  and  C_17
REMARK                            x       y       z     vdW  Elec       q    Type
REMARK                         _______ _______ _______ _____ _____    ______ ____
ROOT
ATOM      1  C   UNL     1       1.577   8.942  22.165  0.00  0.00    +0.000 C 
ATOM      2  C   UNL     1       1.046   8.959  20.747  0.00  0.00    +0.000 C 
ATOM      3  C   UNL     1      -0.127   9.572  20.516  0.00  0.00    +0.000 C 
ENDROOT
BRANCH   2   4
ATOM      4  C   UNL     1       1.914   8.308  19.768  0.00  0.00    +0.000 C 
ATOM      5  C   UNL     1       2.175   6.985  19.651  0.00  0.00    +0.000 C 
ATOM      6  C   UNL     1       1.532   5.992  20.603  0.00  0.00    +0.000 C 
ATOM      7  C   UNL     1       2.307   4.696  20.776  0.00  0.00    +0.000 C 
ATOM      8  C   UNL     1       2.589   4.032  19.432  0.00  0.00    +0.000 C 
ATOM      9  C   UNL     1       1.334   3.463  18.763  0.00  0.00    +0.000 C 
ATOM     10  C   UNL     1       3.268   5.006  18.494  0.00  0.00    +0.000 A 
ATOM     11  C   UNL     1       4.062   4.454  17.466  0.00  0.00    +0.000 A 
ATOM     12  C   UNL     1       4.688   5.268  16.534  0.00  0.00    +0.000 A 
ATOM     13  C   UNL     1       4.547   6.643  16.635  0.00  0.00    +0.000 A 
ATOM     14  C   UNL     1       3.763   7.204  17.656  0.00  0.00    +0.000 A 
ATOM     15  C   UNL     1       3.084   6.407  18.597  0.00  0.00    +0.000 A 
ENDBRANCH   2   4
BRANCH   3  16
ATOM     16  C   UNL     1      -0.892   9.829  19.318  0.00  0.00    +0.000 C 
ATOM     17  C   UNL     1      -1.494  10.985  18.996  0.00  0.00    +0.000 C 
BRANCH  17  18
ATOM     18  C   UNL     1      -2.573  11.134  18.005  0.00  0.00    +0.000 C 
ATOM     19  C   UNL     1      -2.373  10.618  16.598  0.00  0.00    +0.000 C 
ATOM     20  C   UNL     1      -3.776  11.619  18.397  0.00  0.00    +0.000 C 
BRANCH  20  21
ATOM     21  C   UNL     1      -4.984  11.585  17.531  0.00  0.00    +0.000 C 
ATOM     22  O   UNL     1      -5.125  12.192  16.490  0.00  0.00    +0.000 OA
BRANCH  21  23
ATOM     23  O   UNL     1      -5.926  10.749  18.016  0.00  0.00    +0.000 OA
ATOM     24  H   UNL     1      -5.659  10.256  18.812  0.00  0.00    +0.000 HD
ENDBRANCH  21  23
ENDBRANCH  20  21
ENDBRANCH  17  18
ENDBRANCH   3  16
TORSDOF 5
ENDMDL
