MODEL 1
REMARK VINA RESULT:      -5.7      0.000      0.000
REMARK  Name = 
REMARK  7 active torsions:
REMARK  status: ('A' for Active; 'I' for Inactive)
REMARK    1  A    between atoms: C_1  and  N_2
REMARK    2  A    between atoms: N_2  and  C_3
REMARK    3  A    between atoms: N_2  and  C_4
REMARK    4  A    between atoms: C_7  and  O_8
REMARK    5  A    between atoms: O_8  and  C_9
REMARK    6  A    between atoms: C_9  and  C_10
REMARK    7  A    between atoms: C_10  and  O_12
REMARK                            x       y       z     vdW  Elec       q    Type
REMARK                         _______ _______ _______ _____ _____    ______ ____
ROOT
ATOM      1  C   UNL     1       2.490   4.117  18.419  0.00  0.00    +0.000 A 
ATOM      2  C   UNL     1       2.819   5.481  18.354  0.00  0.00    +0.000 A 
ATOM      3  C   UNL     1       3.928   5.948  17.634  0.00  0.00    +0.000 A 
ATOM      4  C   UNL     1       4.759   5.066  16.955  0.00  0.00    +0.000 A 
ATOM      5  C   UNL     1       4.455   3.711  16.975  0.00  0.00    +0.000 A 
ATOM      6  C   UNL     1       3.333   3.252  17.698  0.00  0.00    +0.000 A 
ENDROOT
BRANCH   1   8
ATOM      7  C   UNL     1       1.046   4.229  20.429  0.00  0.00    +0.000 C 
ATOM      8  N   UNL     1       1.389   3.656  19.132  0.00  0.00    +0.000 N 
ATOM      9  C   UNL     1       0.725   2.419  18.744  0.00  0.00    +0.000 C 
ENDBRANCH   1   8
BRANCH   4  10
ATOM     10  O   UNL     1       5.786   5.643  16.266  0.00  0.00    +0.000 OA
BRANCH  10  11
ATOM     11  C   UNL     1       6.833   6.203  17.061  0.00  0.00    +0.000 C 
BRANCH  11  12
ATOM     12  C   UNL     1       7.511   5.086  17.837  0.00  0.00    +0.000 C 
ATOM     13  O   UNL     1       7.549   5.028  19.059  0.00  0.00    +0.000 OA
BRANCH  12  14
ATOM     14  O   UNL     1       8.075   4.141  17.044  0.00  0.00    +0.000 OA
ATOM     15  H   UNL     1       8.239   3.326  17.567  0.00  0.00    +0.000 HD
ENDBRANCH  12  14
ENDBRANCH  11  12
ENDBRANCH  10  11
ENDBRANCH   4  10
TORSDOF 5
ENDMDL
MODEL 2
REMARK VINA RESULT:      -5.6      0.418      1.284
REMARK  Name = 
REMARK  7 active torsions:
REMARK  status: ('A' for Active; 'I' for Inactive)
REMARK    1  A    between atoms: C_1  and  N_2
REMARK    2  A    between atoms: N_2  and  C_3
REMARK    3  A    between atoms: N_2  and  C_4
REMARK    4  A    between atoms: C_7  and  O_8
REMARK    5  A    between atoms: O_8  and  C_9
REMARK    6  A    between atoms: C_9  and  C_10
REMARK    7  A    between atoms: C_10  and  O_12
REMARK                            x       y       z     vdW  Elec       q    Type
REMARK                         _______ _______ _______ _____ _____    ______ ____
ROOT
ATOM      1  C   UNL     1       2.573   4.164  18.477  0.00  0.00    +0.000 A 
ATOM      2  C   UNL     1       3.191   3.484  17.414  0.00  0.00    +0.000 A 
ATOM      3  C   UNL     1       4.344   3.975  16.785  0.00  0.00    +0.000 A 
ATOM      4  C   UNL     1       4.922   5.171  17.190  0.00  0.00    +0.000 A 
ATOM      5  C   UNL     1       4.354   5.862  18.252  0.00  0.00    +0.000 A 
ATOM      6  C   UNL     1       3.197   5.357  18.882  0.00  0.00    +0.000 A 
ENDROOT
BRANCH   1   8
ATOM      7  C   UNL     1       0.944   4.271  20.341  0.00  0.00    +0.000 C 
ATOM      8  N   UNL     1       1.430   3.676  19.101  0.00  0.00    +0.000 N 
ATOM      9  C   UNL     1       0.857   2.399  18.696  0.00  0.00    +0.000 C 
ENDBRANCH   1   8
BRANCH   4  10
ATOM     10  O   UNL     1       6.058   5.527  16.521  0.00  0.00    +0.000 OA
BRANCH  10  11
ATOM     11  C   UNL     1       7.066   6.168  17.305  0.00  0.00    +0.000 C 
BRANCH  11  12
ATOM     12  C   UNL     1       7.693   5.142  18.234  0.00  0.00    +0.000 C 
ATOM     13  O   UNL     1       7.732   5.255  19.452  0.00  0.00    +0.000 OA
BRANCH  12  14
ATOM     14  O   UNL     1       8.211   4.069  17.585  0.00  0.00    +0.000 OA
ATOM     15  H   UNL     1       7.862   3.242  17.983  0.00  0.00    +0.000 HD
ENDBRANCH  12  14
ENDBRANCH  11  12
ENDBRANCH  10  11
ENDBRANCH   4  10
TORSDOF 5
ENDMDL
MODEL 3
REMARK VINA RESULT:      -5.5      3.410      5.577
REMARK  Name = 
REMARK  7 active torsions:
REMARK  status: ('A' for Active; 'I' for Inactive)
REMARK    1  A    between atoms: C_1  and  N_2
REMARK    2  A    between atoms: N_2  and  C_3
REMARK    3  A    between atoms: N_2  and  C_4
REMARK    4  A    between atoms: C_7  and  O_8
REMARK    5  A    between atoms: O_8  and  C_9
REMARK    6  A    between atoms: C_9  and  C_10
REMARK    7  A    between atoms: C_10  and  O_12
REMARK                            x       y       z     vdW  Elec       q    Type
REMARK                         _______ _______ _______ _____ _____    ______ ____
ROOT
ATOM      1  C   UNL     1       4.817   5.168  17.026  0.00  0.00    +0.000 A 
ATOM      2  C   UNL     1       4.426   3.848  16.748  0.00  0.00    +0.000 A 
ATOM      3  C   UNL     1       3.148   3.365  17.064  0.00  0.00    +0.000 A 
ATOM      4  C   UNL     1       2.210   4.185  17.680  0.00  0.00    +0.000 A 
ATOM      5  C   UNL     1       2.550   5.503  17.951  0.00  0.00    +0.000 A 
ATOM      6  C   UNL     1       3.836   5.980  17.624  0.00  0.00    +0.000 A 
ENDROOT
BRANCH   1   8
ATOM      7  C   UNL     1       7.055   4.794  16.031  0.00  0.00    +0.000 C 
ATOM      8  N   UNL     1       6.084   5.645  16.711  0.00  0.00    +0.000 N 
ATOM      9  C   UNL     1       6.569   6.890  17.291  0.00  0.00    +0.000 C 
ENDBRANCH   1   8
BRANCH   4  10
ATOM     10  O   UNL     1       0.993   3.610  17.908  0.00  0.00    +0.000 OA
BRANCH  10  11
ATOM     11  C   UNL     1       0.995   2.462  18.759  0.00  0.00    +0.000 C 
BRANCH  11  12
ATOM     12  C   UNL     1       1.174   2.918  20.198  0.00  0.00    +0.000 C 
ATOM     13  O   UNL     1       1.923   2.375  20.999  0.00  0.00    +0.000 OA
BRANCH  12  14
ATOM     14  O   UNL     1       0.422   3.999  20.520  0.00  0.00    +0.000 OA
ATOM     15  H   UNL     1      -0.473   3.707  20.803  0.00  0.00    +0.000 HD
ENDBRANCH  12  14
ENDBRANCH  11  12
ENDBRANCH  10  11
ENDBRANCH   4  10
TORSDOF 5
ENDMDL
MODEL 4
REMARK VINA RESULT:      -5.5      3.347      5.494
REMARK  Name = 
REMARK  7 active torsions:
REMARK  status: ('A' for Active; 'I' for Inactive)
REMARK    1  A    between atoms: C_1  and  N_2
REMARK    2  A    between atoms: N_2  and  C_3
REMARK    3  A    between atoms: N_2  and  C_4
REMARK    4  A    between atoms: C_7  and  O_8
REMARK    5  A    between atoms: O_8  and  C_9
REMARK    6  A    between atoms: C_9  and  C_10
REMARK    7  A    between atoms: C_10  and  O_12
REMARK                            x       y       z     vdW  Elec       q    Type
REMARK                         _______ _______ _______ _____ _____    ______ ____
ROOT
ATOM      1  C   UNL     1       5.051   5.107  17.552  0.00  0.00    +0.000 A 
ATOM      2  C   UNL     1       4.704   3.775  17.275  0.00  0.00    +0.000 A 
ATOM      3  C   UNL     1       3.384   3.310  17.380  0.00  0.00    +0.000 A 
ATOM      4  C   UNL     1       2.360   4.161  17.775  0.00  0.00    +0.000 A 
ATOM      5  C   UNL     1       2.658   5.491  18.036  0.00  0.00    +0.000 A 
ATOM      6  C   UNL     1       3.987   5.950  17.922  0.00  0.00    +0.000 A 
ENDROOT
BRANCH   1   8
ATOM      7  C   UNL     1       6.638   6.983  17.237  0.00  0.00    +0.000 C 
ATOM      8  N   UNL     1       6.359   5.567  17.446  0.00  0.00    +0.000 N 
ATOM      9  C   UNL     1       7.458   4.628  17.261  0.00  0.00    +0.000 C 
ENDBRANCH   1   8
BRANCH   4  10
ATOM     10  O   UNL     1       1.115   3.600  17.809  0.00  0.00    +0.000 OA
BRANCH  10  11
ATOM     11  C   UNL     1       0.971   2.456  18.653  0.00  0.00    +0.000 C 
BRANCH  11  12
ATOM     12  C   UNL     1       1.120   2.892  20.101  0.00  0.00    +0.000 C 
ATOM     13  O   UNL     1       1.871   2.352  20.903  0.00  0.00    +0.000 OA
BRANCH  12  14
ATOM     14  O   UNL     1       0.341   3.951  20.431  0.00  0.00    +0.000 OA
ATOM     15  H   UNL     1      -0.593   3.762  20.191  0.00  0.00    +0.000 HD
ENDBRANCH  12  14
ENDBRANCH  11  12
ENDBRANCH  10  11
ENDBRANCH   4  10
TORSDOF 5
ENDMDL
MODEL 5
REMARK VINA RESULT:      -5.4      1.437      2.090
REMARK  Name = 
REMARK  7 active torsions:
REMARK  status: ('A' for Active; 'I' for Inactive)
REMARK    1  A    between atoms: C_1  and  N_2
REMARK    2  A    between atoms: N_2  and  C_3
REMARK    3  A    between atoms: N_2  and  C_4
REMARK    4  A    between atoms: C_7  and  O_8
REMARK    5  A    between atoms: O_8  and  C_9
REMARK    6  A    between atoms: C_9  and  C_10
REMARK    7  A    between atoms: C_10  and  O_12
REMARK                            x       y       z     vdW  Elec       q    Type
REMARK                         _______ _______ _______ _____ _____    ______ ____
ROOT
ATOM      1  C   UNL     1       2.672   3.683  19.324  0.00  0.00    +0.000 A 
ATOM      2  C   UNL     1       4.043   3.416  19.471  0.00  0.00    +0.000 A 
ATOM      3  C   UNL     1       5.026   4.191  18.837  0.00  0.00    +0.000 A 
ATOM      4  C   UNL     1       4.674   5.261  18.025  0.00  0.00    +0.000 A 
ATOM      5  C   UNL     1       3.330   5.571  17.872  0.00  0.00    +0.000 A 
ATOM      6  C   UNL     1       2.349   4.789  18.518  0.00  0.00    +0.000 A 
ENDROOT
BRANCH   1   8
ATOM      7  C   UNL     1       0.597   2.335  19.193  0.00  0.00    +0.000 C 
ATOM      8  N   UNL     1       1.699   2.914  19.954  0.00  0.00    +0.000 N 
ATOM      9  C   UNL     1       1.596   2.900  21.406  0.00  0.00    +0.000 C 
ENDBRANCH   1   8
BRANCH   4  10
ATOM     10  O   UNL     1       5.720   5.957  17.490  0.00  0.00    +0.000 OA
BRANCH  10  11
ATOM     11  C   UNL     1       5.897   5.828  16.078  0.00  0.00    +0.000 C 
BRANCH  11  12
ATOM     12  C   UNL     1       7.230   5.149  15.810  0.00  0.00    +0.000 C 
ATOM     13  O   UNL     1       7.811   4.439  16.621  0.00  0.00    +0.000 OA
BRANCH  12  14
ATOM     14  O   UNL     1       7.726   5.398  14.573  0.00  0.00    +0.000 OA
ATOM     15  H   UNL     1       8.436   6.073  14.631  0.00  0.00    +0.000 HD
ENDBRANCH  12  14
ENDBRANCH  11  12
ENDBRANCH  10  11
ENDBRANCH   4  10
TORSDOF 5
ENDMDL
MODEL 6
REMARK VINA RESULT:      -5.4      3.566      5.397
REMARK  Name = 
REMARK  7 active torsions:
REMARK  status: ('A' for Active; 'I' for Inactive)
REMARK    1  A    between atoms: C_1  and  N_2
REMARK    2  A    between atoms: N_2  and  C_3
REMARK    3  A    between atoms: N_2  and  C_4
REMARK    4  A    between atoms: C_7  and  O_8
REMARK    5  A    between atoms: O_8  and  C_9
REMARK    6  A    between atoms: C_9  and  C_10
REMARK    7  A    between atoms: C_10  and  O_12
REMARK                            x       y       z     vdW  Elec       q    Type
REMARK                         _______ _______ _______ _____ _____    ______ ____
ROOT
ATOM      1  C   UNL     1       4.803   4.838  16.584  0.00  0.00    +0.000 A 
ATOM      2  C   UNL     1       4.523   5.986  17.343  0.00  0.00    +0.000 A 
ATOM      3  C   UNL     1       3.515   6.008  18.318  0.00  0.00    +0.000 A 
ATOM      4  C   UNL     1       2.741   4.882  18.567  0.00  0.00    +0.000 A 
ATOM      5  C   UNL     1       3.001   3.720  17.853  0.00  0.00    +0.000 A 
ATOM      6  C   UNL     1       4.021   3.707  16.879  0.00  0.00    +0.000 A 
ENDROOT
BRANCH   1   8
ATOM      7  C   UNL     1       5.532   4.324  14.273  0.00  0.00    +0.000 C 
ATOM      8  N   UNL     1       5.804   4.817  15.618  0.00  0.00    +0.000 N 
ATOM      9  C   UNL     1       7.196   5.018  15.995  0.00  0.00    +0.000 C 
ENDBRANCH   1   8
BRANCH   4  10
ATOM     10  O   UNL     1       1.814   5.018  19.561  0.00  0.00    +0.000 OA
BRANCH  10  11
ATOM     11  C   UNL     1       2.235   4.612  20.864  0.00  0.00    +0.000 C 
BRANCH  11  12
ATOM     12  C   UNL     1       1.492   3.343  21.247  0.00  0.00    +0.000 C 
ATOM     13  O   UNL     1       1.768   2.657  22.222  0.00  0.00    +0.000 OA
BRANCH  12  14
ATOM     14  O   UNL     1       0.477   3.034  20.402  0.00  0.00    +0.000 OA
ATOM     15  H   UNL     1       0.834   2.880  19.500  0.00  0.00    +0.000 HD
ENDBRANCH  12  14
ENDBRANCH  11  12
ENDBRANCH  10  11
ENDBRANCH   4  10
TORSDOF 5
ENDMDL
MODEL 7
REMARK VINA RESULT:      -5.4      0.938      2.031
REMARK  Name = 
REMARK  7 active torsions:
REMARK  status: ('A' for Active; 'I' for Inactive)
REMARK    1  A    between atoms: C_1  and  N_2
REMARK    2  A    between atoms: N_2  and  C_3
REMARK    3  A    between atoms: N_2  and  C_4
REMARK    4  A    between atoms: C_7  and  O_8
REMARK    5  A    between atoms: O_8  and  C_9
REMARK    6  A    between atoms: C_9  and  C_10
REMARK    7  A    between atoms: C_10  and  O_12
REMARK                            x       y       z     vdW  Elec       q    Type
REMARK                         _______ _______ _______ _____ _____    ______ ____
ROOT
ATOM      1  C   UNL     1       2.469   3.836  18.773  0.00  0.00    +0.000 A 
ATOM      2  C   UNL     1       3.401   3.239  17.909  0.00  0.00    +0.000 A 
ATOM      3  C   UNL     1       4.274   3.996  17.113  0.00  0.00    +0.000 A 
ATOM      4  C   UNL     1       4.243   5.384  17.146  0.00  0.00    +0.000 A 
ATOM      5  C   UNL     1       3.351   6.013  18.004  0.00  0.00    +0.000 A 
ATOM      6  C   UNL     1       2.481   5.242  18.804  0.00  0.00    +0.000 A 
ENDROOT
BRANCH   1   8
ATOM      7  C   UNL     1       0.599   2.221  18.953  0.00  0.00    +0.000 C 
ATOM      8  N   UNL     1       1.605   3.084  19.561  0.00  0.00    +0.000 N 
ATOM      9  C   UNL     1       1.493   3.346  20.990  0.00  0.00    +0.000 C 
ENDBRANCH   1   8
BRANCH   4  10
ATOM     10  O   UNL     1       5.161   6.008  16.352  0.00  0.00    +0.000 OA
BRANCH  10  11
ATOM     11  C   UNL     1       6.481   6.114  16.890  0.00  0.00    +0.000 C 
BRANCH  11  12
ATOM     12  C   UNL     1       7.389   5.139  16.160  0.00  0.00    +0.000 C 
ATOM     13  O   UNL     1       7.605   5.176  14.956  0.00  0.00    +0.000 OA
BRANCH  12  14
ATOM     14  O   UNL     1       7.952   4.211  16.973  0.00  0.00    +0.000 OA
ATOM     15  H   UNL     1       8.912   4.141  16.779  0.00  0.00    +0.000 HD
ENDBRANCH  12  14
ENDBRANCH  11  12
ENDBRANCH  10  11
ENDBRANCH   4  10
TORSDOF 5
ENDMDL
MODEL 8
REMARK VINA RESULT:      -5.4      1.070      1.851
REMARK  Name = 
REMARK  7 active torsions:
REMARK  status: ('A' for Active; 'I' for Inactive)
REMARK    1  A    between atoms: C_1  and  N_2
REMARK    2  A    between atoms: N_2  and  C_3
REMARK    3  A    between atoms: N_2  and  C_4
REMARK    4  A    between atoms: C_7  and  O_8
REMARK    5  A    between atoms: O_8  and  C_9
REMARK    6  A    between atoms: C_9  and  C_10
REMARK    7  A    between atoms: C_10  and  O_12
REMARK                            x       y       z     vdW  Elec       q    Type
REMARK                         _______ _______ _______ _____ _____    ______ ____
ROOT
ATOM      1  C   UNL     1       2.248   4.059  18.828  0.00  0.00    +0.000 A 
ATOM      2  C   UNL     1       3.135   3.499  17.893  0.00  0.00    +0.000 A 
ATOM      3  C   UNL     1       4.009   4.286  17.130  0.00  0.00    +0.000 A 
ATOM      4  C   UNL     1       4.025   5.669  17.266  0.00  0.00    +0.000 A 
ATOM      5  C   UNL     1       3.179   6.259  18.195  0.00  0.00    +0.000 A 
ATOM      6  C   UNL     1       2.308   5.458  18.963  0.00  0.00    +0.000 A 
ENDROOT
BRANCH   1   8
ATOM      7  C   UNL     1       1.492   3.236  21.039  0.00  0.00    +0.000 C 
ATOM      8  N   UNL     1       1.383   3.277  19.585  0.00  0.00    +0.000 N 
ATOM      9  C   UNL     1       0.541   2.275  18.944  0.00  0.00    +0.000 C 
ENDBRANCH   1   8
BRANCH   4  10
ATOM     10  O   UNL     1       4.941   6.322  16.492  0.00  0.00    +0.000 OA
BRANCH  10  11
ATOM     11  C   UNL     1       5.817   5.490  15.729  0.00  0.00    +0.000 C 
BRANCH  11  12
ATOM     12  C   UNL     1       7.194   5.507  16.373  0.00  0.00    +0.000 C 
ATOM     13  O   UNL     1       7.833   4.500  16.646  0.00  0.00    +0.000 OA
BRANCH  12  14
ATOM     14  O   UNL     1       7.662   6.756  16.617  0.00  0.00    +0.000 OA
ATOM     15  H   UNL     1       7.905   6.838  17.565  0.00  0.00    +0.000 HD
ENDBRANCH  12  14
ENDBRANCH  11  12
ENDBRANCH  10  11
ENDBRANCH   4  10
TORSDOF 5
ENDMDL
MODEL 9
REMARK VINA RESULT:      -5.4      1.390      1.970
REMARK  Name = 
REMARK  7 active torsions:
REMARK  status: ('A' for Active; 'I' for Inactive)
REMARK    1  A    between atoms: C_1  and  N_2
REMARK    2  A    between atoms: N_2  and  C_3
REMARK    3  A    between atoms: N_2  and  C_4
REMARK    4  A    between atoms: C_7  and  O_8
REMARK    5  A    between atoms: O_8  and  C_9
REMARK    6  A    between atoms: C_9  and  C_10
REMARK    7  A    between atoms: C_10  and  O_12
REMARK                            x       y       z     vdW  Elec       q    Type
REMARK                         _______ _______ _______ _____ _____    ______ ____
ROOT
ATOM      1  C   UNL     1       2.623   3.825  19.315  0.00  0.00    +0.000 A 
ATOM      2  C   UNL     1       3.947   3.454  19.600  0.00  0.00    +0.000 A 
ATOM      3  C   UNL     1       5.046   4.186  19.127  0.00  0.00    +0.000 A 
ATOM      4  C   UNL     1       4.863   5.317  18.342  0.00  0.00    +0.000 A 
ATOM      5  C   UNL     1       3.569   5.730  18.055  0.00  0.00    +0.000 A 
ATOM      6  C   UNL     1       2.470   4.990  18.541  0.00  0.00    +0.000 A 
ENDROOT
BRANCH   1   8
ATOM      7  C   UNL     1       1.349   2.874  21.215  0.00  0.00    +0.000 C 
ATOM      8  N   UNL     1       1.535   3.099  19.785  0.00  0.00    +0.000 N 
ATOM      9  C   UNL     1       0.718   2.316  18.868  0.00  0.00    +0.000 C 
ENDBRANCH   1   8
BRANCH   4  10
ATOM     10  O   UNL     1       6.008   5.961  17.969  0.00  0.00    +0.000 OA
BRANCH  10  11
ATOM     11  C   UNL     1       6.254   6.030  16.564  0.00  0.00    +0.000 C 
BRANCH  11  12
ATOM     12  C   UNL     1       6.982   4.768  16.130  0.00  0.00    +0.000 C 
ATOM     13  O   UNL     1       6.712   4.137  15.117  0.00  0.00    +0.000 OA
BRANCH  12  14
ATOM     14  O   UNL     1       7.977   4.400  16.975  0.00  0.00    +0.000 OA
ATOM     15  H   UNL     1       7.828   4.805  17.858  0.00  0.00    +0.000 HD
ENDBRANCH  12  14
ENDBRANCH  11  12
ENDBRANCH  10  11
ENDBRANCH   4  10
TORSDOF 5
ENDMDL
