MODEL 1
REMARK VINA RESULT:      -6.9      0.000      0.000
REMARK  Name = 
REMARK  8 active torsions:
REMARK  status: ('A' for Active; 'I' for Inactive)
REMARK    1  A    between atoms: C_2  and  C_3
REMARK    2  A    between atoms: C_3  and  O_4
REMARK    3  A    between atoms: O_4  and  C_5
REMARK    4  A    between atoms: C_5  and  C_7
REMARK    5  A    between atoms: C_7  and  C_8
REMARK    6  A    between atoms: C_8  and  S_9
REMARK    7  A    between atoms: S_9  and  C_12
REMARK    8  A    between atoms: N_19  and  C_20
REMARK                            x       y       z     vdW  Elec       q    Type
REMARK                         _______ _______ _______ _____ _____    ______ ____
ROOT
ATOM      1  C   UNL     1       1.628   2.735  19.756  0.00  0.00    +0.000 C 
ATOM      2  O   UNL     1       0.679   2.530  19.010  0.00  0.00    +0.000 OA
ENDROOT
BRANCH   1   3
ATOM      3  O   UNL     1       2.742   1.961  19.799  0.00  0.00    +0.000 OA
BRANCH   3   4
ATOM      4  C   UNL     1       3.513   2.015  18.598  0.00  0.00    +0.000 C 
BRANCH   4   6
ATOM      5  O   UNL     1       5.312   3.083  19.834  0.00  0.00    +0.000 OA
ATOM      6  C   UNL     1       4.652   3.021  18.799  0.00  0.00    +0.000 C 
ATOM      7  N   UNL     1       4.844   3.866  17.726  0.00  0.00    +0.000 N 
ATOM      8  H   UNL     1       4.390   3.637  16.853  0.00  0.00    +0.000 HD
BRANCH   7   9
ATOM      9  C   UNL     1       5.899   4.875  17.708  0.00  0.00    +0.000 C 
ATOM     10  C   UNL     1       7.162   4.355  17.006  0.00  0.00    +0.000 C 
ATOM     11  C   UNL     1       6.966   4.197  15.498  0.00  0.00    +0.000 C 
ATOM     12  C   UNL     1       6.456   5.484  14.855  0.00  0.00    +0.000 C 
ATOM     13  C   UNL     1       5.194   6.004  15.536  0.00  0.00    +0.000 C 
ATOM     14  C   UNL     1       5.390   6.161  17.044  0.00  0.00    +0.000 C 
ENDBRANCH   7   9
ENDBRANCH   4   6
ENDBRANCH   3   4
ENDBRANCH   1   3
BRANCH   1  15
ATOM     15  C   UNL     1       1.607   3.750  20.867  0.00  0.00    +0.000 C 
BRANCH  15  16
ATOM     16  C   UNL     1       1.184   5.135  20.418  0.00  0.00    +0.000 C 
BRANCH  16  17
ATOM     17  S   UNL     1       2.389   5.907  19.370  0.00  0.00    +0.000 S 
ATOM     18  O   UNL     1       3.666   5.872  20.054  0.00  0.00    +0.000 OA
ATOM     19  O   UNL     1       2.250   5.338  18.043  0.00  0.00    +0.000 OA
BRANCH  17  20
ATOM     20  C   UNL     1       1.903   7.616  19.287  0.00  0.00    +0.000 A 
ATOM     21  C   UNL     1       2.029   8.298  18.074  0.00  0.00    +0.000 A 
ATOM     22  C   UNL     1       1.677   9.649  18.008  0.00  0.00    +0.000 A 
ATOM     23  C   UNL     1       1.192  10.297  19.145  0.00  0.00    +0.000 A 
ATOM     24 CL   UNL     1       0.767  11.962  19.062  0.00  0.00    +0.000 Cl
ATOM     25  C   UNL     1       1.046   9.603  20.348  0.00  0.00    +0.000 A 
ATOM     26  C   UNL     1       1.400   8.255  20.423  0.00  0.00    +0.000 A 
ENDBRANCH  17  20
ENDBRANCH  16  17
ENDBRANCH  15  16
ENDBRANCH   1  15
TORSDOF 8
ENDMDL
MODEL 2
REMARK VINA RESULT:      -6.8      1.171      2.027
REMARK  Name = 
REMARK  8 active torsions:
REMARK  status: ('A' for Active; 'I' for Inactive)
REMARK    1  A    between atoms: C_2  and  C_3
REMARK    2  A    between atoms: C_3  and  O_4
REMARK    3  A    between atoms: O_4  and  C_5
REMARK    4  A    between atoms: C_5  and  C_7
REMARK    5  A    between atoms: C_7  and  C_8
REMARK    6  A    between atoms: C_8  and  S_9
REMARK    7  A    between atoms: S_9  and  C_12
REMARK    8  A    between atoms: N_19  and  C_20
REMARK                            x       y       z     vdW  Elec       q    Type
REMARK                         _______ _______ _______ _____ _____    ______ ____
ROOT
ATOM      1  C   UNL     1       2.344   2.852  21.387  0.00  0.00    +0.000 C 
ATOM      2  O   UNL     1       2.499   2.097  22.338  0.00  0.00    +0.000 OA
ENDROOT
BRANCH   1   3
ATOM      3  O   UNL     1       2.414   2.462  20.089  0.00  0.00    +0.000 OA
BRANCH   3   4
ATOM      4  C   UNL     1       3.753   2.344  19.606  0.00  0.00    +0.000 C 
BRANCH   4   6
ATOM      5  O   UNL     1       3.053   2.230  17.282  0.00  0.00    +0.000 OA
ATOM      6  C   UNL     1       3.773   2.755  18.129  0.00  0.00    +0.000 C 
ATOM      7  N   UNL     1       4.694   3.739  17.837  0.00  0.00    +0.000 N 
ATOM      8  H   UNL     1       5.113   4.241  18.608  0.00  0.00    +0.000 HD
BRANCH   7   9
ATOM      9  C   UNL     1       4.847   4.289  16.494  0.00  0.00    +0.000 C 
ATOM     10  C   UNL     1       4.694   5.816  16.491  0.00  0.00    +0.000 C 
ATOM     11  C   UNL     1       5.873   6.520  17.165  0.00  0.00    +0.000 C 
ATOM     12  C   UNL     1       7.209   6.088  16.566  0.00  0.00    +0.000 C 
ATOM     13  C   UNL     1       7.377   4.572  16.574  0.00  0.00    +0.000 C 
ATOM     14  C   UNL     1       6.198   3.869  15.901  0.00  0.00    +0.000 C 
ENDBRANCH   7   9
ENDBRANCH   4   6
ENDBRANCH   3   4
ENDBRANCH   1   3
BRANCH   1  15
ATOM     15  C   UNL     1       2.258   4.348  21.518  0.00  0.00    +0.000 C 
BRANCH  15  16
ATOM     16  C   UNL     1       1.397   5.003  20.455  0.00  0.00    +0.000 C 
BRANCH  16  17
ATOM     17  S   UNL     1       2.343   6.012  19.344  0.00  0.00    +0.000 S 
ATOM     18  O   UNL     1       3.729   5.967  19.766  0.00  0.00    +0.000 OA
ATOM     19  O   UNL     1       1.975   5.644  17.990  0.00  0.00    +0.000 OA
BRANCH  17  20
ATOM     20  C   UNL     1       1.778   7.673  19.632  0.00  0.00    +0.000 A 
ATOM     21  C   UNL     1       1.351   8.032  20.912  0.00  0.00    +0.000 A 
ATOM     22  C   UNL     1       0.878   9.328  21.139  0.00  0.00    +0.000 A 
ATOM     23  C   UNL     1       0.851  10.251  20.092  0.00  0.00    +0.000 A 
ATOM     24 CL   UNL     1       0.260  11.842  20.374  0.00  0.00    +0.000 Cl
ATOM     25  C   UNL     1       1.301   9.893  18.820  0.00  0.00    +0.000 A 
ATOM     26  C   UNL     1       1.770   8.599  18.585  0.00  0.00    +0.000 A 
ENDBRANCH  17  20
ENDBRANCH  16  17
ENDBRANCH  15  16
ENDBRANCH   1  15
TORSDOF 8
ENDMDL
MODEL 3
REMARK VINA RESULT:      -6.7      4.890      6.285
REMARK  Name = 
REMARK  8 active torsions:
REMARK  status: ('A' for Active; 'I' for Inactive)
REMARK    1  A    between atoms: C_2  and  C_3
REMARK    2  A    between atoms: C_3  and  O_4
REMARK    3  A    between atoms: O_4  and  C_5
REMARK    4  A    between atoms: C_5  and  C_7
REMARK    5  A    between atoms: C_7  and  C_8
REMARK    6  A    between atoms: C_8  and  S_9
REMARK    7  A    between atoms: S_9  and  C_12
REMARK    8  A    between atoms: N_19  and  C_20
REMARK                            x       y       z     vdW  Elec       q    Type
REMARK                         _______ _______ _______ _____ _____    ______ ____
ROOT
ATOM      1  C   UNL     1       7.166   6.031  17.199  0.00  0.00    +0.000 C 
ATOM      2  O   UNL     1       7.617   6.177  16.071  0.00  0.00    +0.000 OA
ENDROOT
BRANCH   1   3
ATOM      3  O   UNL     1       7.054   7.031  18.109  0.00  0.00    +0.000 OA
BRANCH   3   4
ATOM      4  C   UNL     1       8.308   7.620  18.456  0.00  0.00    +0.000 C 
BRANCH   4   6
ATOM      5  O   UNL     1       7.403   9.597  17.370  0.00  0.00    +0.000 OA
ATOM      6  C   UNL     1       8.252   9.114  18.117  0.00  0.00    +0.000 C 
ATOM      7  N   UNL     1       9.258   9.856  18.700  0.00  0.00    +0.000 N 
ATOM      8  H   UNL     1       9.800   9.425  19.436  0.00  0.00    +0.000 HD
BRANCH   7   9
ATOM      9  C   UNL     1       9.362  11.301  18.525  0.00  0.00    +0.000 C 
ATOM     10  C   UNL     1       9.283  12.037  19.870  0.00  0.00    +0.000 C 
ATOM     11  C   UNL     1      10.529  11.817  20.728  0.00  0.00    +0.000 C 
ATOM     12  C   UNL     1      11.807  12.168  19.971  0.00  0.00    +0.000 C 
ATOM     13  C   UNL     1      11.904  11.433  18.638  0.00  0.00    +0.000 C 
ATOM     14  C   UNL     1      10.657  11.652  17.781  0.00  0.00    +0.000 C 
ENDBRANCH   7   9
ENDBRANCH   4   6
ENDBRANCH   3   4
ENDBRANCH   1   3
BRANCH   1  15
ATOM     15  C   UNL     1       6.862   4.687  17.805  0.00  0.00    +0.000 C 
BRANCH  15  16
ATOM     16  C   UNL     1       5.818   4.736  18.903  0.00  0.00    +0.000 C 
BRANCH  16  17
ATOM     17  S   UNL     1       4.173   4.488  18.287  0.00  0.00    +0.000 S 
ATOM     18  O   UNL     1       4.253   4.323  16.849  0.00  0.00    +0.000 OA
ATOM     19  O   UNL     1       3.541   3.474  19.108  0.00  0.00    +0.000 OA
BRANCH  17  20
ATOM     20  C   UNL     1       3.333   6.029  18.576  0.00  0.00    +0.000 A 
ATOM     21  C   UNL     1       2.657   6.216  19.783  0.00  0.00    +0.000 A 
ATOM     22  C   UNL     1       1.969   7.413  20.005  0.00  0.00    +0.000 A 
ATOM     23  C   UNL     1       1.977   8.411  19.029  0.00  0.00    +0.000 A 
ATOM     24 CL   UNL     1       1.123   9.879  19.303  0.00  0.00    +0.000 Cl
ATOM     25  C   UNL     1       2.675   8.226  17.834  0.00  0.00    +0.000 A 
ATOM     26  C   UNL     1       3.360   7.032  17.603  0.00  0.00    +0.000 A 
ENDBRANCH  17  20
ENDBRANCH  16  17
ENDBRANCH  15  16
ENDBRANCH   1  15
TORSDOF 8
ENDMDL
MODEL 4
REMARK VINA RESULT:      -6.5      4.902      6.244
REMARK  Name = 
REMARK  8 active torsions:
REMARK  status: ('A' for Active; 'I' for Inactive)
REMARK    1  A    between atoms: C_2  and  C_3
REMARK    2  A    between atoms: C_3  and  O_4
REMARK    3  A    between atoms: O_4  and  C_5
REMARK    4  A    between atoms: C_5  and  C_7
REMARK    5  A    between atoms: C_7  and  C_8
REMARK    6  A    between atoms: C_8  and  S_9
REMARK    7  A    between atoms: S_9  and  C_12
REMARK    8  A    between atoms: N_19  and  C_20
REMARK                            x       y       z     vdW  Elec       q    Type
REMARK                         _______ _______ _______ _____ _____    ______ ____
ROOT
ATOM      1  C   UNL     1       7.314   5.804  17.267  0.00  0.00    +0.000 C 
ATOM      2  O   UNL     1       7.654   4.791  16.671  0.00  0.00    +0.000 OA
ENDROOT
BRANCH   1   3
ATOM      3  O   UNL     1       7.866   7.027  17.064  0.00  0.00    +0.000 OA
BRANCH   3   4
ATOM      4  C   UNL     1       8.217   7.695  18.276  0.00  0.00    +0.000 C 
BRANCH   4   6
ATOM      5  O   UNL     1       7.246   9.749  17.415  0.00  0.00    +0.000 OA
ATOM      6  C   UNL     1       8.163   9.207  18.029  0.00  0.00    +0.000 C 
ATOM      7  N   UNL     1       9.249   9.893  18.530  0.00  0.00    +0.000 N 
ATOM      8  H   UNL     1       9.861   9.409  19.173  0.00  0.00    +0.000 HD
BRANCH   7   9
ATOM      9  C   UNL     1       9.371  11.343  18.425  0.00  0.00    +0.000 C 
ATOM     10  C   UNL     1       9.247  12.019  19.797  0.00  0.00    +0.000 C 
ATOM     11  C   UNL     1      10.459  11.750  20.691  0.00  0.00    +0.000 C 
ATOM     12  C   UNL     1      11.767  12.121  19.998  0.00  0.00    +0.000 C 
ATOM     13  C   UNL     1      11.908  11.446  18.638  0.00  0.00    +0.000 C 
ATOM     14  C   UNL     1      10.696  11.715  17.746  0.00  0.00    +0.000 C 
ENDBRANCH   7   9
ENDBRANCH   4   6
ENDBRANCH   3   4
ENDBRANCH   1   3
BRANCH   1  15
ATOM     15  C   UNL     1       6.381   5.800  18.448  0.00  0.00    +0.000 C 
BRANCH  15  16
ATOM     16  C   UNL     1       5.764   4.444  18.732  0.00  0.00    +0.000 C 
BRANCH  16  17
ATOM     17  S   UNL     1       4.144   4.276  18.028  0.00  0.00    +0.000 S 
ATOM     18  O   UNL     1       4.271   4.355  16.586  0.00  0.00    +0.000 OA
ATOM     19  O   UNL     1       3.510   3.128  18.648  0.00  0.00    +0.000 OA
BRANCH  17  20
ATOM     20  C   UNL     1       3.262   5.732  18.542  0.00  0.00    +0.000 A 
ATOM     21  C   UNL     1       3.156   6.807  17.657  0.00  0.00    +0.000 A 
ATOM     22  C   UNL     1       2.490   7.967  18.065  0.00  0.00    +0.000 A 
ATOM     23  C   UNL     1       1.926   8.033  19.340  0.00  0.00    +0.000 A 
ATOM     24 CL   UNL     1       1.114   9.464  19.841  0.00  0.00    +0.000 Cl
ATOM     25  C   UNL     1       2.016   6.945  20.211  0.00  0.00    +0.000 A 
ATOM     26  C   UNL     1       2.684   5.786  19.812  0.00  0.00    +0.000 A 
ENDBRANCH  17  20
ENDBRANCH  16  17
ENDBRANCH  15  16
ENDBRANCH   1  15
TORSDOF 8
ENDMDL
MODEL 5
REMARK VINA RESULT:      -6.5      6.024      7.457
REMARK  Name = 
REMARK  8 active torsions:
REMARK  status: ('A' for Active; 'I' for Inactive)
REMARK    1  A    between atoms: C_2  and  C_3
REMARK    2  A    between atoms: C_3  and  O_4
REMARK    3  A    between atoms: O_4  and  C_5
REMARK    4  A    between atoms: C_5  and  C_7
REMARK    5  A    between atoms: C_7  and  C_8
REMARK    6  A    between atoms: C_8  and  S_9
REMARK    7  A    between atoms: S_9  and  C_12
REMARK    8  A    between atoms: N_19  and  C_20
REMARK                            x       y       z     vdW  Elec       q    Type
REMARK                         _______ _______ _______ _____ _____    ______ ____
ROOT
ATOM      1  C   UNL     1       7.881   7.635  17.915  0.00  0.00    +0.000 C 
ATOM      2  O   UNL     1       8.354   7.021  18.862  0.00  0.00    +0.000 OA
ENDROOT
BRANCH   1   3
ATOM      3  O   UNL     1       7.406   7.047  16.789  0.00  0.00    +0.000 OA
BRANCH   3   4
ATOM      4  C   UNL     1       5.999   6.805  16.830  0.00  0.00    +0.000 C 
BRANCH   4   6
ATOM      5  O   UNL     1       6.676   4.500  17.198  0.00  0.00    +0.000 OA
ATOM      6  C   UNL     1       5.771   5.332  17.188  0.00  0.00    +0.000 C 
ATOM      7  N   UNL     1       4.455   5.024  17.465  0.00  0.00    +0.000 N 
ATOM      8  H   UNL     1       3.809   5.787  17.613  0.00  0.00    +0.000 HD
BRANCH   7   9
ATOM      9  C   UNL     1       4.036   3.682  17.858  0.00  0.00    +0.000 C 
ATOM     10  C   UNL     1       4.008   3.526  19.384  0.00  0.00    +0.000 C 
ATOM     11  C   UNL     1       2.874   4.322  20.031  0.00  0.00    +0.000 C 
ATOM     12  C   UNL     1       1.521   3.988  19.409  0.00  0.00    +0.000 C 
ATOM     13  C   UNL     1       1.532   4.152  17.892  0.00  0.00    +0.000 C 
ATOM     14  C   UNL     1       2.667   3.356  17.246  0.00  0.00    +0.000 C 
ENDBRANCH   7   9
ENDBRANCH   4   6
ENDBRANCH   3   4
ENDBRANCH   1   3
BRANCH   1  15
ATOM     15  C   UNL     1       7.947   9.133  17.780  0.00  0.00    +0.000 C 
BRANCH  15  16
ATOM     16  C   UNL     1       8.941   9.786  18.720  0.00  0.00    +0.000 C 
BRANCH  16  17
ATOM     17  S   UNL     1       9.309  11.459  18.262  0.00  0.00    +0.000 S 
ATOM     18  O   UNL     1      10.690  11.511  17.822  0.00  0.00    +0.000 OA
ATOM     19  O   UNL     1       8.244  11.926  17.394  0.00  0.00    +0.000 OA
BRANCH  17  20
ATOM     20  C   UNL     1       9.224  12.384  19.778  0.00  0.00    +0.000 A 
ATOM     21  C   UNL     1       9.132  13.776  19.718  0.00  0.00    +0.000 A 
ATOM     22  C   UNL     1       9.095  14.513  20.907  0.00  0.00    +0.000 A 
ATOM     23  C   UNL     1       9.135  13.851  22.135  0.00  0.00    +0.000 A 
ATOM     24 CL   UNL     1       9.097  14.761  23.595  0.00  0.00    +0.000 Cl
ATOM     25  C   UNL     1       9.204  12.457  22.188  0.00  0.00    +0.000 A 
ATOM     26  C   UNL     1       9.247  11.717  21.005  0.00  0.00    +0.000 A 
ENDBRANCH  17  20
ENDBRANCH  16  17
ENDBRANCH  15  16
ENDBRANCH   1  15
TORSDOF 8
ENDMDL
MODEL 6
REMARK VINA RESULT:      -6.4      4.553      5.864
REMARK  Name = 
REMARK  8 active torsions:
REMARK  status: ('A' for Active; 'I' for Inactive)
REMARK    1  A    between atoms: C_2  and  C_3
REMARK    2  A    between atoms: C_3  and  O_4
REMARK    3  A    between atoms: O_4  and  C_5
REMARK    4  A    between atoms: C_5  and  C_7
REMARK    5  A    between atoms: C_7  and  C_8
REMARK    6  A    between atoms: C_8  and  S_9
REMARK    7  A    between atoms: S_9  and  C_12
REMARK    8  A    between atoms: N_19  and  C_20
REMARK                            x       y       z     vdW  Elec       q    Type
REMARK                         _______ _______ _______ _____ _____    ______ ____
ROOT
ATOM      1  C   UNL     1       7.022   5.511  17.881  0.00  0.00    +0.000 C 
ATOM      2  O   UNL     1       7.870   4.665  18.133  0.00  0.00    +0.000 OA
ENDROOT
BRANCH   1   3
ATOM      3  O   UNL     1       7.012   6.760  18.412  0.00  0.00    +0.000 OA
BRANCH   3   4
ATOM      4  C   UNL     1       8.315   7.333  18.527  0.00  0.00    +0.000 C 
BRANCH   4   6
ATOM      5  O   UNL     1       7.475   9.215  17.240  0.00  0.00    +0.000 OA
ATOM      6  C   UNL     1       8.232   8.809  18.119  0.00  0.00    +0.000 C 
ATOM      7  N   UNL     1       9.107   9.625  18.804  0.00  0.00    +0.000 N 
ATOM      8  H   UNL     1       9.560   9.252  19.627  0.00  0.00    +0.000 HD
BRANCH   7   9
ATOM      9  C   UNL     1       9.161  11.067  18.583  0.00  0.00    +0.000 C 
ATOM     10  C   UNL     1       9.089  11.842  19.906  0.00  0.00    +0.000 C 
ATOM     11  C   UNL     1      10.360  11.688  20.742  0.00  0.00    +0.000 C 
ATOM     12  C   UNL     1      11.610  12.053  19.945  0.00  0.00    +0.000 C 
ATOM     13  C   UNL     1      11.699  11.281  18.633  0.00  0.00    +0.000 C 
ATOM     14  C   UNL     1      10.428  11.435  17.799  0.00  0.00    +0.000 C 
ENDBRANCH   7   9
ENDBRANCH   4   6
ENDBRANCH   3   4
ENDBRANCH   1   3
BRANCH   1  15
ATOM     15  C   UNL     1       5.763   5.221  17.109  0.00  0.00    +0.000 C 
BRANCH  15  16
ATOM     16  C   UNL     1       4.687   6.275  17.282  0.00  0.00    +0.000 C 
BRANCH  16  17
ATOM     17  S   UNL     1       3.443   5.790  18.450  0.00  0.00    +0.000 S 
ATOM     18  O   UNL     1       2.544   4.864  17.790  0.00  0.00    +0.000 OA
ATOM     19  O   UNL     1       4.113   5.413  19.680  0.00  0.00    +0.000 OA
BRANCH  17  20
ATOM     20  C   UNL     1       2.506   7.268  18.769  0.00  0.00    +0.000 A 
ATOM     21  C   UNL     1       2.308   8.182  17.732  0.00  0.00    +0.000 A 
ATOM     22  C   UNL     1       1.598   9.360  17.983  0.00  0.00    +0.000 A 
ATOM     23  C   UNL     1       1.082   9.603  19.257  0.00  0.00    +0.000 A 
ATOM     24 CL   UNL     1       0.216  11.057  19.564  0.00  0.00    +0.000 Cl
ATOM     25  C   UNL     1       1.264   8.673  20.284  0.00  0.00    +0.000 A 
ATOM     26  C   UNL     1       1.977   7.498  20.041  0.00  0.00    +0.000 A 
ENDBRANCH  17  20
ENDBRANCH  16  17
ENDBRANCH  15  16
ENDBRANCH   1  15
TORSDOF 8
ENDMDL
MODEL 7
REMARK VINA RESULT:      -6.3      3.423      6.635
REMARK  Name = 
REMARK  8 active torsions:
REMARK  status: ('A' for Active; 'I' for Inactive)
REMARK    1  A    between atoms: C_2  and  C_3
REMARK    2  A    between atoms: C_3  and  O_4
REMARK    3  A    between atoms: O_4  and  C_5
REMARK    4  A    between atoms: C_5  and  C_7
REMARK    5  A    between atoms: C_7  and  C_8
REMARK    6  A    between atoms: C_8  and  S_9
REMARK    7  A    between atoms: S_9  and  C_12
REMARK    8  A    between atoms: N_19  and  C_20
REMARK                            x       y       z     vdW  Elec       q    Type
REMARK                         _______ _______ _______ _____ _____    ______ ____
ROOT
ATOM      1  C   UNL     1       3.362   7.684  17.568  0.00  0.00    +0.000 C 
ATOM      2  O   UNL     1       2.941   8.833  17.573  0.00  0.00    +0.000 OA
ENDROOT
BRANCH   1   3
ATOM      3  O   UNL     1       2.715   6.635  18.135  0.00  0.00    +0.000 OA
BRANCH   3   4
ATOM      4  C   UNL     1       2.263   6.901  19.463  0.00  0.00    +0.000 C 
BRANCH   4   6
ATOM      5  O   UNL     1       2.075   5.464  21.413  0.00  0.00    +0.000 OA
ATOM      6  C   UNL     1       2.072   5.564  20.188  0.00  0.00    +0.000 C 
ATOM      7  N   UNL     1       1.930   4.486  19.339  0.00  0.00    +0.000 N 
ATOM      8  H   UNL     1       1.758   4.671  18.361  0.00  0.00    +0.000 HD
BRANCH   7   9
ATOM      9  C   UNL     1       1.707   3.131  19.833  0.00  0.00    +0.000 C 
ATOM     10  C   UNL     1       1.316   2.176  18.696  0.00  0.00    +0.000 C 
ATOM     11  C   UNL     1       2.483   1.889  17.750  0.00  0.00    +0.000 C 
ATOM     12  C   UNL     1       3.714   1.391  18.503  0.00  0.00    +0.000 C 
ATOM     13  C   UNL     1       4.119   2.338  19.628  0.00  0.00    +0.000 C 
ATOM     14  C   UNL     1       2.952   2.626  20.573  0.00  0.00    +0.000 C 
ENDBRANCH   7   9
ENDBRANCH   4   6
ENDBRANCH   3   4
ENDBRANCH   1   3
BRANCH   1  15
ATOM     15  C   UNL     1       4.747   7.309  17.114  0.00  0.00    +0.000 C 
BRANCH  15  16
ATOM     16  C   UNL     1       5.398   6.237  17.967  0.00  0.00    +0.000 C 
BRANCH  16  17
ATOM     17  S   UNL     1       6.965   5.715  17.322  0.00  0.00    +0.000 S 
ATOM     18  O   UNL     1       7.746   6.900  17.026  0.00  0.00    +0.000 OA
ATOM     19  O   UNL     1       7.490   4.693  18.207  0.00  0.00    +0.000 OA
BRANCH  17  20
ATOM     20  C   UNL     1       6.592   4.949  15.762  0.00  0.00    +0.000 A 
ATOM     21  C   UNL     1       5.508   4.072  15.679  0.00  0.00    +0.000 A 
ATOM     22  C   UNL     1       5.226   3.443  14.463  0.00  0.00    +0.000 A 
ATOM     23  C   UNL     1       6.018   3.707  13.344  0.00  0.00    +0.000 A 
ATOM     24 CL   UNL     1       5.673   2.924  11.851  0.00  0.00    +0.000 Cl
ATOM     25  C   UNL     1       7.086   4.602  13.428  0.00  0.00    +0.000 A 
ATOM     26  C   UNL     1       7.376   5.230  14.640  0.00  0.00    +0.000 A 
ENDBRANCH  17  20
ENDBRANCH  16  17
ENDBRANCH  15  16
ENDBRANCH   1  15
TORSDOF 8
ENDMDL
MODEL 8
REMARK VINA RESULT:      -6.3      2.745      6.582
REMARK  Name = 
REMARK  8 active torsions:
REMARK  status: ('A' for Active; 'I' for Inactive)
REMARK    1  A    between atoms: C_2  and  C_3
REMARK    2  A    between atoms: C_3  and  O_4
REMARK    3  A    between atoms: O_4  and  C_5
REMARK    4  A    between atoms: C_5  and  C_7
REMARK    5  A    between atoms: C_7  and  C_8
REMARK    6  A    between atoms: C_8  and  S_9
REMARK    7  A    between atoms: S_9  and  C_12
REMARK    8  A    between atoms: N_19  and  C_20
REMARK                            x       y       z     vdW  Elec       q    Type
REMARK                         _______ _______ _______ _____ _____    ______ ____
ROOT
ATOM      1  C   UNL     1       1.705   5.599  20.031  0.00  0.00    +0.000 C 
ATOM      2  O   UNL     1       1.485   6.293  21.015  0.00  0.00    +0.000 OA
ENDROOT
BRANCH   1   3
ATOM      3  O   UNL     1       2.124   6.087  18.836  0.00  0.00    +0.000 OA
BRANCH   3   4
ATOM      4  C   UNL     1       2.913   7.271  18.955  0.00  0.00    +0.000 C 
BRANCH   4   6
ATOM      5  O   UNL     1       2.278   8.731  17.121  0.00  0.00    +0.000 OA
ATOM      6  C   UNL     1       2.149   8.430  18.305  0.00  0.00    +0.000 C 
ATOM      7  N   UNL     1       1.334   9.119  19.179  0.00  0.00    +0.000 N 
ATOM      8  H   UNL     1       1.145   8.703  20.081  0.00  0.00    +0.000 HD
BRANCH   7   9
ATOM      9  C   UNL     1       0.500  10.237  18.749  0.00  0.00    +0.000 C 
ATOM     10  C   UNL     1      -0.836  10.266  19.504  0.00  0.00    +0.000 C 
ATOM     11  C   UNL     1      -0.665  10.656  20.973  0.00  0.00    +0.000 C 
ATOM     12  C   UNL     1       0.094  11.971  21.126  0.00  0.00    +0.000 C 
ATOM     13  C   UNL     1       1.429  11.951  20.388  0.00  0.00    +0.000 C 
ATOM     14  C   UNL     1       1.259  11.560  18.920  0.00  0.00    +0.000 C 
ENDBRANCH   7   9
ENDBRANCH   4   6
ENDBRANCH   3   4
ENDBRANCH   1   3
BRANCH   1  15
ATOM     15  C   UNL     1       1.349   4.140  19.946  0.00  0.00    +0.000 C 
BRANCH  15  16
ATOM     16  C   UNL     1       1.796   3.478  18.657  0.00  0.00    +0.000 C 
BRANCH  16  17
ATOM     17  S   UNL     1       3.378   2.690  18.812  0.00  0.00    +0.000 S 
ATOM     18  O   UNL     1       3.600   2.402  20.215  0.00  0.00    +0.000 OA
ATOM     19  O   UNL     1       3.443   1.630  17.825  0.00  0.00    +0.000 OA
BRANCH  17  20
ATOM     20  C   UNL     1       4.562   3.936  18.355  0.00  0.00    +0.000 A 
ATOM     21  C   UNL     1       5.397   4.471  19.338  0.00  0.00    +0.000 A 
ATOM     22  C   UNL     1       6.310   5.472  18.993  0.00  0.00    +0.000 A 
ATOM     23  C   UNL     1       6.388   5.914  17.671  0.00  0.00    +0.000 A 
ATOM     24 CL   UNL     1       7.507   7.151  17.251  0.00  0.00    +0.000 Cl
ATOM     25  C   UNL     1       5.566   5.359  16.688  0.00  0.00    +0.000 A 
ATOM     26  C   UNL     1       4.649   4.362  17.027  0.00  0.00    +0.000 A 
ENDBRANCH  17  20
ENDBRANCH  16  17
ENDBRANCH  15  16
ENDBRANCH   1  15
TORSDOF 8
ENDMDL
MODEL 9
REMARK VINA RESULT:      -6.3      5.750      7.157
REMARK  Name = 
REMARK  8 active torsions:
REMARK  status: ('A' for Active; 'I' for Inactive)
REMARK    1  A    between atoms: C_2  and  C_3
REMARK    2  A    between atoms: C_3  and  O_4
REMARK    3  A    between atoms: O_4  and  C_5
REMARK    4  A    between atoms: C_5  and  C_7
REMARK    5  A    between atoms: C_7  and  C_8
REMARK    6  A    between atoms: C_8  and  S_9
REMARK    7  A    between atoms: S_9  and  C_12
REMARK    8  A    between atoms: N_19  and  C_20
REMARK                            x       y       z     vdW  Elec       q    Type
REMARK                         _______ _______ _______ _____ _____    ______ ____
ROOT
ATOM      1  C   UNL     1       7.690   8.256  17.640  0.00  0.00    +0.000 C 
ATOM      2  O   UNL     1       6.766   7.926  16.909  0.00  0.00    +0.000 OA
ENDROOT
BRANCH   1   3
ATOM      3  O   UNL     1       8.253   7.442  18.569  0.00  0.00    +0.000 OA
BRANCH   3   4
ATOM      4  C   UNL     1       8.040   6.054  18.305  0.00  0.00    +0.000 C 
BRANCH   4   6
ATOM      5  O   UNL     1       7.283   5.174  20.440  0.00  0.00    +0.000 OA
ATOM      6  C   UNL     1       6.997   5.527  19.297  0.00  0.00    +0.000 C 
ATOM      7  N   UNL     1       5.722   5.454  18.778  0.00  0.00    +0.000 N 
ATOM      8  H   UNL     1       5.537   5.927  17.904  0.00  0.00    +0.000 HD
BRANCH   7   9
ATOM      9  C   UNL     1       4.582   5.006  19.572  0.00  0.00    +0.000 C 
ATOM     10  C   UNL     1       3.360   5.911  19.361  0.00  0.00    +0.000 C 
ATOM     11  C   UNL     1       2.749   5.750  17.968  0.00  0.00    +0.000 C 
ATOM     12  C   UNL     1       2.428   4.291  17.656  0.00  0.00    +0.000 C 
ATOM     13  C   UNL     1       3.638   3.383  17.850  0.00  0.00    +0.000 C 
ATOM     14  C   UNL     1       4.249   3.545  19.242  0.00  0.00    +0.000 C 
ENDBRANCH   7   9
ENDBRANCH   4   6
ENDBRANCH   3   4
ENDBRANCH   1   3
BRANCH   1  15
ATOM     15  C   UNL     1       8.196   9.668  17.754  0.00  0.00    +0.000 C 
BRANCH  15  16
ATOM     16  C   UNL     1       9.014   9.923  19.005  0.00  0.00    +0.000 C 
BRANCH  16  17
ATOM     17  S   UNL     1      10.065  11.344  18.852  0.00  0.00    +0.000 S 
ATOM     18  O   UNL     1      10.897  11.417  20.036  0.00  0.00    +0.000 OA
ATOM     19  O   UNL     1      10.667  11.309  17.532  0.00  0.00    +0.000 OA
BRANCH  17  20
ATOM     20  C   UNL     1       8.966  12.741  18.915  0.00  0.00    +0.000 A 
ATOM     21  C   UNL     1       8.297  13.130  17.753  0.00  0.00    +0.000 A 
ATOM     22  C   UNL     1       7.454  14.246  17.787  0.00  0.00    +0.000 A 
ATOM     23  C   UNL     1       7.279  14.947  18.981  0.00  0.00    +0.000 A 
ATOM     24 CL   UNL     1       6.248  16.324  19.018  0.00  0.00    +0.000 Cl
ATOM     25  C   UNL     1       7.933  14.539  20.145  0.00  0.00    +0.000 A 
ATOM     26  C   UNL     1       8.780  13.429  20.117  0.00  0.00    +0.000 A 
ENDBRANCH  17  20
ENDBRANCH  16  17
ENDBRANCH  15  16
ENDBRANCH   1  15
TORSDOF 8
ENDMDL
