MODEL 1
REMARK VINA RESULT:      -6.1      0.000      0.000
REMARK  Name = 
REMARK  22 active torsions:
REMARK  status: ('A' for Active; 'I' for Inactive)
REMARK    1  A    between atoms: C_1  and  C_2
REMARK    2  A    between atoms: C_2  and  C_3
REMARK    3  A    between atoms: C_3  and  C_4
REMARK    4  A    between atoms: C_4  and  C_5
REMARK    5  A    between atoms: C_5  and  C_6
REMARK    6  A    between atoms: C_6  and  C_7
REMARK    7  A    between atoms: C_7  and  C_8
REMARK    8  A    between atoms: C_8  and  C_9
REMARK    9  A    between atoms: C_9  and  C_10
REMARK   10  A    between atoms: C_10  and  C_11
REMARK   11  A    between atoms: C_11  and  C_12
REMARK   12  A    between atoms: C_12  and  C_13
REMARK   13  A    between atoms: C_13  and  N_14
REMARK   14  A    between atoms: N_14  and  C_15
REMARK   15  A    between atoms: C_15  and  C_16
REMARK   16  A    between atoms: N_18  and  C_19
REMARK   17  A    between atoms: N_18  and  C_20
REMARK   18  A    between atoms: C_20  and  C_21
REMARK   19  A    between atoms: N_23  and  C_24
REMARK   20  A    between atoms: N_23  and  C_28
REMARK   21  A    between atoms: C_24  and  C_25
REMARK   22  A    between atoms: C_28  and  C_29
REMARK                            x       y       z     vdW  Elec       q    Type
REMARK                         _______ _______ _______ _____ _____    ______ ____
ROOT
ATOM      1  C   UNL     1       1.279   8.665  20.436  0.00  0.00    +0.000 C 
ATOM      2  O   UNL     1       1.440   9.062  19.270  0.00  0.00    +0.000 OA
ATOM      3  N   UNL     1       1.037   9.513  21.517  0.00  0.00    +0.000 N 
ATOM      4  C   UNL     1       0.771   9.153  22.895  0.00  0.00    +0.000 C 
ENDROOT
BRANCH   3   5
ATOM      5  C   UNL     1       0.782  10.946  21.314  0.00  0.00    +0.000 C 
BRANCH   5   6
ATOM      6  C   UNL     1      -0.323  11.569  20.426  0.00  0.00    +0.000 C 
ATOM      7  O   UNL     1      -1.569  11.544  20.828  0.00  0.00    +0.000 OA
ATOM      8  N   UNL     1      -0.042  12.189  19.197  0.00  0.00    +0.000 N 
BRANCH   8   9
ATOM      9  C   UNL     1      -1.231  12.727  18.482  0.00  0.00    +0.000 C 
BRANCH   9  10
ATOM     10  C   UNL     1      -2.066  11.648  17.900  0.00  0.00    +0.000 A 
ATOM     11  C   UNL     1      -1.716  10.464  17.288  0.00  0.00    +0.000 A 
ATOM     12  C   UNL     1      -2.916   9.821  16.923  0.00  0.00    +0.000 A 
ATOM     13  C   UNL     1      -3.934  10.635  17.364  0.00  0.00    +0.000 A 
ATOM     14  O   UNL     1      -3.426  11.754  17.968  0.00  0.00    +0.000 OA
ENDBRANCH   9  10
ENDBRANCH   8   9
BRANCH   8  15
ATOM     15  C   UNL     1       1.304  12.391  18.471  0.00  0.00    +0.000 C 
BRANCH  15  16
ATOM     16  C   UNL     1       2.318  13.605  18.708  0.00  0.00    +0.000 C 
ATOM     17  N   UNL     1       3.271  13.586  17.751  0.00  0.00    +0.000 N 
ATOM     18  O   UNL     1       2.234  14.413  19.602  0.00  0.00    +0.000 OA
ATOM     19  H   UNL     1       3.098  12.790  17.172  0.00  0.00    +0.000 HD
ATOM     20  H   UNL     1       4.091  14.153  17.488  0.00  0.00    +0.000 HD
ENDBRANCH  15  16
ENDBRANCH   8  15
ENDBRANCH   5   6
ENDBRANCH   3   5
BRANCH   1  21
ATOM     21  C   UNL     1       1.311   7.213  20.781  0.00  0.00    +0.000 C 
BRANCH  21  22
ATOM     22  N   UNL     1       2.557   6.615  20.330  0.00  0.00    +0.000 NA
ATOM     23  H   UNL     1       2.685   6.778  19.331  0.00  0.00    +0.000 HD
BRANCH  22  24
ATOM     24  C   UNL     1       2.464   5.184  20.601  0.00  0.00    +0.000 C 
BRANCH  24  25
ATOM     25  C   UNL     1       1.043   4.712  20.376  0.00  0.00    +0.000 C 
BRANCH  25  26
ATOM     26  C   UNL     1       0.974   3.198  20.499  0.00  0.00    +0.000 C 
BRANCH  26  27
ATOM     27  C   UNL     1       1.233   2.559  19.147  0.00  0.00    +0.000 C 
BRANCH  27  28
ATOM     28  C   UNL     1       2.557   1.819  19.169  0.00  0.00    +0.000 C 
BRANCH  28  29
ATOM     29  C   UNL     1       3.384   2.209  17.957  0.00  0.00    +0.000 C 
BRANCH  29  30
ATOM     30  C   UNL     1       2.710   3.350  17.218  0.00  0.00    +0.000 C 
BRANCH  30  31
ATOM     31  C   UNL     1       3.626   4.558  17.190  0.00  0.00    +0.000 C 
BRANCH  31  32
ATOM     32  C   UNL     1       5.070   4.115  17.329  0.00  0.00    +0.000 C 
BRANCH  32  33
ATOM     33  C   UNL     1       5.793   4.276  16.003  0.00  0.00    +0.000 C 
BRANCH  33  34
ATOM     34  C   UNL     1       6.677   5.511  16.041  0.00  0.00    +0.000 C 
BRANCH  34  36
ATOM     35  C   UNL     1       7.557   7.283  17.550  0.00  0.00    +0.000 C 
ATOM     36  C   UNL     1       7.002   5.876  17.480  0.00  0.00    +0.000 C 
ENDBRANCH  34  36
ENDBRANCH  33  34
ENDBRANCH  32  33
ENDBRANCH  31  32
ENDBRANCH  30  31
ENDBRANCH  29  30
ENDBRANCH  28  29
ENDBRANCH  27  28
ENDBRANCH  26  27
ENDBRANCH  25  26
ENDBRANCH  24  25
ENDBRANCH  22  24
ENDBRANCH  21  22
ENDBRANCH   1  21
TORSDOF 20
ENDMDL
MODEL 2
REMARK VINA RESULT:      -6.0      2.195      2.888
REMARK  Name = 
REMARK  22 active torsions:
REMARK  status: ('A' for Active; 'I' for Inactive)
REMARK    1  A    between atoms: C_1  and  C_2
REMARK    2  A    between atoms: C_2  and  C_3
REMARK    3  A    between atoms: C_3  and  C_4
REMARK    4  A    between atoms: C_4  and  C_5
REMARK    5  A    between atoms: C_5  and  C_6
REMARK    6  A    between atoms: C_6  and  C_7
REMARK    7  A    between atoms: C_7  and  C_8
REMARK    8  A    between atoms: C_8  and  C_9
REMARK    9  A    between atoms: C_9  and  C_10
REMARK   10  A    between atoms: C_10  and  C_11
REMARK   11  A    between atoms: C_11  and  C_12
REMARK   12  A    between atoms: C_12  and  C_13
REMARK   13  A    between atoms: C_13  and  N_14
REMARK   14  A    between atoms: N_14  and  C_15
REMARK   15  A    between atoms: C_15  and  C_16
REMARK   16  A    between atoms: N_18  and  C_19
REMARK   17  A    between atoms: N_18  and  C_20
REMARK   18  A    between atoms: C_20  and  C_21
REMARK   19  A    between atoms: N_23  and  C_24
REMARK   20  A    between atoms: N_23  and  C_28
REMARK   21  A    between atoms: C_24  and  C_25
REMARK   22  A    between atoms: C_28  and  C_29
REMARK                            x       y       z     vdW  Elec       q    Type
REMARK                         _______ _______ _______ _____ _____    ______ ____
ROOT
ATOM      1  C   UNL     1       1.620   8.200  20.221  0.00  0.00    +0.000 C 
ATOM      2  O   UNL     1       1.234   8.262  21.400  0.00  0.00    +0.000 OA
ATOM      3  N   UNL     1       1.379   9.195  19.273  0.00  0.00    +0.000 N 
ATOM      4  C   UNL     1       1.839   9.253  17.900  0.00  0.00    +0.000 C 
ENDROOT
BRANCH   3   5
ATOM      5  C   UNL     1       0.790  10.484  19.660  0.00  0.00    +0.000 C 
BRANCH   5   6
ATOM      6  C   UNL     1      -0.702  10.884  19.557  0.00  0.00    +0.000 C 
ATOM      7  O   UNL     1      -1.593   9.985  19.222  0.00  0.00    +0.000 OA
ATOM      8  N   UNL     1      -1.155  12.185  19.831  0.00  0.00    +0.000 N 
BRANCH   8   9
ATOM      9  C   UNL     1      -2.622  12.383  19.675  0.00  0.00    +0.000 C 
BRANCH   9  10
ATOM     10  C   UNL     1      -3.225  13.037  20.862  0.00  0.00    +0.000 A 
ATOM     11  C   UNL     1      -3.397  12.587  22.154  0.00  0.00    +0.000 A 
ATOM     12  C   UNL     1      -4.031  13.623  22.867  0.00  0.00    +0.000 A 
ATOM     13  C   UNL     1      -4.180  14.663  21.979  0.00  0.00    +0.000 A 
ATOM     14  O   UNL     1      -3.686  14.317  20.749  0.00  0.00    +0.000 OA
ENDBRANCH   9  10
ENDBRANCH   8   9
BRANCH   8  15
ATOM     15  C   UNL     1      -0.368  13.441  20.259  0.00  0.00    +0.000 C 
BRANCH  15  16
ATOM     16  C   UNL     1      -0.049  14.703  19.328  0.00  0.00    +0.000 C 
ATOM     17  N   UNL     1      -1.007  15.639  19.500  0.00  0.00    +0.000 N 
ATOM     18  O   UNL     1       0.905  14.798  18.594  0.00  0.00    +0.000 OA
ATOM     19  H   UNL     1      -1.677  15.269  20.142  0.00  0.00    +0.000 HD
ATOM     20  H   UNL     1      -1.212  16.587  19.148  0.00  0.00    +0.000 HD
ENDBRANCH  15  16
ENDBRANCH   8  15
ENDBRANCH   5   6
ENDBRANCH   3   5
BRANCH   1  21
ATOM     21  C   UNL     1       2.409   7.039  19.715  0.00  0.00    +0.000 C 
BRANCH  21  22
ATOM     22  N   UNL     1       2.200   5.879  20.566  0.00  0.00    +0.000 NA
ATOM     23  H   UNL     1       3.093   5.440  20.790  0.00  0.00    +0.000 HD
BRANCH  22  24
ATOM     24  C   UNL     1       1.355   4.951  19.820  0.00  0.00    +0.000 C 
BRANCH  24  25
ATOM     25  C   UNL     1       1.154   3.683  20.624  0.00  0.00    +0.000 C 
BRANCH  25  26
ATOM     26  C   UNL     1       1.179   2.475  19.702  0.00  0.00    +0.000 C 
BRANCH  26  27
ATOM     27  C   UNL     1       1.546   2.908  18.295  0.00  0.00    +0.000 C 
BRANCH  27  28
ATOM     28  C   UNL     1       2.731   2.102  17.797  0.00  0.00    +0.000 C 
BRANCH  28  29
ATOM     29  C   UNL     1       3.972   2.468  18.590  0.00  0.00    +0.000 C 
BRANCH  29  30
ATOM     30  C   UNL     1       4.443   3.856  18.200  0.00  0.00    +0.000 C 
BRANCH  30  31
ATOM     31  C   UNL     1       4.887   3.862  16.750  0.00  0.00    +0.000 C 
BRANCH  31  32
ATOM     32  C   UNL     1       4.940   5.286  16.231  0.00  0.00    +0.000 C 
BRANCH  32  33
ATOM     33  C   UNL     1       5.513   6.205  17.296  0.00  0.00    +0.000 C 
BRANCH  33  34
ATOM     34  C   UNL     1       6.978   6.485  17.005  0.00  0.00    +0.000 C 
BRANCH  34  36
ATOM     35  C   UNL     1       7.876   5.692  19.186  0.00  0.00    +0.000 C 
ATOM     36  C   UNL     1       7.695   6.893  18.281  0.00  0.00    +0.000 C 
ENDBRANCH  34  36
ENDBRANCH  33  34
ENDBRANCH  32  33
ENDBRANCH  31  32
ENDBRANCH  30  31
ENDBRANCH  29  30
ENDBRANCH  28  29
ENDBRANCH  27  28
ENDBRANCH  26  27
ENDBRANCH  25  26
ENDBRANCH  24  25
ENDBRANCH  22  24
ENDBRANCH  21  22
ENDBRANCH   1  21
TORSDOF 20
ENDMDL
MODEL 3
REMARK VINA RESULT:      -5.9      1.819      3.408
REMARK  Name = 
REMARK  22 active torsions:
REMARK  status: ('A' for Active; 'I' for Inactive)
REMARK    1  A    between atoms: C_1  and  C_2
REMARK    2  A    between atoms: C_2  and  C_3
REMARK    3  A    between atoms: C_3  and  C_4
REMARK    4  A    between atoms: C_4  and  C_5
REMARK    5  A    between atoms: C_5  and  C_6
REMARK    6  A    between atoms: C_6  and  C_7
REMARK    7  A    between atoms: C_7  and  C_8
REMARK    8  A    between atoms: C_8  and  C_9
REMARK    9  A    between atoms: C_9  and  C_10
REMARK   10  A    between atoms: C_10  and  C_11
REMARK   11  A    between atoms: C_11  and  C_12
REMARK   12  A    between atoms: C_12  and  C_13
REMARK   13  A    between atoms: C_13  and  N_14
REMARK   14  A    between atoms: N_14  and  C_15
REMARK   15  A    between atoms: C_15  and  C_16
REMARK   16  A    between atoms: N_18  and  C_19
REMARK   17  A    between atoms: N_18  and  C_20
REMARK   18  A    between atoms: C_20  and  C_21
REMARK   19  A    between atoms: N_23  and  C_24
REMARK   20  A    between atoms: N_23  and  C_28
REMARK   21  A    between atoms: C_24  and  C_25
REMARK   22  A    between atoms: C_28  and  C_29
REMARK                            x       y       z     vdW  Elec       q    Type
REMARK                         _______ _______ _______ _____ _____    ______ ____
ROOT
ATOM      1  C   UNL     1       0.806   9.232  20.808  0.00  0.00    +0.000 C 
ATOM      2  O   UNL     1       1.114   9.510  19.637  0.00  0.00    +0.000 OA
ATOM      3  N   UNL     1       0.170  10.121  21.675  0.00  0.00    +0.000 N 
ATOM      4  C   UNL     1      -0.290   9.877  23.028  0.00  0.00    +0.000 C 
ENDROOT
BRANCH   3   5
ATOM      5  C   UNL     1      -0.340  11.413  21.196  0.00  0.00    +0.000 C 
BRANCH   5   6
ATOM      6  C   UNL     1       0.502  12.586  20.638  0.00  0.00    +0.000 C 
ATOM      7  O   UNL     1       1.497  13.064  21.342  0.00  0.00    +0.000 OA
ATOM      8  N   UNL     1       0.254  13.160  19.379  0.00  0.00    +0.000 N 
BRANCH   8   9
ATOM      9  C   UNL     1       1.163  14.280  19.013  0.00  0.00    +0.000 C 
BRANCH   9  10
ATOM     10  C   UNL     1       0.538  15.605  19.250  0.00  0.00    +0.000 A 
ATOM     11  C   UNL     1      -0.421  16.292  18.538  0.00  0.00    +0.000 A 
ATOM     12  C   UNL     1      -0.640  17.508  19.216  0.00  0.00    +0.000 A 
ATOM     13  C   UNL     1       0.175  17.479  20.324  0.00  0.00    +0.000 A 
ATOM     14  O   UNL     1       0.898  16.317  20.358  0.00  0.00    +0.000 OA
ENDBRANCH   9  10
ENDBRANCH   8   9
BRANCH   8  15
ATOM     15  C   UNL     1      -0.816  12.815  18.323  0.00  0.00    +0.000 C 
BRANCH  15  16
ATOM     16  C   UNL     1      -1.573  11.412  18.187  0.00  0.00    +0.000 C 
ATOM     17  N   UNL     1      -0.735  10.502  17.646  0.00  0.00    +0.000 N 
ATOM     18  O   UNL     1      -2.714  11.206  18.525  0.00  0.00    +0.000 OA
ATOM     19  H   UNL     1       0.126  10.969  17.445  0.00  0.00    +0.000 HD
ATOM     20  H   UNL     1      -0.763   9.502  17.395  0.00  0.00    +0.000 HD
ENDBRANCH  15  16
ENDBRANCH   8  15
ENDBRANCH   5   6
ENDBRANCH   3   5
BRANCH   1  21
ATOM     21  C   UNL     1       1.077   7.884  21.390  0.00  0.00    +0.000 C 
BRANCH  21  22
ATOM     22  N   UNL     1       1.960   7.127  20.519  0.00  0.00    +0.000 NA
ATOM     23  H   UNL     1       1.959   7.529  19.581  0.00  0.00    +0.000 HD
BRANCH  22  24
ATOM     24  C   UNL     1       1.452   5.759  20.482  0.00  0.00    +0.000 C 
BRANCH  24  25
ATOM     25  C   UNL     1       2.450   4.826  21.136  0.00  0.00    +0.000 C 
BRANCH  25  26
ATOM     26  C   UNL     1       1.814   3.464  21.361  0.00  0.00    +0.000 C 
BRANCH  26  27
ATOM     27  C   UNL     1       1.265   2.928  20.053  0.00  0.00    +0.000 C 
BRANCH  27  28
ATOM     28  C   UNL     1       2.397   2.399  19.193  0.00  0.00    +0.000 C 
BRANCH  28  29
ATOM     29  C   UNL     1       2.111   2.689  17.731  0.00  0.00    +0.000 C 
BRANCH  29  30
ATOM     30  C   UNL     1       2.611   4.075  17.371  0.00  0.00    +0.000 C 
BRANCH  30  31
ATOM     31  C   UNL     1       4.060   4.226  17.795  0.00  0.00    +0.000 C 
BRANCH  31  32
ATOM     32  C   UNL     1       4.975   3.897  16.630  0.00  0.00    +0.000 C 
BRANCH  32  33
ATOM     33  C   UNL     1       5.504   5.178  16.009  0.00  0.00    +0.000 C 
BRANCH  33  34
ATOM     34  C   UNL     1       5.356   6.330  16.989  0.00  0.00    +0.000 C 
BRANCH  34  36
ATOM     35  C   UNL     1       7.412   6.170  18.381  0.00  0.00    +0.000 C 
ATOM     36  C   UNL     1       6.715   6.944  17.282  0.00  0.00    +0.000 C 
ENDBRANCH  34  36
ENDBRANCH  33  34
ENDBRANCH  32  33
ENDBRANCH  31  32
ENDBRANCH  30  31
ENDBRANCH  29  30
ENDBRANCH  28  29
ENDBRANCH  27  28
ENDBRANCH  26  27
ENDBRANCH  25  26
ENDBRANCH  24  25
ENDBRANCH  22  24
ENDBRANCH  21  22
ENDBRANCH   1  21
TORSDOF 20
ENDMDL
MODEL 4
REMARK VINA RESULT:      -5.9      2.939      9.935
REMARK  Name = 
REMARK  22 active torsions:
REMARK  status: ('A' for Active; 'I' for Inactive)
REMARK    1  A    between atoms: C_1  and  C_2
REMARK    2  A    between atoms: C_2  and  C_3
REMARK    3  A    between atoms: C_3  and  C_4
REMARK    4  A    between atoms: C_4  and  C_5
REMARK    5  A    between atoms: C_5  and  C_6
REMARK    6  A    between atoms: C_6  and  C_7
REMARK    7  A    between atoms: C_7  and  C_8
REMARK    8  A    between atoms: C_8  and  C_9
REMARK    9  A    between atoms: C_9  and  C_10
REMARK   10  A    between atoms: C_10  and  C_11
REMARK   11  A    between atoms: C_11  and  C_12
REMARK   12  A    between atoms: C_12  and  C_13
REMARK   13  A    between atoms: C_13  and  N_14
REMARK   14  A    between atoms: N_14  and  C_15
REMARK   15  A    between atoms: C_15  and  C_16
REMARK   16  A    between atoms: N_18  and  C_19
REMARK   17  A    between atoms: N_18  and  C_20
REMARK   18  A    between atoms: C_20  and  C_21
REMARK   19  A    between atoms: N_23  and  C_24
REMARK   20  A    between atoms: N_23  and  C_28
REMARK   21  A    between atoms: C_24  and  C_25
REMARK   22  A    between atoms: C_28  and  C_29
REMARK                            x       y       z     vdW  Elec       q    Type
REMARK                         _______ _______ _______ _____ _____    ______ ____
ROOT
ATOM      1  C   UNL     1       1.781   7.756  19.840  0.00  0.00    +0.000 C 
ATOM      2  O   UNL     1       1.777   8.709  19.043  0.00  0.00    +0.000 OA
ATOM      3  N   UNL     1       2.089   6.444  19.477  0.00  0.00    +0.000 N 
ATOM      4  C   UNL     1       2.187   5.279  20.333  0.00  0.00    +0.000 C 
ENDROOT
BRANCH   3   5
ATOM      5  C   UNL     1       2.605   6.130  18.138  0.00  0.00    +0.000 C 
BRANCH   5   6
ATOM      6  C   UNL     1       4.093   6.004  17.730  0.00  0.00    +0.000 C 
ATOM      7  O   UNL     1       4.845   7.075  17.678  0.00  0.00    +0.000 OA
ATOM      8  N   UNL     1       4.690   4.769  17.426  0.00  0.00    +0.000 N 
BRANCH   8   9
ATOM      9  C   UNL     1       6.129   4.845  17.052  0.00  0.00    +0.000 C 
BRANCH   9  10
ATOM     10  C   UNL     1       6.334   4.678  15.592  0.00  0.00    +0.000 A 
ATOM     11  C   UNL     1       5.557   4.063  14.634  0.00  0.00    +0.000 A 
ATOM     12  C   UNL     1       6.235   4.199  13.407  0.00  0.00    +0.000 A 
ATOM     13  C   UNL     1       7.374   4.922  13.679  0.00  0.00    +0.000 A 
ATOM     14  O   UNL     1       7.443   5.224  15.013  0.00  0.00    +0.000 OA
ENDBRANCH   9  10
ENDBRANCH   8   9
BRANCH   8  15
ATOM     15  C   UNL     1       4.086   3.350  17.413  0.00  0.00    +0.000 C 
BRANCH  15  16
ATOM     16  C   UNL     1       4.051   2.340  18.654  0.00  0.00    +0.000 C 
ATOM     17  N   UNL     1       4.783   2.851  19.667  0.00  0.00    +0.000 N 
ATOM     18  O   UNL     1       3.456   1.290  18.675  0.00  0.00    +0.000 OA
ATOM     19  H   UNL     1       5.177   3.712  19.348  0.00  0.00    +0.000 HD
ATOM     20  H   UNL     1       5.029   2.586  20.633  0.00  0.00    +0.000 HD
ENDBRANCH  15  16
ENDBRANCH   8  15
ENDBRANCH   5   6
ENDBRANCH   3   5
BRANCH   1  21
ATOM     21  C   UNL     1       1.470   7.943  21.287  0.00  0.00    +0.000 C 
BRANCH  21  22
ATOM     22  N   UNL     1       1.417   9.358  21.613  0.00  0.00    +0.000 NA
ATOM     23  H   UNL     1       2.127   9.587  22.309  0.00  0.00    +0.000 HD
BRANCH  22  24
ATOM     24  C   UNL     1       0.084   9.623  22.146  0.00  0.00    +0.000 C 
BRANCH  24  25
ATOM     25  C   UNL     1      -0.308  11.057  21.855  0.00  0.00    +0.000 C 
BRANCH  25  26
ATOM     26  C   UNL     1      -0.787  11.181  20.418  0.00  0.00    +0.000 C 
BRANCH  26  27
ATOM     27  C   UNL     1      -1.929  12.176  20.340  0.00  0.00    +0.000 C 
BRANCH  27  28
ATOM     28  C   UNL     1      -2.436  12.495  21.733  0.00  0.00    +0.000 C 
BRANCH  28  29
ATOM     29  C   UNL     1      -3.913  12.840  21.677  0.00  0.00    +0.000 C 
BRANCH  29  30
ATOM     30  C   UNL     1      -4.371  12.914  20.233  0.00  0.00    +0.000 C 
BRANCH  30  31
ATOM     31  C   UNL     1      -5.604  12.051  20.039  0.00  0.00    +0.000 C 
BRANCH  31  32
ATOM     32  C   UNL     1      -6.000  12.039  18.574  0.00  0.00    +0.000 C 
BRANCH  32  33
ATOM     33  C   UNL     1      -5.229  10.958  17.838  0.00  0.00    +0.000 C 
BRANCH  33  34
ATOM     34  C   UNL     1      -4.398  11.578  16.727  0.00  0.00    +0.000 C 
BRANCH  34  36
ATOM     35  C   UNL     1      -2.956   9.781  17.668  0.00  0.00    +0.000 C 
ATOM     36  C   UNL     1      -3.064  10.859  16.610  0.00  0.00    +0.000 C 
ENDBRANCH  34  36
ENDBRANCH  33  34
ENDBRANCH  32  33
ENDBRANCH  31  32
ENDBRANCH  30  31
ENDBRANCH  29  30
ENDBRANCH  28  29
ENDBRANCH  27  28
ENDBRANCH  26  27
ENDBRANCH  25  26
ENDBRANCH  24  25
ENDBRANCH  22  24
ENDBRANCH  21  22
ENDBRANCH   1  21
TORSDOF 20
ENDMDL
MODEL 5
REMARK VINA RESULT:      -5.8      3.282     10.514
REMARK  Name = 
REMARK  22 active torsions:
REMARK  status: ('A' for Active; 'I' for Inactive)
REMARK    1  A    between atoms: C_1  and  C_2
REMARK    2  A    between atoms: C_2  and  C_3
REMARK    3  A    between atoms: C_3  and  C_4
REMARK    4  A    between atoms: C_4  and  C_5
REMARK    5  A    between atoms: C_5  and  C_6
REMARK    6  A    between atoms: C_6  and  C_7
REMARK    7  A    between atoms: C_7  and  C_8
REMARK    8  A    between atoms: C_8  and  C_9
REMARK    9  A    between atoms: C_9  and  C_10
REMARK   10  A    between atoms: C_10  and  C_11
REMARK   11  A    between atoms: C_11  and  C_12
REMARK   12  A    between atoms: C_12  and  C_13
REMARK   13  A    between atoms: C_13  and  N_14
REMARK   14  A    between atoms: N_14  and  C_15
REMARK   15  A    between atoms: C_15  and  C_16
REMARK   16  A    between atoms: N_18  and  C_19
REMARK   17  A    between atoms: N_18  and  C_20
REMARK   18  A    between atoms: C_20  and  C_21
REMARK   19  A    between atoms: N_23  and  C_24
REMARK   20  A    between atoms: N_23  and  C_28
REMARK   21  A    between atoms: C_24  and  C_25
REMARK   22  A    between atoms: C_28  and  C_29
REMARK                            x       y       z     vdW  Elec       q    Type
REMARK                         _______ _______ _______ _____ _____    ______ ____
ROOT
ATOM      1  C   UNL     1       2.054   7.754  19.295  0.00  0.00    +0.000 C 
ATOM      2  O   UNL     1       2.240   8.489  18.311  0.00  0.00    +0.000 OA
ATOM      3  N   UNL     1       2.212   6.368  19.269  0.00  0.00    +0.000 N 
ATOM      4  C   UNL     1       2.087   5.432  20.368  0.00  0.00    +0.000 C 
ENDROOT
BRANCH   3   5
ATOM      5  C   UNL     1       2.784   5.693  18.096  0.00  0.00    +0.000 C 
BRANCH   5   6
ATOM      6  C   UNL     1       4.282   5.628  17.709  0.00  0.00    +0.000 C 
ATOM      7  O   UNL     1       4.964   6.737  17.564  0.00  0.00    +0.000 OA
ATOM      8  N   UNL     1       4.961   4.412  17.522  0.00  0.00    +0.000 N 
BRANCH   8   9
ATOM      9  C   UNL     1       6.395   4.548  17.150  0.00  0.00    +0.000 C 
BRANCH   9  10
ATOM     10  C   UNL     1       6.595   4.518  15.680  0.00  0.00    +0.000 A 
ATOM     11  C   UNL     1       5.939   3.816  14.693  0.00  0.00    +0.000 A 
ATOM     12  C   UNL     1       6.544   4.166  13.470  0.00  0.00    +0.000 A 
ATOM     13  C   UNL     1       7.516   5.091  13.776  0.00  0.00    +0.000 A 
ATOM     14  O   UNL     1       7.553   5.317  15.127  0.00  0.00    +0.000 OA
ENDBRANCH   9  10
ENDBRANCH   8   9
BRANCH   8  15
ATOM     15  C   UNL     1       4.449   2.962  17.634  0.00  0.00    +0.000 C 
BRANCH  15  16
ATOM     16  C   UNL     1       3.608   2.362  18.856  0.00  0.00    +0.000 C 
ATOM     17  N   UNL     1       2.419   1.910  18.401  0.00  0.00    +0.000 N 
ATOM     18  O   UNL     1       3.986   2.318  20.002  0.00  0.00    +0.000 OA
ATOM     19  H   UNL     1       2.377   2.108  17.423  0.00  0.00    +0.000 HD
ATOM     20  H   UNL     1       1.586   1.444  18.792  0.00  0.00    +0.000 HD
ENDBRANCH  15  16
ENDBRANCH   8  15
ENDBRANCH   5   6
ENDBRANCH   3   5
BRANCH   1  21
ATOM     21  C   UNL     1       1.659   8.309  20.623  0.00  0.00    +0.000 C 
BRANCH  21  22
ATOM     22  N   UNL     1       1.234   9.692  20.486  0.00  0.00    +0.000 NA
ATOM     23  H   UNL     1       1.623  10.257  21.241  0.00  0.00    +0.000 HD
BRANCH  22  24
ATOM     24  C   UNL     1      -0.225   9.697  20.550  0.00  0.00    +0.000 C 
BRANCH  24  25
ATOM     25  C   UNL     1      -0.740  11.106  20.342  0.00  0.00    +0.000 C 
BRANCH  25  26
ATOM     26  C   UNL     1      -0.992  11.352  18.863  0.00  0.00    +0.000 C 
BRANCH  26  27
ATOM     27  C   UNL     1      -2.463  11.642  18.632  0.00  0.00    +0.000 C 
BRANCH  27  28
ATOM     28  C   UNL     1      -3.108  10.489  17.887  0.00  0.00    +0.000 C 
BRANCH  28  29
ATOM     29  C   UNL     1      -3.756  10.998  16.612  0.00  0.00    +0.000 C 
BRANCH  29  30
ATOM     30  C   UNL     1      -4.973  11.837  16.952  0.00  0.00    +0.000 C 
BRANCH  30  31
ATOM     31  C   UNL     1      -5.875  11.074  17.904  0.00  0.00    +0.000 C 
BRANCH  31  32
ATOM     32  C   UNL     1      -7.096  11.910  18.240  0.00  0.00    +0.000 C 
BRANCH  32  33
ATOM     33  C   UNL     1      -7.372  11.849  19.732  0.00  0.00    +0.000 C 
BRANCH  33  34
ATOM     34  C   UNL     1      -6.100  12.147  20.507  0.00  0.00    +0.000 C 
BRANCH  34  36
ATOM     35  C   UNL     1      -7.830  13.156  21.984  0.00  0.00    +0.000 C 
ATOM     36  C   UNL     1      -6.441  12.556  21.931  0.00  0.00    +0.000 C 
ENDBRANCH  34  36
ENDBRANCH  33  34
ENDBRANCH  32  33
ENDBRANCH  31  32
ENDBRANCH  30  31
ENDBRANCH  29  30
ENDBRANCH  28  29
ENDBRANCH  27  28
ENDBRANCH  26  27
ENDBRANCH  25  26
ENDBRANCH  24  25
ENDBRANCH  22  24
ENDBRANCH  21  22
ENDBRANCH   1  21
TORSDOF 20
ENDMDL
MODEL 6
REMARK VINA RESULT:      -5.8      2.188      3.905
REMARK  Name = 
REMARK  22 active torsions:
REMARK  status: ('A' for Active; 'I' for Inactive)
REMARK    1  A    between atoms: C_1  and  C_2
REMARK    2  A    between atoms: C_2  and  C_3
REMARK    3  A    between atoms: C_3  and  C_4
REMARK    4  A    between atoms: C_4  and  C_5
REMARK    5  A    between atoms: C_5  and  C_6
REMARK    6  A    between atoms: C_6  and  C_7
REMARK    7  A    between atoms: C_7  and  C_8
REMARK    8  A    between atoms: C_8  and  C_9
REMARK    9  A    between atoms: C_9  and  C_10
REMARK   10  A    between atoms: C_10  and  C_11
REMARK   11  A    between atoms: C_11  and  C_12
REMARK   12  A    between atoms: C_12  and  C_13
REMARK   13  A    between atoms: C_13  and  N_14
REMARK   14  A    between atoms: N_14  and  C_15
REMARK   15  A    between atoms: C_15  and  C_16
REMARK   16  A    between atoms: N_18  and  C_19
REMARK   17  A    between atoms: N_18  and  C_20
REMARK   18  A    between atoms: C_20  and  C_21
REMARK   19  A    between atoms: N_23  and  C_24
REMARK   20  A    between atoms: N_23  and  C_28
REMARK   21  A    between atoms: C_24  and  C_25
REMARK   22  A    between atoms: C_28  and  C_29
REMARK                            x       y       z     vdW  Elec       q    Type
REMARK                         _______ _______ _______ _____ _____    ______ ____
ROOT
ATOM      1  C   UNL     1       2.020   8.046  19.029  0.00  0.00    +0.000 C 
ATOM      2  O   UNL     1       2.024   8.331  17.820  0.00  0.00    +0.000 OA
ATOM      3  N   UNL     1       1.375   8.808  20.003  0.00  0.00    +0.000 N 
ATOM      4  C   UNL     1       1.253   8.531  21.421  0.00  0.00    +0.000 C 
ENDROOT
BRANCH   3   5
ATOM      5  C   UNL     1       0.499   9.927  19.633  0.00  0.00    +0.000 C 
BRANCH   5   6
ATOM      6  C   UNL     1       0.937  11.382  19.335  0.00  0.00    +0.000 C 
ATOM      7  O   UNL     1       1.916  11.606  18.494  0.00  0.00    +0.000 OA
ATOM      8  N   UNL     1       0.309  12.494  19.921  0.00  0.00    +0.000 N 
BRANCH   8   9
ATOM      9  C   UNL     1       0.869  13.813  19.518  0.00  0.00    +0.000 C 
BRANCH   9  10
ATOM     10  C   UNL     1       1.863  14.318  20.496  0.00  0.00    +0.000 A 
ATOM     11  C   UNL     1       1.711  15.113  21.612  0.00  0.00    +0.000 A 
ATOM     12  C   UNL     1       2.993  15.284  22.170  0.00  0.00    +0.000 A 
ATOM     13  C   UNL     1       3.853  14.554  21.382  0.00  0.00    +0.000 A 
ATOM     14  O   UNL     1       3.172  13.955  20.356  0.00  0.00    +0.000 OA
ENDBRANCH   9  10
ENDBRANCH   8   9
BRANCH   8  15
ATOM     15  C   UNL     1      -0.863  12.560  20.922  0.00  0.00    +0.000 C 
BRANCH  15  16
ATOM     16  C   UNL     1      -0.762  12.283  22.494  0.00  0.00    +0.000 C 
ATOM     17  N   UNL     1      -1.169  13.380  23.169  0.00  0.00    +0.000 N 
ATOM     18  O   UNL     1      -0.387  11.249  22.993  0.00  0.00    +0.000 OA
ATOM     19  H   UNL     1      -1.390  14.082  22.493  0.00  0.00    +0.000 HD
ATOM     20  H   UNL     1      -1.294  13.661  24.153  0.00  0.00    +0.000 HD
ENDBRANCH  15  16
ENDBRANCH   8  15
ENDBRANCH   5   6
ENDBRANCH   3   5
BRANCH   1  21
ATOM     21  C   UNL     1       2.702   6.824  19.547  0.00  0.00    +0.000 C 
BRANCH  21  22
ATOM     22  N   UNL     1       1.964   5.633  19.162  0.00  0.00    +0.000 NA
ATOM     23  H   UNL     1       1.235   5.872  18.489  0.00  0.00    +0.000 HD
BRANCH  22  24
ATOM     24  C   UNL     1       1.368   5.088  20.379  0.00  0.00    +0.000 C 
BRANCH  24  25
ATOM     25  C   UNL     1       2.436   4.404  21.208  0.00  0.00    +0.000 C 
BRANCH  25  26
ATOM     26  C   UNL     1       2.443   2.913  20.914  0.00  0.00    +0.000 C 
BRANCH  26  27
ATOM     27  C   UNL     1       1.146   2.515  20.235  0.00  0.00    +0.000 C 
BRANCH  27  28
ATOM     28  C   UNL     1       1.428   2.020  18.829  0.00  0.00    +0.000 C 
BRANCH  28  29
ATOM     29  C   UNL     1       2.925   2.002  18.580  0.00  0.00    +0.000 C 
BRANCH  29  30
ATOM     30  C   UNL     1       3.254   2.826  17.349  0.00  0.00    +0.000 C 
BRANCH  30  31
ATOM     31  C   UNL     1       4.457   3.708  17.625  0.00  0.00    +0.000 C 
BRANCH  31  32
ATOM     32  C   UNL     1       5.185   4.008  16.329  0.00  0.00    +0.000 C 
BRANCH  32  33
ATOM     33  C   UNL     1       6.487   4.732  16.622  0.00  0.00    +0.000 C 
BRANCH  33  34
ATOM     34  C   UNL     1       6.209   6.190  16.945  0.00  0.00    +0.000 C 
BRANCH  34  36
ATOM     35  C   UNL     1       7.785   6.053  18.866  0.00  0.00    +0.000 C 
ATOM     36  C   UNL     1       7.422   6.819  17.610  0.00  0.00    +0.000 C 
ENDBRANCH  34  36
ENDBRANCH  33  34
ENDBRANCH  32  33
ENDBRANCH  31  32
ENDBRANCH  30  31
ENDBRANCH  29  30
ENDBRANCH  28  29
ENDBRANCH  27  28
ENDBRANCH  26  27
ENDBRANCH  25  26
ENDBRANCH  24  25
ENDBRANCH  22  24
ENDBRANCH  21  22
ENDBRANCH   1  21
TORSDOF 20
ENDMDL
MODEL 7
REMARK VINA RESULT:      -5.7      2.127      4.246
REMARK  Name = 
REMARK  22 active torsions:
REMARK  status: ('A' for Active; 'I' for Inactive)
REMARK    1  A    between atoms: C_1  and  C_2
REMARK    2  A    between atoms: C_2  and  C_3
REMARK    3  A    between atoms: C_3  and  C_4
REMARK    4  A    between atoms: C_4  and  C_5
REMARK    5  A    between atoms: C_5  and  C_6
REMARK    6  A    between atoms: C_6  and  C_7
REMARK    7  A    between atoms: C_7  and  C_8
REMARK    8  A    between atoms: C_8  and  C_9
REMARK    9  A    between atoms: C_9  and  C_10
REMARK   10  A    between atoms: C_10  and  C_11
REMARK   11  A    between atoms: C_11  and  C_12
REMARK   12  A    between atoms: C_12  and  C_13
REMARK   13  A    between atoms: C_13  and  N_14
REMARK   14  A    between atoms: N_14  and  C_15
REMARK   15  A    between atoms: C_15  and  C_16
REMARK   16  A    between atoms: N_18  and  C_19
REMARK   17  A    between atoms: N_18  and  C_20
REMARK   18  A    between atoms: C_20  and  C_21
REMARK   19  A    between atoms: N_23  and  C_24
REMARK   20  A    between atoms: N_23  and  C_28
REMARK   21  A    between atoms: C_24  and  C_25
REMARK   22  A    between atoms: C_28  and  C_29
REMARK                            x       y       z     vdW  Elec       q    Type
REMARK                         _______ _______ _______ _____ _____    ______ ____
ROOT
ATOM      1  C   UNL     1       1.318   9.208  19.817  0.00  0.00    +0.000 C 
ATOM      2  O   UNL     1       1.666   8.915  18.661  0.00  0.00    +0.000 OA
ATOM      3  N   UNL     1       0.888  10.480  20.197  0.00  0.00    +0.000 N 
ATOM      4  C   UNL     1       0.400  10.909  21.493  0.00  0.00    +0.000 C 
ENDROOT
BRANCH   3   5
ATOM      5  C   UNL     1       0.652  11.531  19.198  0.00  0.00    +0.000 C 
BRANCH   5   6
ATOM      6  C   UNL     1       1.718  12.461  18.570  0.00  0.00    +0.000 C 
ATOM      7  O   UNL     1       2.761  11.943  17.971  0.00  0.00    +0.000 OA
ATOM      8  N   UNL     1       1.606  13.862  18.595  0.00  0.00    +0.000 N 
BRANCH   8   9
ATOM      9  C   UNL     1       2.728  14.591  17.944  0.00  0.00    +0.000 C 
BRANCH   9  10
ATOM     10  C   UNL     1       3.541  15.352  18.925  0.00  0.00    +0.000 A 
ATOM     11  C   UNL     1       3.803  16.701  19.029  0.00  0.00    +0.000 A 
ATOM     12  C   UNL     1       4.639  16.871  20.150  0.00  0.00    +0.000 A 
ATOM     13  C   UNL     1       4.813  15.617  20.689  0.00  0.00    +0.000 A 
ATOM     14  O   UNL     1       4.142  14.679  19.949  0.00  0.00    +0.000 OA
ENDBRANCH   9  10
ENDBRANCH   8   9
BRANCH   8  15
ATOM     15  C   UNL     1       0.506  14.759  19.199  0.00  0.00    +0.000 C 
BRANCH  15  16
ATOM     16  C   UNL     1      -0.596  14.295  20.261  0.00  0.00    +0.000 C 
ATOM     17  N   UNL     1      -1.738  13.981  19.612  0.00  0.00    +0.000 N 
ATOM     18  O   UNL     1      -0.425  14.232  21.455  0.00  0.00    +0.000 OA
ATOM     19  H   UNL     1      -1.590  14.159  18.640  0.00  0.00    +0.000 HD
ATOM     20  H   UNL     1      -2.676  13.629  19.857  0.00  0.00    +0.000 HD
ENDBRANCH  15  16
ENDBRANCH   8  15
ENDBRANCH   5   6
ENDBRANCH   3   5
BRANCH   1  21
ATOM     21  C   UNL     1       1.310   8.197  20.914  0.00  0.00    +0.000 C 
BRANCH  21  22
ATOM     22  N   UNL     1       2.168   7.075  20.571  0.00  0.00    +0.000 NA
ATOM     23  H   UNL     1       2.538   7.189  19.627  0.00  0.00    +0.000 HD
BRANCH  22  24
ATOM     24  C   UNL     1       1.345   5.871  20.648  0.00  0.00    +0.000 C 
BRANCH  24  25
ATOM     25  C   UNL     1       2.221   4.673  20.955  0.00  0.00    +0.000 C 
BRANCH  25  26
ATOM     26  C   UNL     1       1.382   3.405  20.954  0.00  0.00    +0.000 C 
BRANCH  26  27
ATOM     27  C   UNL     1       1.945   2.415  19.952  0.00  0.00    +0.000 C 
BRANCH  27  28
ATOM     28  C   UNL     1       1.425   2.731  18.563  0.00  0.00    +0.000 C 
BRANCH  28  29
ATOM     29  C   UNL     1       2.530   2.533  17.542  0.00  0.00    +0.000 C 
BRANCH  29  30
ATOM     30  C   UNL     1       3.680   3.479  17.836  0.00  0.00    +0.000 C 
BRANCH  30  31
ATOM     31  C   UNL     1       3.277   4.901  17.493  0.00  0.00    +0.000 C 
BRANCH  31  32
ATOM     32  C   UNL     1       4.432   5.845  17.769  0.00  0.00    +0.000 C 
BRANCH  32  33
ATOM     33  C   UNL     1       5.114   6.225  16.466  0.00  0.00    +0.000 C 
BRANCH  33  34
ATOM     34  C   UNL     1       6.570   5.794  16.497  0.00  0.00    +0.000 C 
BRANCH  34  36
ATOM     35  C   UNL     1       5.860   4.430  14.541  0.00  0.00    +0.000 C 
ATOM     36  C   UNL     1       6.738   4.468  15.774  0.00  0.00    +0.000 C 
ENDBRANCH  34  36
ENDBRANCH  33  34
ENDBRANCH  32  33
ENDBRANCH  31  32
ENDBRANCH  30  31
ENDBRANCH  29  30
ENDBRANCH  28  29
ENDBRANCH  27  28
ENDBRANCH  26  27
ENDBRANCH  25  26
ENDBRANCH  24  25
ENDBRANCH  22  24
ENDBRANCH  21  22
ENDBRANCH   1  21
TORSDOF 20
ENDMDL
MODEL 8
REMARK VINA RESULT:      -5.7      2.411      4.574
REMARK  Name = 
REMARK  22 active torsions:
REMARK  status: ('A' for Active; 'I' for Inactive)
REMARK    1  A    between atoms: C_1  and  C_2
REMARK    2  A    between atoms: C_2  and  C_3
REMARK    3  A    between atoms: C_3  and  C_4
REMARK    4  A    between atoms: C_4  and  C_5
REMARK    5  A    between atoms: C_5  and  C_6
REMARK    6  A    between atoms: C_6  and  C_7
REMARK    7  A    between atoms: C_7  and  C_8
REMARK    8  A    between atoms: C_8  and  C_9
REMARK    9  A    between atoms: C_9  and  C_10
REMARK   10  A    between atoms: C_10  and  C_11
REMARK   11  A    between atoms: C_11  and  C_12
REMARK   12  A    between atoms: C_12  and  C_13
REMARK   13  A    between atoms: C_13  and  N_14
REMARK   14  A    between atoms: N_14  and  C_15
REMARK   15  A    between atoms: C_15  and  C_16
REMARK   16  A    between atoms: N_18  and  C_19
REMARK   17  A    between atoms: N_18  and  C_20
REMARK   18  A    between atoms: C_20  and  C_21
REMARK   19  A    between atoms: N_23  and  C_24
REMARK   20  A    between atoms: N_23  and  C_28
REMARK   21  A    between atoms: C_24  and  C_25
REMARK   22  A    between atoms: C_28  and  C_29
REMARK                            x       y       z     vdW  Elec       q    Type
REMARK                         _______ _______ _______ _____ _____    ______ ____
ROOT
ATOM      1  C   UNL     1       1.552  10.465  18.279  0.00  0.00    +0.000 C 
ATOM      2  O   UNL     1       2.536  11.094  17.855  0.00  0.00    +0.000 OA
ATOM      3  N   UNL     1       0.510  11.049  19.000  0.00  0.00    +0.000 N 
ATOM      4  C   UNL     1      -0.706  10.425  19.480  0.00  0.00    +0.000 C 
ENDROOT
BRANCH   3   5
ATOM      5  C   UNL     1       0.423  12.507  19.160  0.00  0.00    +0.000 C 
BRANCH   5   6
ATOM      6  C   UNL     1       0.937  13.335  20.363  0.00  0.00    +0.000 C 
ATOM      7  O   UNL     1       0.916  12.815  21.565  0.00  0.00    +0.000 OA
ATOM      8  N   UNL     1       1.451  14.635  20.220  0.00  0.00    +0.000 N 
BRANCH   8   9
ATOM      9  C   UNL     1       1.893  15.276  21.488  0.00  0.00    +0.000 C 
BRANCH   9  10
ATOM     10  C   UNL     1       3.370  15.278  21.626  0.00  0.00    +0.000 A 
ATOM     11  C   UNL     1       4.274  14.240  21.689  0.00  0.00    +0.000 A 
ATOM     12  C   UNL     1       5.552  14.817  21.824  0.00  0.00    +0.000 A 
ATOM     13  C   UNL     1       5.360  16.179  21.801  0.00  0.00    +0.000 A 
ATOM     14  O   UNL     1       4.027  16.473  21.676  0.00  0.00    +0.000 OA
ENDBRANCH   9  10
ENDBRANCH   8   9
BRANCH   8  15
ATOM     15  C   UNL     1       1.621  15.502  18.956  0.00  0.00    +0.000 C 
BRANCH  15  16
ATOM     16  C   UNL     1       3.007  15.823  18.225  0.00  0.00    +0.000 C 
ATOM     17  N   UNL     1       3.395  14.746  17.508  0.00  0.00    +0.000 N 
ATOM     18  O   UNL     1       3.605  16.869  18.302  0.00  0.00    +0.000 OA
ATOM     19  H   UNL     1       2.719  14.026  17.660  0.00  0.00    +0.000 HD
ATOM     20  H   UNL     1       4.175  14.493  16.882  0.00  0.00    +0.000 HD
ENDBRANCH  15  16
ENDBRANCH   8  15
ENDBRANCH   5   6
ENDBRANCH   3   5
BRANCH   1  21
ATOM     21  C   UNL     1       1.390   9.003  18.029  0.00  0.00    +0.000 C 
BRANCH  21  22
ATOM     22  N   UNL     1       2.684   8.342  18.044  0.00  0.00    +0.000 NA
ATOM     23  H   UNL     1       3.190   8.537  17.179  0.00  0.00    +0.000 HD
BRANCH  22  24
ATOM     24  C   UNL     1       2.430   6.910  18.168  0.00  0.00    +0.000 C 
BRANCH  24  25
ATOM     25  C   UNL     1       2.851   6.434  19.544  0.00  0.00    +0.000 C 
BRANCH  25  26
ATOM     26  C   UNL     1       1.706   5.685  20.205  0.00  0.00    +0.000 C 
BRANCH  26  27
ATOM     27  C   UNL     1       2.253   4.690  21.211  0.00  0.00    +0.000 C 
BRANCH  27  28
ATOM     28  C   UNL     1       1.818   3.285  20.839  0.00  0.00    +0.000 C 
BRANCH  28  29
ATOM     29  C   UNL     1       0.950   3.327  19.595  0.00  0.00    +0.000 C 
BRANCH  29  30
ATOM     30  C   UNL     1       1.517   2.396  18.539  0.00  0.00    +0.000 C 
BRANCH  30  31
ATOM     31  C   UNL     1       2.246   3.202  17.480  0.00  0.00    +0.000 C 
BRANCH  31  32
ATOM     32  C   UNL     1       3.732   3.228  17.785  0.00  0.00    +0.000 C 
BRANCH  32  33
ATOM     33  C   UNL     1       4.481   3.913  16.655  0.00  0.00    +0.000 C 
BRANCH  33  34
ATOM     34  C   UNL     1       5.467   4.920  17.221  0.00  0.00    +0.000 C 
BRANCH  34  36
ATOM     35  C   UNL     1       6.871   5.487  19.196  0.00  0.00    +0.000 C 
ATOM     36  C   UNL     1       5.746   4.612  18.683  0.00  0.00    +0.000 C 
ENDBRANCH  34  36
ENDBRANCH  33  34
ENDBRANCH  32  33
ENDBRANCH  31  32
ENDBRANCH  30  31
ENDBRANCH  29  30
ENDBRANCH  28  29
ENDBRANCH  27  28
ENDBRANCH  26  27
ENDBRANCH  25  26
ENDBRANCH  24  25
ENDBRANCH  22  24
ENDBRANCH  21  22
ENDBRANCH   1  21
TORSDOF 20
ENDMDL
MODEL 9
REMARK VINA RESULT:      -5.7      3.051      4.969
REMARK  Name = 
REMARK  22 active torsions:
REMARK  status: ('A' for Active; 'I' for Inactive)
REMARK    1  A    between atoms: C_1  and  C_2
REMARK    2  A    between atoms: C_2  and  C_3
REMARK    3  A    between atoms: C_3  and  C_4
REMARK    4  A    between atoms: C_4  and  C_5
REMARK    5  A    between atoms: C_5  and  C_6
REMARK    6  A    between atoms: C_6  and  C_7
REMARK    7  A    between atoms: C_7  and  C_8
REMARK    8  A    between atoms: C_8  and  C_9
REMARK    9  A    between atoms: C_9  and  C_10
REMARK   10  A    between atoms: C_10  and  C_11
REMARK   11  A    between atoms: C_11  and  C_12
REMARK   12  A    between atoms: C_12  and  C_13
REMARK   13  A    between atoms: C_13  and  N_14
REMARK   14  A    between atoms: N_14  and  C_15
REMARK   15  A    between atoms: C_15  and  C_16
REMARK   16  A    between atoms: N_18  and  C_19
REMARK   17  A    between atoms: N_18  and  C_20
REMARK   18  A    between atoms: C_20  and  C_21
REMARK   19  A    between atoms: N_23  and  C_24
REMARK   20  A    between atoms: N_23  and  C_28
REMARK   21  A    between atoms: C_24  and  C_25
REMARK   22  A    between atoms: C_28  and  C_29
REMARK                            x       y       z     vdW  Elec       q    Type
REMARK                         _______ _______ _______ _____ _____    ______ ____
ROOT
ATOM      1  C   UNL     1       0.697  10.787  20.393  0.00  0.00    +0.000 C 
ATOM      2  O   UNL     1       1.008  11.934  20.030  0.00  0.00    +0.000 OA
ATOM      3  N   UNL     1       0.007  10.508  21.573  0.00  0.00    +0.000 N 
ATOM      4  C   UNL     1      -0.460   9.224  22.055  0.00  0.00    +0.000 C 
ENDROOT
BRANCH   3   5
ATOM      5  C   UNL     1      -0.558  11.588  22.394  0.00  0.00    +0.000 C 
BRANCH   5   6
ATOM      6  C   UNL     1      -2.059  11.931  22.560  0.00  0.00    +0.000 C 
ATOM      7  O   UNL     1      -2.663  11.670  23.692  0.00  0.00    +0.000 OA
ATOM      8  N   UNL     1      -2.811  12.538  21.540  0.00  0.00    +0.000 N 
BRANCH   8   9
ATOM      9  C   UNL     1      -4.238  12.789  21.880  0.00  0.00    +0.000 C 
BRANCH   9  10
ATOM     10  C   UNL     1      -4.465  14.180  22.342  0.00  0.00    +0.000 A 
ATOM     11  C   UNL     1      -4.678  15.344  21.635  0.00  0.00    +0.000 A 
ATOM     12  C   UNL     1      -4.830  16.376  22.583  0.00  0.00    +0.000 A 
ATOM     13  C   UNL     1      -4.735  15.777  23.818  0.00  0.00    +0.000 A 
ATOM     14  O   UNL     1      -4.516  14.432  23.683  0.00  0.00    +0.000 OA
ENDBRANCH   9  10
ENDBRANCH   8   9
BRANCH   8  15
ATOM     15  C   UNL     1      -2.390  12.977  20.122  0.00  0.00    +0.000 C 
BRANCH  15  16
ATOM     16  C   UNL     1      -2.607  12.131  18.782  0.00  0.00    +0.000 C 
ATOM     17  N   UNL     1      -3.930  11.993  18.548  0.00  0.00    +0.000 N 
ATOM     18  O   UNL     1      -1.720  11.692  18.090  0.00  0.00    +0.000 OA
ATOM     19  H   UNL     1      -4.415  12.434  19.303  0.00  0.00    +0.000 HD
ATOM     20  H   UNL     1      -4.531  11.565  17.828  0.00  0.00    +0.000 HD
ENDBRANCH  15  16
ENDBRANCH   8  15
ENDBRANCH   5   6
ENDBRANCH   3   5
BRANCH   1  21
ATOM     21  C   UNL     1       1.026   9.587  19.569  0.00  0.00    +0.000 C 
BRANCH  21  22
ATOM     22  N   UNL     1       1.619   9.992  18.305  0.00  0.00    +0.000 NA
ATOM     23  H   UNL     1       0.895  10.315  17.663  0.00  0.00    +0.000 HD
BRANCH  22  24
ATOM     24  C   UNL     1       2.293   8.818  17.756  0.00  0.00    +0.000 C 
BRANCH  24  25
ATOM     25  C   UNL     1       2.358   7.729  18.807  0.00  0.00    +0.000 C 
BRANCH  25  26
ATOM     26  C   UNL     1       2.681   6.396  18.150  0.00  0.00    +0.000 C 
BRANCH  26  27
ATOM     27  C   UNL     1       3.988   6.500  17.388  0.00  0.00    +0.000 C 
BRANCH  27  28
ATOM     28  C   UNL     1       5.077   5.739  18.120  0.00  0.00    +0.000 C 
BRANCH  28  29
ATOM     29  C   UNL     1       4.606   4.329  18.421  0.00  0.00    +0.000 C 
BRANCH  29  30
ATOM     30  C   UNL     1       4.402   3.564  17.127  0.00  0.00    +0.000 C 
BRANCH  30  31
ATOM     31  C   UNL     1       3.138   2.729  17.214  0.00  0.00    +0.000 C 
BRANCH  31  32
ATOM     32  C   UNL     1       2.626   2.716  18.643  0.00  0.00    +0.000 C 
BRANCH  32  33
ATOM     33  C   UNL     1       1.133   2.990  18.660  0.00  0.00    +0.000 C 
BRANCH  33  34
ATOM     34  C   UNL     1       0.743   3.661  19.966  0.00  0.00    +0.000 C 
BRANCH  34  36
ATOM     35  C   UNL     1       1.878   2.692  21.957  0.00  0.00    +0.000 C 
ATOM     36  C   UNL     1       1.951   3.757  20.884  0.00  0.00    +0.000 C 
ENDBRANCH  34  36
ENDBRANCH  33  34
ENDBRANCH  32  33
ENDBRANCH  31  32
ENDBRANCH  30  31
ENDBRANCH  29  30
ENDBRANCH  28  29
ENDBRANCH  27  28
ENDBRANCH  26  27
ENDBRANCH  25  26
ENDBRANCH  24  25
ENDBRANCH  22  24
ENDBRANCH  21  22
ENDBRANCH   1  21
TORSDOF 20
ENDMDL
