MODEL 1
REMARK VINA RESULT:      -7.4      0.000      0.000
REMARK  Name = 
REMARK  4 active torsions:
REMARK  status: ('A' for Active; 'I' for Inactive)
REMARK    1  A    between atoms: C_1  and  C_2
REMARK    2  A    between atoms: C_2  and  N_3
REMARK    3  A    between atoms: N_6  and  C_7
REMARK    4  A    between atoms: C_7  and  C_8
REMARK                            x       y       z     vdW  Elec       q    Type
REMARK                         _______ _______ _______ _____ _____    ______ ____
ROOT
ATOM      1  N   UNL     1       3.801   5.147  17.491  0.00  0.00    +0.000 N 
ATOM      2  C   UNL     1       3.653   6.469  17.908  0.00  0.00    +0.000 A 
ATOM      3  O   UNL     1       4.399   7.354  17.475  0.00  0.00    +0.000 OA
ATOM      4  N   UNL     1       2.655   6.744  18.827  0.00  0.00    +0.000 N 
ATOM      5  C   UNL     1       2.026   5.758  19.581  0.00  0.00    +0.000 A 
ATOM      6  O   UNL     1       1.375   5.978  20.598  0.00  0.00    +0.000 OA
ATOM      7  C   UNL     1       2.207   4.361  19.143  0.00  0.00    +0.000 A 
ATOM      8  C   UNL     1       1.506   3.330  19.794  0.00  0.00    +0.000 A 
ATOM      9  C   UNL     1       1.666   2.006  19.389  0.00  0.00    +0.000 A 
ATOM     10  C   UNL     1       2.538   1.712  18.348  0.00  0.00    +0.000 A 
ATOM     11  C   UNL     1       3.247   2.740  17.715  0.00  0.00    +0.000 A 
ATOM     12  C   UNL     1       3.087   4.081  18.101  0.00  0.00    +0.000 A 
ENDROOT
BRANCH   1  14
ATOM     13  C   UNL     1       6.180   4.561  17.078  0.00  0.00    +0.000 C 
ATOM     14  C   UNL     1       4.819   4.875  16.472  0.00  0.00    +0.000 C 
ENDBRANCH   1  14
BRANCH   4  15
ATOM     15  C   UNL     1       2.536   8.126  19.312  0.00  0.00    +0.000 C 
BRANCH  15  16
ATOM     16  C   UNL     1       1.586   9.080  18.557  0.00  0.00    +0.000 C 
ATOM     17  O   UNL     1       1.746   9.294  17.352  0.00  0.00    +0.000 OA
ATOM     18  N   UNL     1       0.496   9.623  19.233  0.00  0.00    +0.000 N 
ATOM     19  C   UNL     1      -0.565  10.280  18.461  0.00  0.00    +0.000 C 
ATOM     20  C   UNL     1      -0.466  11.796  18.590  0.00  0.00    +0.000 C 
ATOM     21  C   UNL     1      -0.504  12.190  20.068  0.00  0.00    +0.000 C 
ATOM     22  C   UNL     1       0.596  11.457  20.847  0.00  0.00    +0.000 C 
ATOM     23  C   UNL     1       0.488   9.946  20.657  0.00  0.00    +0.000 C 
ATOM     24  O   UNL     1      -1.794  11.846  20.604  0.00  0.00    +0.000 OA
ATOM     25  C   UNL     1      -2.209  12.994  21.341  0.00  0.00    +0.000 C 
ATOM     26  C   UNL     1      -1.552  14.136  20.617  0.00  0.00    +0.000 C 
ATOM     27  O   UNL     1      -0.293  13.605  20.206  0.00  0.00    +0.000 OA
ENDBRANCH  15  16
ENDBRANCH   4  15
TORSDOF 3
ENDMDL
MODEL 2
REMARK VINA RESULT:      -7.0      2.058      4.080
REMARK  Name = 
REMARK  4 active torsions:
REMARK  status: ('A' for Active; 'I' for Inactive)
REMARK    1  A    between atoms: C_1  and  C_2
REMARK    2  A    between atoms: C_2  and  N_3
REMARK    3  A    between atoms: N_6  and  C_7
REMARK    4  A    between atoms: C_7  and  C_8
REMARK                            x       y       z     vdW  Elec       q    Type
REMARK                         _______ _______ _______ _____ _____    ______ ____
ROOT
ATOM      1  N   UNL     1       2.222   6.434  20.092  0.00  0.00    +0.000 N 
ATOM      2  C   UNL     1       1.374   7.518  20.315  0.00  0.00    +0.000 A 
ATOM      3  O   UNL     1       0.522   7.478  21.209  0.00  0.00    +0.000 OA
ATOM      4  N   UNL     1       1.517   8.623  19.495  0.00  0.00    +0.000 N 
ATOM      5  C   UNL     1       2.212   8.589  18.290  0.00  0.00    +0.000 A 
ATOM      6  O   UNL     1       2.105   9.435  17.407  0.00  0.00    +0.000 OA
ATOM      7  C   UNL     1       3.090   7.427  18.055  0.00  0.00    +0.000 A 
ATOM      8  C   UNL     1       3.905   7.388  16.910  0.00  0.00    +0.000 A 
ATOM      9  C   UNL     1       4.741   6.297  16.677  0.00  0.00    +0.000 A 
ATOM     10  C   UNL     1       4.748   5.240  17.577  0.00  0.00    +0.000 A 
ATOM     11  C   UNL     1       3.922   5.274  18.707  0.00  0.00    +0.000 A 
ATOM     12  C   UNL     1       3.084   6.372  18.964  0.00  0.00    +0.000 A 
ENDROOT
BRANCH   1  14
ATOM     13  C   UNL     1       1.122   4.244  20.505  0.00  0.00    +0.000 C 
ATOM     14  C   UNL     1       2.107   5.292  21.005  0.00  0.00    +0.000 C 
ENDBRANCH   1  14
BRANCH   4  15
ATOM     15  C   UNL     1       0.585   9.743  19.690  0.00  0.00    +0.000 C 
BRANCH  15  16
ATOM     16  C   UNL     1       1.065  10.947  20.528  0.00  0.00    +0.000 C 
ATOM     17  O   UNL     1       1.220  10.835  21.747  0.00  0.00    +0.000 OA
ATOM     18  N   UNL     1       1.403  12.131  19.876  0.00  0.00    +0.000 N 
ATOM     19  C   UNL     1       2.134  13.166  20.616  0.00  0.00    +0.000 C 
ATOM     20  C   UNL     1       1.206  14.317  20.991  0.00  0.00    +0.000 C 
ATOM     21  C   UNL     1       0.541  14.873  19.730  0.00  0.00    +0.000 C 
ATOM     22  C   UNL     1      -0.181  13.755  18.967  0.00  0.00    +0.000 C 
ATOM     23  C   UNL     1       0.771  12.605  18.649  0.00  0.00    +0.000 C 
ATOM     24  O   UNL     1       1.555  15.460  18.894  0.00  0.00    +0.000 OA
ATOM     25  C   UNL     1       1.026  16.721  18.496  0.00  0.00    +0.000 C 
ATOM     26  C   UNL     1       0.141  17.113  19.647  0.00  0.00    +0.000 C 
ATOM     27  O   UNL     1      -0.423  15.878  20.084  0.00  0.00    +0.000 OA
ENDBRANCH  15  16
ENDBRANCH   4  15
TORSDOF 3
ENDMDL
MODEL 3
REMARK VINA RESULT:      -7.0      2.096      8.525
REMARK  Name = 
REMARK  4 active torsions:
REMARK  status: ('A' for Active; 'I' for Inactive)
REMARK    1  A    between atoms: C_1  and  C_2
REMARK    2  A    between atoms: C_2  and  N_3
REMARK    3  A    between atoms: N_6  and  C_7
REMARK    4  A    between atoms: C_7  and  C_8
REMARK                            x       y       z     vdW  Elec       q    Type
REMARK                         _______ _______ _______ _____ _____    ______ ____
ROOT
ATOM      1  N   UNL     1      -1.043  12.080  20.458  0.00  0.00    +0.000 N 
ATOM      2  C   UNL     1       0.155  11.451  20.121  0.00  0.00    +0.000 A 
ATOM      3  O   UNL     1       1.209  11.760  20.686  0.00  0.00    +0.000 OA
ATOM      4  N   UNL     1       0.116  10.487  19.130  0.00  0.00    +0.000 N 
ATOM      5  C   UNL     1      -0.953  10.345  18.250  0.00  0.00    +0.000 A 
ATOM      6  O   UNL     1      -0.898   9.726  17.191  0.00  0.00    +0.000 OA
ATOM      7  C   UNL     1      -2.208  11.032  18.606  0.00  0.00    +0.000 A 
ATOM      8  C   UNL     1      -3.357  10.836  17.819  0.00  0.00    +0.000 A 
ATOM      9  C   UNL     1      -4.552  11.477  18.144  0.00  0.00    +0.000 A 
ATOM     10  C   UNL     1      -4.592  12.326  19.243  0.00  0.00    +0.000 A 
ATOM     11  C   UNL     1      -3.441  12.532  20.014  0.00  0.00    +0.000 A 
ATOM     12  C   UNL     1      -2.234  11.883  19.707  0.00  0.00    +0.000 A 
ENDROOT
BRANCH   1  14
ATOM     13  C   UNL     1      -1.310  12.427  22.904  0.00  0.00    +0.000 C 
ATOM     14  C   UNL     1      -1.005  13.055  21.551  0.00  0.00    +0.000 C 
ENDBRANCH   1  14
BRANCH   4  15
ATOM     15  C   UNL     1       1.388   9.865  18.733  0.00  0.00    +0.000 C 
BRANCH  15  16
ATOM     16  C   UNL     1       1.754   8.502  19.357  0.00  0.00    +0.000 C 
ATOM     17  O   UNL     1       1.582   8.303  20.563  0.00  0.00    +0.000 OA
ATOM     18  N   UNL     1       2.198   7.476  18.527  0.00  0.00    +0.000 N 
ATOM     19  C   UNL     1       2.262   6.109  19.056  0.00  0.00    +0.000 C 
ATOM     20  C   UNL     1       3.704   5.711  19.351  0.00  0.00    +0.000 C 
ATOM     21  C   UNL     1       4.551   5.878  18.087  0.00  0.00    +0.000 C 
ATOM     22  C   UNL     1       4.430   7.307  17.545  0.00  0.00    +0.000 C 
ATOM     23  C   UNL     1       2.970   7.681  17.305  0.00  0.00    +0.000 C 
ATOM     24  O   UNL     1       4.093   4.939  17.098  0.00  0.00    +0.000 OA
ATOM     25  C   UNL     1       5.275   4.336  16.580  0.00  0.00    +0.000 C 
ATOM     26  C   UNL     1       6.232   4.382  17.738  0.00  0.00    +0.000 C 
ATOM     27  O   UNL     1       5.933   5.618  18.384  0.00  0.00    +0.000 OA
ENDBRANCH  15  16
ENDBRANCH   4  15
TORSDOF 3
ENDMDL
MODEL 4
REMARK VINA RESULT:      -6.9      1.608      3.575
REMARK  Name = 
REMARK  4 active torsions:
REMARK  status: ('A' for Active; 'I' for Inactive)
REMARK    1  A    between atoms: C_1  and  C_2
REMARK    2  A    between atoms: C_2  and  N_3
REMARK    3  A    between atoms: N_6  and  C_7
REMARK    4  A    between atoms: C_7  and  C_8
REMARK                            x       y       z     vdW  Elec       q    Type
REMARK                         _______ _______ _______ _____ _____    ______ ____
ROOT
ATOM      1  N   UNL     1       3.556   4.031  17.755  0.00  0.00    +0.000 N 
ATOM      2  C   UNL     1       2.478   4.798  18.196  0.00  0.00    +0.000 A 
ATOM      3  O   UNL     1       1.382   4.273  18.421  0.00  0.00    +0.000 OA
ATOM      4  N   UNL     1       2.680   6.157  18.357  0.00  0.00    +0.000 N 
ATOM      5  C   UNL     1       3.767   6.832  17.809  0.00  0.00    +0.000 A 
ATOM      6  O   UNL     1       3.822   8.050  17.667  0.00  0.00    +0.000 OA
ATOM      7  C   UNL     1       4.892   6.011  17.326  0.00  0.00    +0.000 A 
ATOM      8  C   UNL     1       6.065   6.635  16.866  0.00  0.00    +0.000 A 
ATOM      9  C   UNL     1       7.137   5.871  16.409  0.00  0.00    +0.000 A 
ATOM     10  C   UNL     1       7.031   4.486  16.394  0.00  0.00    +0.000 A 
ATOM     11  C   UNL     1       5.854   3.869  16.836  0.00  0.00    +0.000 A 
ATOM     12  C   UNL     1       4.770   4.624  17.313  0.00  0.00    +0.000 A 
ENDROOT
BRANCH   1  14
ATOM     13  C   UNL     1       3.645   1.854  18.951  0.00  0.00    +0.000 C 
ATOM     14  C   UNL     1       3.351   2.584  17.647  0.00  0.00    +0.000 C 
ENDBRANCH   1  14
BRANCH   4  15
ATOM     15  C   UNL     1       1.529   6.975  18.765  0.00  0.00    +0.000 C 
BRANCH  15  16
ATOM     16  C   UNL     1       1.420   7.382  20.249  0.00  0.00    +0.000 C 
ATOM     17  O   UNL     1       1.409   6.520  21.132  0.00  0.00    +0.000 OA
ATOM     18  N   UNL     1       1.422   8.735  20.581  0.00  0.00    +0.000 N 
ATOM     19  C   UNL     1       1.618   9.124  21.982  0.00  0.00    +0.000 C 
ATOM     20  C   UNL     1       0.301   9.567  22.608  0.00  0.00    +0.000 C 
ATOM     21  C   UNL     1      -0.309  10.699  21.778  0.00  0.00    +0.000 C 
ATOM     22  C   UNL     1      -0.464  10.267  20.314  0.00  0.00    +0.000 C 
ATOM     23  C   UNL     1       0.867   9.790  19.738  0.00  0.00    +0.000 C 
ATOM     24  O   UNL     1       0.556  11.847  21.859  0.00  0.00    +0.000 OA
ATOM     25  C   UNL     1      -0.311  12.947  22.121  0.00  0.00    +0.000 C 
ATOM     26  C   UNL     1      -1.446  12.330  22.888  0.00  0.00    +0.000 C 
ATOM     27  O   UNL     1      -1.605  11.043  22.292  0.00  0.00    +0.000 OA
ENDBRANCH  15  16
ENDBRANCH   4  15
TORSDOF 3
ENDMDL
MODEL 5
REMARK VINA RESULT:      -6.6      1.326      3.405
REMARK  Name = 
REMARK  4 active torsions:
REMARK  status: ('A' for Active; 'I' for Inactive)
REMARK    1  A    between atoms: C_1  and  C_2
REMARK    2  A    between atoms: C_2  and  N_3
REMARK    3  A    between atoms: N_6  and  C_7
REMARK    4  A    between atoms: C_7  and  C_8
REMARK                            x       y       z     vdW  Elec       q    Type
REMARK                         _______ _______ _______ _____ _____    ______ ____
ROOT
ATOM      1  N   UNL     1       4.052   4.514  19.130  0.00  0.00    +0.000 N 
ATOM      2  C   UNL     1       2.851   5.202  19.296  0.00  0.00    +0.000 A 
ATOM      3  O   UNL     1       1.878   4.653  19.825  0.00  0.00    +0.000 OA
ATOM      4  N   UNL     1       2.790   6.506  18.839  0.00  0.00    +0.000 N 
ATOM      5  C   UNL     1       3.721   7.045  17.956  0.00  0.00    +0.000 A 
ATOM      6  O   UNL     1       3.540   8.068  17.301  0.00  0.00    +0.000 OA
ATOM      7  C   UNL     1       4.979   6.298  17.771  0.00  0.00    +0.000 A 
ATOM      8  C   UNL     1       6.006   6.846  16.982  0.00  0.00    +0.000 A 
ATOM      9  C   UNL     1       7.201   6.152  16.800  0.00  0.00    +0.000 A 
ATOM     10  C   UNL     1       7.362   4.906  17.392  0.00  0.00    +0.000 A 
ATOM     11  C   UNL     1       6.330   4.356  18.162  0.00  0.00    +0.000 A 
ATOM     12  C   UNL     1       5.125   5.048  18.366  0.00  0.00    +0.000 A 
ENDROOT
BRANCH   1  14
ATOM     13  C   UNL     1       3.621   2.106  18.691  0.00  0.00    +0.000 C 
ATOM     14  C   UNL     1       4.128   3.155  19.672  0.00  0.00    +0.000 C 
ENDBRANCH   1  14
BRANCH   4  15
ATOM     15  C   UNL     1       1.507   7.213  18.960  0.00  0.00    +0.000 C 
BRANCH  15  16
ATOM     16  C   UNL     1       1.314   8.164  20.160  0.00  0.00    +0.000 C 
ATOM     17  O   UNL     1       1.365   7.730  21.314  0.00  0.00    +0.000 OA
ATOM     18  N   UNL     1       1.170   9.529  19.924  0.00  0.00    +0.000 N 
ATOM     19  C   UNL     1       1.286  10.463  21.050  0.00  0.00    +0.000 C 
ATOM     20  C   UNL     1      -0.087  10.979  21.466  0.00  0.00    +0.000 C 
ATOM     21  C   UNL     1      -0.783  11.616  20.261  0.00  0.00    +0.000 C 
ATOM     22  C   UNL     1      -0.852  10.623  19.095  0.00  0.00    +0.000 C 
ATOM     23  C   UNL     1       0.536  10.098  18.738  0.00  0.00    +0.000 C 
ATOM     24  O   UNL     1      -0.042  12.785  19.865  0.00  0.00    +0.000 OA
ATOM     25  C   UNL     1      -1.022  13.802  19.679  0.00  0.00    +0.000 C 
ATOM     26  C   UNL     1      -2.111  13.427  20.644  0.00  0.00    +0.000 C 
ATOM     27  O   UNL     1      -2.122  12.000  20.614  0.00  0.00    +0.000 OA
ENDBRANCH  15  16
ENDBRANCH   4  15
TORSDOF 3
ENDMDL
MODEL 6
REMARK VINA RESULT:      -6.5      1.123      2.679
REMARK  Name = 
REMARK  4 active torsions:
REMARK  status: ('A' for Active; 'I' for Inactive)
REMARK    1  A    between atoms: C_1  and  C_2
REMARK    2  A    between atoms: C_2  and  N_3
REMARK    3  A    between atoms: N_6  and  C_7
REMARK    4  A    between atoms: C_7  and  C_8
REMARK                            x       y       z     vdW  Elec       q    Type
REMARK                         _______ _______ _______ _____ _____    ______ ____
ROOT
ATOM      1  N   UNL     1       1.915   4.869  19.839  0.00  0.00    +0.000 N 
ATOM      2  C   UNL     1       1.700   6.205  20.172  0.00  0.00    +0.000 A 
ATOM      3  O   UNL     1       0.833   6.518  20.994  0.00  0.00    +0.000 OA
ATOM      4  N   UNL     1       2.482   7.157  19.541  0.00  0.00    +0.000 N 
ATOM      5  C   UNL     1       3.219   6.892  18.391  0.00  0.00    +0.000 A 
ATOM      6  O   UNL     1       3.666   7.757  17.643  0.00  0.00    +0.000 OA
ATOM      7  C   UNL     1       3.422   5.475  18.036  0.00  0.00    +0.000 A 
ATOM      8  C   UNL     1       4.251   5.139  16.951  0.00  0.00    +0.000 A 
ATOM      9  C   UNL     1       4.453   3.804  16.605  0.00  0.00    +0.000 A 
ATOM     10  C   UNL     1       3.813   2.808  17.332  0.00  0.00    +0.000 A 
ATOM     11  C   UNL     1       2.974   3.147  18.400  0.00  0.00    +0.000 A 
ATOM     12  C   UNL     1       2.771   4.487  18.770  0.00  0.00    +0.000 A 
ENDROOT
BRANCH   1  14
ATOM     13  C   UNL     1       1.903   3.217  21.696  0.00  0.00    +0.000 C 
ATOM     14  C   UNL     1       1.126   3.863  20.556  0.00  0.00    +0.000 C 
ENDBRANCH   1  14
BRANCH   4  15
ATOM     15  C   UNL     1       2.217   8.570  19.848  0.00  0.00    +0.000 C 
BRANCH  15  16
ATOM     16  C   UNL     1       1.057   9.267  19.107  0.00  0.00    +0.000 C 
ATOM     17  O   UNL     1       0.992   9.229  17.875  0.00  0.00    +0.000 OA
ATOM     18  N   UNL     1       0.040   9.861  19.851  0.00  0.00    +0.000 N 
ATOM     19  C   UNL     1      -1.200  10.256  19.173  0.00  0.00    +0.000 C 
ATOM     20  C   UNL     1      -1.249  11.768  18.979  0.00  0.00    +0.000 C 
ATOM     21  C   UNL     1      -1.086  12.465  20.332  0.00  0.00    +0.000 C 
ATOM     22  C   UNL     1       0.200  11.999  21.024  0.00  0.00    +0.000 C 
ATOM     23  C   UNL     1       0.230  10.479  21.160  0.00  0.00    +0.000 C 
ATOM     24  O   UNL     1      -2.225  12.150  21.153  0.00  0.00    +0.000 OA
ATOM     25  C   UNL     1      -2.637  13.394  21.712  0.00  0.00    +0.000 C 
ATOM     26  C   UNL     1      -2.239  14.400  20.668  0.00  0.00    +0.000 C 
ATOM     27  O   UNL     1      -1.014  13.888  20.146  0.00  0.00    +0.000 OA
ENDBRANCH  15  16
ENDBRANCH   4  15
TORSDOF 3
ENDMDL
MODEL 7
REMARK VINA RESULT:      -6.5      4.317      6.850
REMARK  Name = 
REMARK  4 active torsions:
REMARK  status: ('A' for Active; 'I' for Inactive)
REMARK    1  A    between atoms: C_1  and  C_2
REMARK    2  A    between atoms: C_2  and  N_3
REMARK    3  A    between atoms: N_6  and  C_7
REMARK    4  A    between atoms: C_7  and  C_8
REMARK                            x       y       z     vdW  Elec       q    Type
REMARK                         _______ _______ _______ _____ _____    ______ ____
ROOT
ATOM      1  N   UNL     1       0.396  11.695  19.826  0.00  0.00    +0.000 N 
ATOM      2  C   UNL     1      -0.297  12.500  20.729  0.00  0.00    +0.000 A 
ATOM      3  O   UNL     1      -0.441  13.708  20.514  0.00  0.00    +0.000 OA
ATOM      4  N   UNL     1      -0.802  11.898  21.868  0.00  0.00    +0.000 N 
ATOM      5  C   UNL     1      -0.389  10.645  22.311  0.00  0.00    +0.000 A 
ATOM      6  O   UNL     1      -0.573  10.219  23.447  0.00  0.00    +0.000 OA
ATOM      7  C   UNL     1       0.362   9.811  21.355  0.00  0.00    +0.000 A 
ATOM      8  C   UNL     1       0.709   8.493  21.701  0.00  0.00    +0.000 A 
ATOM      9  C   UNL     1       1.417   7.692  20.806  0.00  0.00    +0.000 A 
ATOM     10  C   UNL     1       1.793   8.214  19.575  0.00  0.00    +0.000 A 
ATOM     11  C   UNL     1       1.462   9.533  19.241  0.00  0.00    +0.000 A 
ATOM     12  C   UNL     1       0.736  10.348  20.126  0.00  0.00    +0.000 A 
ENDROOT
BRANCH   1  14
ATOM     13  C   UNL     1       2.290  12.869  18.726  0.00  0.00    +0.000 C 
ATOM     14  C   UNL     1       0.873  12.327  18.592  0.00  0.00    +0.000 C 
ENDBRANCH   1  14
BRANCH   4  15
ATOM     15  C   UNL     1      -1.482  12.756  22.849  0.00  0.00    +0.000 C 
BRANCH  15  16
ATOM     16  C   UNL     1      -3.002  12.572  23.042  0.00  0.00    +0.000 C 
ATOM     17  O   UNL     1      -3.431  11.818  23.920  0.00  0.00    +0.000 OA
ATOM     18  N   UNL     1      -3.877  13.335  22.273  0.00  0.00    +0.000 N 
ATOM     19  C   UNL     1      -5.294  13.389  22.652  0.00  0.00    +0.000 C 
ATOM     20  C   UNL     1      -6.135  12.531  21.713  0.00  0.00    +0.000 C 
ATOM     21  C   UNL     1      -5.910  12.977  20.267  0.00  0.00    +0.000 C 
ATOM     22  C   UNL     1      -4.416  12.942  19.922  0.00  0.00    +0.000 C 
ATOM     23  C   UNL     1      -3.605  13.777  20.909  0.00  0.00    +0.000 C 
ATOM     24  O   UNL     1      -6.415  14.316  20.113  0.00  0.00    +0.000 OA
ATOM     25  C   UNL     1      -7.179  14.290  18.910  0.00  0.00    +0.000 C 
ATOM     26  C   UNL     1      -7.682  12.875  18.840  0.00  0.00    +0.000 C 
ATOM     27  O   UNL     1      -6.606  12.100  19.367  0.00  0.00    +0.000 OA
ENDBRANCH  15  16
ENDBRANCH   4  15
TORSDOF 3
ENDMDL
MODEL 8
REMARK VINA RESULT:      -6.4      2.184      8.412
REMARK  Name = 
REMARK  4 active torsions:
REMARK  status: ('A' for Active; 'I' for Inactive)
REMARK    1  A    between atoms: C_1  and  C_2
REMARK    2  A    between atoms: C_2  and  N_3
REMARK    3  A    between atoms: N_6  and  C_7
REMARK    4  A    between atoms: C_7  and  C_8
REMARK                            x       y       z     vdW  Elec       q    Type
REMARK                         _______ _______ _______ _____ _____    ______ ____
ROOT
ATOM      1  N   UNL     1       1.441  12.596  19.796  0.00  0.00    +0.000 N 
ATOM      2  C   UNL     1       1.702  11.445  19.054  0.00  0.00    +0.000 A 
ATOM      3  O   UNL     1       2.374  11.502  18.019  0.00  0.00    +0.000 OA
ATOM      4  N   UNL     1       1.172  10.252  19.513  0.00  0.00    +0.000 N 
ATOM      5  C   UNL     1       0.155  10.188  20.460  0.00  0.00    +0.000 A 
ATOM      6  O   UNL     1      -0.539   9.196  20.662  0.00  0.00    +0.000 OA
ATOM      7  C   UNL     1      -0.127  11.418  21.225  0.00  0.00    +0.000 A 
ATOM      8  C   UNL     1      -1.064  11.388  22.273  0.00  0.00    +0.000 A 
ATOM      9  C   UNL     1      -1.339  12.542  23.005  0.00  0.00    +0.000 A 
ATOM     10  C   UNL     1      -0.692  13.727  22.678  0.00  0.00    +0.000 A 
ATOM     11  C   UNL     1       0.227  13.756  21.621  0.00  0.00    +0.000 A 
ATOM     12  C   UNL     1       0.525  12.599  20.883  0.00  0.00    +0.000 A 
ENDROOT
BRANCH   1  14
ATOM     13  C   UNL     1       3.301  14.209  20.137  0.00  0.00    +0.000 C 
ATOM     14  C   UNL     1       2.057  13.844  19.338  0.00  0.00    +0.000 C 
ENDBRANCH   1  14
BRANCH   4  15
ATOM     15  C   UNL     1       1.397   9.048  18.701  0.00  0.00    +0.000 C 
BRANCH  15  16
ATOM     16  C   UNL     1       2.104   7.847  19.364  0.00  0.00    +0.000 C 
ATOM     17  O   UNL     1       2.090   7.717  20.592  0.00  0.00    +0.000 OA
ATOM     18  N   UNL     1       2.678   6.870  18.555  0.00  0.00    +0.000 N 
ATOM     19  C   UNL     1       3.082   5.594  19.158  0.00  0.00    +0.000 C 
ATOM     20  C   UNL     1       4.597   5.530  19.318  0.00  0.00    +0.000 C 
ATOM     21  C   UNL     1       5.268   5.762  17.962  0.00  0.00    +0.000 C 
ATOM     22  C   UNL     1       4.793   7.086  17.350  0.00  0.00    +0.000 C 
ATOM     23  C   UNL     1       3.271   7.128  17.246  0.00  0.00    +0.000 C 
ATOM     24  O   UNL     1       4.931   4.670  17.088  0.00  0.00    +0.000 OA
ATOM     25  C   UNL     1       6.162   4.284  16.483  0.00  0.00    +0.000 C 
ATOM     26  C   UNL     1       7.191   4.623  17.526  0.00  0.00    +0.000 C 
ATOM     27  O   UNL     1       6.694   5.820  18.123  0.00  0.00    +0.000 OA
ENDBRANCH  15  16
ENDBRANCH   4  15
TORSDOF 3
ENDMDL
MODEL 9
REMARK VINA RESULT:      -6.4      1.843      3.834
REMARK  Name = 
REMARK  4 active torsions:
REMARK  status: ('A' for Active; 'I' for Inactive)
REMARK    1  A    between atoms: C_1  and  C_2
REMARK    2  A    between atoms: C_2  and  N_3
REMARK    3  A    between atoms: N_6  and  C_7
REMARK    4  A    between atoms: C_7  and  C_8
REMARK                            x       y       z     vdW  Elec       q    Type
REMARK                         _______ _______ _______ _____ _____    ______ ____
ROOT
ATOM      1  N   UNL     1       2.231   6.353  20.148  0.00  0.00    +0.000 N 
ATOM      2  C   UNL     1       1.347   7.416  20.331  0.00  0.00    +0.000 A 
ATOM      3  O   UNL     1       0.468   7.363  21.198  0.00  0.00    +0.000 OA
ATOM      4  N   UNL     1       1.485   8.514  19.501  0.00  0.00    +0.000 N 
ATOM      5  C   UNL     1       2.219   8.485  18.319  0.00  0.00    +0.000 A 
ATOM      6  O   UNL     1       2.116   9.317  17.422  0.00  0.00    +0.000 OA
ATOM      7  C   UNL     1       3.135   7.345  18.127  0.00  0.00    +0.000 A 
ATOM      8  C   UNL     1       3.986   7.315  17.008  0.00  0.00    +0.000 A 
ATOM      9  C   UNL     1       4.858   6.245  16.815  0.00  0.00    +0.000 A 
ATOM     10  C   UNL     1       4.867   5.200  17.729  0.00  0.00    +0.000 A 
ATOM     11  C   UNL     1       4.004   5.224  18.832  0.00  0.00    +0.000 A 
ATOM     12  C   UNL     1       3.129   6.302  19.048  0.00  0.00    +0.000 A 
ENDROOT
BRANCH   1  14
ATOM     13  C   UNL     1       1.197   4.128  20.543  0.00  0.00    +0.000 C 
ATOM     14  C   UNL     1       2.118   5.220  21.071  0.00  0.00    +0.000 C 
ENDBRANCH   1  14
BRANCH   4  15
ATOM     15  C   UNL     1       0.517   9.610  19.653  0.00  0.00    +0.000 C 
BRANCH  15  16
ATOM     16  C   UNL     1       0.880  10.772  20.601  0.00  0.00    +0.000 C 
ATOM     17  O   UNL     1       1.518  10.556  21.635  0.00  0.00    +0.000 OA
ATOM     18  N   UNL     1       0.556  12.075  20.228  0.00  0.00    +0.000 N 
ATOM     19  C   UNL     1       1.153  13.195  20.965  0.00  0.00    +0.000 C 
ATOM     20  C   UNL     1       0.133  13.826  21.905  0.00  0.00    +0.000 C 
ATOM     21  C   UNL     1      -1.103  14.255  21.110  0.00  0.00    +0.000 C 
ATOM     22  C   UNL     1      -1.675  13.067  20.327  0.00  0.00    +0.000 C 
ATOM     23  C   UNL     1      -0.611  12.437  19.431  0.00  0.00    +0.000 C 
ATOM     24  O   UNL     1      -0.724  15.304  20.200  0.00  0.00    +0.000 OA
ATOM     25  C   UNL     1      -1.730  16.303  20.344  0.00  0.00    +0.000 C 
ATOM     26  C   UNL     1      -2.179  16.151  21.770  0.00  0.00    +0.000 C 
ATOM     27  O   UNL     1      -2.117  14.744  22.002  0.00  0.00    +0.000 OA
ENDBRANCH  15  16
ENDBRANCH   4  15
TORSDOF 3
ENDMDL
