MODEL 1
REMARK VINA RESULT:      -6.4      0.000      0.000
REMARK  Name = 
REMARK  9 active torsions:
REMARK  status: ('A' for Active; 'I' for Inactive)
REMARK    1  A    between atoms: C_1  and  C_2
REMARK    2  A    between atoms: C_2  and  C_3
REMARK    3  A    between atoms: C_2  and  N_11
REMARK    4  A    between atoms: C_6  and  C_7
REMARK    5  A    between atoms: C_19  and  S_20
REMARK    6  A    between atoms: S_20  and  C_21
REMARK    7  A    between atoms: C_28  and  C_29
REMARK    8  A    between atoms: C_29  and  C_30
REMARK    9  A    between atoms: C_30  and  O_32
REMARK                            x       y       z     vdW  Elec       q    Type
REMARK                         _______ _______ _______ _____ _____    ______ ____
ROOT
ATOM      1  N   UNL     1      -1.862  12.721  19.900  0.00  0.00    +0.000 N 
ATOM      2  C   UNL     1      -2.054  11.714  18.932  0.00  0.00    +0.000 A 
ATOM      3  C   UNL     1      -3.415  11.609  18.710  0.00  0.00    +0.000 A 
ATOM      4  C   UNL     1      -4.105  12.316  19.706  0.00  0.00    +0.000 A 
ATOM      5  C   UNL     1      -5.487  12.330  19.977  0.00  0.00    +0.000 A 
ATOM      6  C   UNL     1      -5.967  13.034  21.053  0.00  0.00    +0.000 A 
ATOM      7  F   UNL     1      -7.273  12.999  21.343  0.00  0.00    +0.000 F 
ATOM      8  C   UNL     1      -5.105  13.767  21.832  0.00  0.00    +0.000 A 
ATOM      9  C   UNL     1      -3.701  13.847  21.579  0.00  0.00    +0.000 A 
ATOM     10  C   UNL     1      -3.176  13.050  20.474  0.00  0.00    +0.000 A 
ATOM     11  C   UNL     1      -4.062  10.777  17.646  0.00  0.00    +0.000 C 
ATOM     12  C   UNL     1      -3.111  10.564  16.484  0.00  0.00    +0.000 C 
ATOM     13  C   UNL     1      -1.821   9.975  17.041  0.00  0.00    +0.000 C 
ATOM     14  C   UNL     1      -1.084  10.887  18.084  0.00  0.00    +0.000 C 
ENDROOT
BRANCH   9  15
ATOM     15  S   UNL     1      -2.953  15.049  22.713  0.00  0.00    +0.000 S 
ATOM     16  C   UNL     1      -4.299  15.929  23.479  0.00  0.00    +0.000 C 
ATOM     17  O   UNL     1      -2.228  14.371  23.753  0.00  0.00    +0.000 OA
ATOM     18  O   UNL     1      -2.248  16.022  21.891  0.00  0.00    +0.000 OA
ENDBRANCH   9  15
BRANCH   1  20
ATOM     19  C   UNL     1      -0.378  12.237  21.752  0.00  0.00    +0.000 C 
ATOM     20  C   UNL     1      -0.618  13.226  20.594  0.00  0.00    +0.000 C 
BRANCH  20  21
ATOM     21  C   UNL     1       0.792  13.577  20.062  0.00  0.00    +0.000 A 
ATOM     22  C   UNL     1       1.994  13.512  20.739  0.00  0.00    +0.000 A 
ATOM     23  C   UNL     1       3.018  14.448  20.514  0.00  0.00    +0.000 A 
ATOM     24  C   UNL     1       2.915  15.373  19.485  0.00  0.00    +0.000 A 
ATOM     25  C   UNL     1       1.867  15.240  18.585  0.00  0.00    +0.000 A 
ATOM     26  C   UNL     1       0.830  14.339  18.861  0.00  0.00    +0.000 A 
BRANCH  24  27
ATOM     27  C   UNL     1       3.843  16.467  19.396  0.00  0.00    +0.000 C 
ATOM     28  N   UNL     1       4.633  17.313  19.355  0.00  0.00    +0.000 NA
ENDBRANCH  24  27
ENDBRANCH  20  21
ENDBRANCH   1  20
BRANCH  14  29
ATOM     29  C   UNL     1      -0.182   9.924  18.877  0.00  0.00    +0.000 C 
BRANCH  29  30
ATOM     30  C   UNL     1       1.111   9.742  18.114  0.00  0.00    +0.000 C 
ATOM     31  O   UNL     1       1.620   8.684  17.783  0.00  0.00    +0.000 OA
BRANCH  30  32
ATOM     32  O   UNL     1       1.782  10.898  17.943  0.00  0.00    +0.000 OA
ATOM     33  H   UNL     1       1.078  11.565  17.797  0.00  0.00    +0.000 HD
ENDBRANCH  30  32
ENDBRANCH  29  30
ENDBRANCH  14  29
TORSDOF 7
ENDMDL
MODEL 2
REMARK VINA RESULT:      -6.4      3.474      5.377
REMARK  Name = 
REMARK  9 active torsions:
REMARK  status: ('A' for Active; 'I' for Inactive)
REMARK    1  A    between atoms: C_1  and  C_2
REMARK    2  A    between atoms: C_2  and  C_3
REMARK    3  A    between atoms: C_2  and  N_11
REMARK    4  A    between atoms: C_6  and  C_7
REMARK    5  A    between atoms: C_19  and  S_20
REMARK    6  A    between atoms: S_20  and  C_21
REMARK    7  A    between atoms: C_28  and  C_29
REMARK    8  A    between atoms: C_29  and  C_30
REMARK    9  A    between atoms: C_30  and  O_32
REMARK                            x       y       z     vdW  Elec       q    Type
REMARK                         _______ _______ _______ _____ _____    ______ ____
ROOT
ATOM      1  N   UNL     1      -2.956  12.749  20.279  0.00  0.00    +0.000 N 
ATOM      2  C   UNL     1      -1.678  12.166  20.397  0.00  0.00    +0.000 A 
ATOM      3  C   UNL     1      -1.383  11.571  19.183  0.00  0.00    +0.000 A 
ATOM      4  C   UNL     1      -2.544  11.515  18.398  0.00  0.00    +0.000 A 
ATOM      5  C   UNL     1      -2.751  10.838  17.180  0.00  0.00    +0.000 A 
ATOM      6  C   UNL     1      -3.992  10.842  16.596  0.00  0.00    +0.000 A 
ATOM      7  F   UNL     1      -4.200  10.150  15.469  0.00  0.00    +0.000 F 
ATOM      8  C   UNL     1      -5.018  11.551  17.172  0.00  0.00    +0.000 A 
ATOM      9  C   UNL     1      -4.865  12.310  18.373  0.00  0.00    +0.000 A 
ATOM     10  C   UNL     1      -3.563  12.258  19.032  0.00  0.00    +0.000 A 
ATOM     11  C   UNL     1      -0.064  10.971  18.806  0.00  0.00    +0.000 C 
ATOM     12  C   UNL     1       1.059  11.608  19.601  0.00  0.00    +0.000 C 
ATOM     13  C   UNL     1       0.712  11.479  21.080  0.00  0.00    +0.000 C 
ATOM     14  C   UNL     1      -0.620  12.190  21.503  0.00  0.00    +0.000 C 
ENDROOT
BRANCH   9  15
ATOM     15  S   UNL     1      -6.390  13.237  18.698  0.00  0.00    +0.000 S 
ATOM     16  C   UNL     1      -7.156  13.522  17.116  0.00  0.00    +0.000 C 
ATOM     17  O   UNL     1      -7.296  12.446  19.486  0.00  0.00    +0.000 OA
ATOM     18  O   UNL     1      -5.990  14.545  19.197  0.00  0.00    +0.000 OA
ENDBRANCH   9  15
BRANCH   1  20
ATOM     19  C   UNL     1      -4.643  12.345  21.970  0.00  0.00    +0.000 C 
ATOM     20  C   UNL     1      -3.833  13.462  21.283  0.00  0.00    +0.000 C 
BRANCH  20  21
ATOM     21  C   UNL     1      -3.505  14.475  22.406  0.00  0.00    +0.000 A 
ATOM     22  C   UNL     1      -2.680  15.580  22.336  0.00  0.00    +0.000 A 
ATOM     23  C   UNL     1      -1.892  15.982  23.428  0.00  0.00    +0.000 A 
ATOM     24  C   UNL     1      -2.041  15.376  24.667  0.00  0.00    +0.000 A 
ATOM     25  C   UNL     1      -3.097  14.491  24.842  0.00  0.00    +0.000 A 
ATOM     26  C   UNL     1      -3.831  14.063  23.728  0.00  0.00    +0.000 A 
BRANCH  24  27
ATOM     27  C   UNL     1      -1.090  15.622  25.716  0.00  0.00    +0.000 C 
ATOM     28  N   UNL     1      -0.361  15.786  26.600  0.00  0.00    +0.000 NA
ENDBRANCH  24  27
ENDBRANCH  20  21
ENDBRANCH   1  20
BRANCH  14  29
ATOM     29  C   UNL     1      -1.033  11.500  22.815  0.00  0.00    +0.000 C 
BRANCH  29  30
ATOM     30  C   UNL     1      -0.493  10.087  22.803  0.00  0.00    +0.000 C 
ATOM     31  O   UNL     1      -0.802   9.195  22.030  0.00  0.00    +0.000 OA
BRANCH  30  32
ATOM     32  O   UNL     1       0.294   9.820  23.864  0.00  0.00    +0.000 OA
ATOM     33  H   UNL     1       0.924  10.571  23.890  0.00  0.00    +0.000 HD
ENDBRANCH  30  32
ENDBRANCH  29  30
ENDBRANCH  14  29
TORSDOF 7
ENDMDL
MODEL 3
REMARK VINA RESULT:      -6.4      3.615      6.667
REMARK  Name = 
REMARK  9 active torsions:
REMARK  status: ('A' for Active; 'I' for Inactive)
REMARK    1  A    between atoms: C_1  and  C_2
REMARK    2  A    between atoms: C_2  and  C_3
REMARK    3  A    between atoms: C_2  and  N_11
REMARK    4  A    between atoms: C_6  and  C_7
REMARK    5  A    between atoms: C_19  and  S_20
REMARK    6  A    between atoms: S_20  and  C_21
REMARK    7  A    between atoms: C_28  and  C_29
REMARK    8  A    between atoms: C_29  and  C_30
REMARK    9  A    between atoms: C_30  and  O_32
REMARK                            x       y       z     vdW  Elec       q    Type
REMARK                         _______ _______ _______ _____ _____    ______ ____
ROOT
ATOM      1  N   UNL     1       0.872  13.304  20.529  0.00  0.00    +0.000 N 
ATOM      2  C   UNL     1       0.673  12.188  19.691  0.00  0.00    +0.000 A 
ATOM      3  C   UNL     1       1.788  12.079  18.879  0.00  0.00    +0.000 A 
ATOM      4  C   UNL     1       2.555  13.248  18.981  0.00  0.00    +0.000 A 
ATOM      5  C   UNL     1       3.662  13.646  18.205  0.00  0.00    +0.000 A 
ATOM      6  C   UNL     1       4.238  14.873  18.412  0.00  0.00    +0.000 A 
ATOM      7  F   UNL     1       5.253  15.272  17.635  0.00  0.00    +0.000 F 
ATOM      8  C   UNL     1       3.770  15.690  19.412  0.00  0.00    +0.000 A 
ATOM      9  C   UNL     1       2.692  15.327  20.277  0.00  0.00    +0.000 A 
ATOM     10  C   UNL     1       2.034  14.050  20.020  0.00  0.00    +0.000 A 
ATOM     11  C   UNL     1       2.076  10.944  17.945  0.00  0.00    +0.000 C 
ATOM     12  C   UNL     1       1.383   9.680  18.412  0.00  0.00    +0.000 C 
ATOM     13  C   UNL     1      -0.099   9.995  18.576  0.00  0.00    +0.000 C 
ATOM     14  C   UNL     1      -0.416  11.116  19.627  0.00  0.00    +0.000 C 
ENDROOT
BRANCH   9  15
ATOM     15  S   UNL     1       2.503  16.589  21.566  0.00  0.00    +0.000 S 
ATOM     16  C   UNL     1       3.952  17.622  21.480  0.00  0.00    +0.000 C 
ATOM     17  O   UNL     1       1.360  17.417  21.290  0.00  0.00    +0.000 OA
ATOM     18  O   UNL     1       2.572  15.899  22.846  0.00  0.00    +0.000 OA
ENDBRANCH   9  15
BRANCH   1  20
ATOM     19  C   UNL     1      -0.971  14.861  20.748  0.00  0.00    +0.000 C 
ATOM     20  C   UNL     1      -0.018  13.961  21.560  0.00  0.00    +0.000 C 
BRANCH  20  21
ATOM     21  C   UNL     1      -0.886  13.375  22.699  0.00  0.00    +0.000 A 
ATOM     22  C   UNL     1      -1.291  12.066  22.868  0.00  0.00    +0.000 A 
ATOM     23  C   UNL     1      -2.550  11.747  23.406  0.00  0.00    +0.000 A 
ATOM     24  C   UNL     1      -3.362  12.739  23.936  0.00  0.00    +0.000 A 
ATOM     25  C   UNL     1      -2.834  14.015  24.077  0.00  0.00    +0.000 A 
ATOM     26  C   UNL     1      -1.603  14.322  23.483  0.00  0.00    +0.000 A 
BRANCH  24  27
ATOM     27  C   UNL     1      -4.730  12.454  24.275  0.00  0.00    +0.000 C 
ATOM     28  N   UNL     1      -5.812  12.168  24.569  0.00  0.00    +0.000 NA
ENDBRANCH  24  27
ENDBRANCH  20  21
ENDBRANCH   1  20
BRANCH  14  29
ATOM     29  C   UNL     1      -1.816  11.629  19.242  0.00  0.00    +0.000 C 
BRANCH  29  30
ATOM     30  C   UNL     1      -1.879  11.763  17.737  0.00  0.00    +0.000 C 
ATOM     31  O   UNL     1      -2.363  10.963  16.953  0.00  0.00    +0.000 OA
BRANCH  30  32
ATOM     32  O   UNL     1      -1.189  12.826  17.279  0.00  0.00    +0.000 OA
ATOM     33  H   UNL     1      -1.361  12.825  16.312  0.00  0.00    +0.000 HD
ENDBRANCH  30  32
ENDBRANCH  29  30
ENDBRANCH  14  29
TORSDOF 7
ENDMDL
MODEL 4
REMARK VINA RESULT:      -6.4      1.818      2.550
REMARK  Name = 
REMARK  9 active torsions:
REMARK  status: ('A' for Active; 'I' for Inactive)
REMARK    1  A    between atoms: C_1  and  C_2
REMARK    2  A    between atoms: C_2  and  C_3
REMARK    3  A    between atoms: C_2  and  N_11
REMARK    4  A    between atoms: C_6  and  C_7
REMARK    5  A    between atoms: C_19  and  S_20
REMARK    6  A    between atoms: S_20  and  C_21
REMARK    7  A    between atoms: C_28  and  C_29
REMARK    8  A    between atoms: C_29  and  C_30
REMARK    9  A    between atoms: C_30  and  O_32
REMARK                            x       y       z     vdW  Elec       q    Type
REMARK                         _______ _______ _______ _____ _____    ______ ____
ROOT
ATOM      1  N   UNL     1      -3.193  12.806  20.316  0.00  0.00    +0.000 N 
ATOM      2  C   UNL     1      -4.129  12.262  19.413  0.00  0.00    +0.000 A 
ATOM      3  C   UNL     1      -5.389  12.507  19.928  0.00  0.00    +0.000 A 
ATOM      4  C   UNL     1      -5.273  12.938  21.257  0.00  0.00    +0.000 A 
ATOM      5  C   UNL     1      -6.290  13.123  22.214  0.00  0.00    +0.000 A 
ATOM      6  C   UNL     1      -5.966  13.482  23.498  0.00  0.00    +0.000 A 
ATOM      7  F   UNL     1      -6.929  13.601  24.420  0.00  0.00    +0.000 F 
ATOM      8  C   UNL     1      -4.655  13.713  23.835  0.00  0.00    +0.000 A 
ATOM      9  C   UNL     1      -3.578  13.604  22.902  0.00  0.00    +0.000 A 
ATOM     10  C   UNL     1      -3.910  13.160  21.551  0.00  0.00    +0.000 A 
ATOM     11  C   UNL     1      -6.683  12.244  19.222  0.00  0.00    +0.000 C 
ATOM     12  C   UNL     1      -6.488  12.273  17.719  0.00  0.00    +0.000 C 
ATOM     13  C   UNL     1      -5.376  11.289  17.376  0.00  0.00    +0.000 C 
ATOM     14  C   UNL     1      -3.989  11.615  18.033  0.00  0.00    +0.000 C 
ENDROOT
BRANCH   9  15
ATOM     15  S   UNL     1      -2.041  14.161  23.687  0.00  0.00    +0.000 S 
ATOM     16  C   UNL     1      -1.403  15.479  22.673  0.00  0.00    +0.000 C 
ATOM     17  O   UNL     1      -2.315  14.706  24.990  0.00  0.00    +0.000 OA
ATOM     18  O   UNL     1      -1.089  13.066  23.575  0.00  0.00    +0.000 OA
ENDBRANCH   9  15
BRANCH   1  20
ATOM     19  C   UNL     1      -1.308  11.321  20.641  0.00  0.00    +0.000 C 
ATOM     20  C   UNL     1      -1.681  12.784  20.334  0.00  0.00    +0.000 C 
BRANCH  20  21
ATOM     21  C   UNL     1      -0.629  13.265  19.307  0.00  0.00    +0.000 A 
ATOM     22  C   UNL     1       0.398  12.535  18.741  0.00  0.00    +0.000 A 
ATOM     23  C   UNL     1       1.642  13.118  18.447  0.00  0.00    +0.000 A 
ATOM     24  C   UNL     1       1.826  14.488  18.568  0.00  0.00    +0.000 A 
ATOM     25  C   UNL     1       0.714  15.280  18.817  0.00  0.00    +0.000 A 
ATOM     26  C   UNL     1      -0.502  14.675  19.162  0.00  0.00    +0.000 A 
BRANCH  24  27
ATOM     27  C   UNL     1       3.146  15.054  18.491  0.00  0.00    +0.000 C 
ATOM     28  N   UNL     1       4.231  15.451  18.439  0.00  0.00    +0.000 NA
ENDBRANCH  24  27
ENDBRANCH  20  21
ENDBRANCH   1  20
BRANCH  14  29
ATOM     29  C   UNL     1      -3.223  10.279  18.013  0.00  0.00    +0.000 C 
BRANCH  29  30
ATOM     30  C   UNL     1      -2.004  10.440  17.133  0.00  0.00    +0.000 C 
ATOM     31  O   UNL     1      -0.994   9.755  17.153  0.00  0.00    +0.000 OA
BRANCH  30  32
ATOM     32  O   UNL     1      -2.050  11.554  16.377  0.00  0.00    +0.000 OA
ATOM     33  H   UNL     1      -2.794  11.394  15.758  0.00  0.00    +0.000 HD
ENDBRANCH  30  32
ENDBRANCH  29  30
ENDBRANCH  14  29
TORSDOF 7
ENDMDL
MODEL 5
REMARK VINA RESULT:      -6.4      1.010      1.432
REMARK  Name = 
REMARK  9 active torsions:
REMARK  status: ('A' for Active; 'I' for Inactive)
REMARK    1  A    between atoms: C_1  and  C_2
REMARK    2  A    between atoms: C_2  and  C_3
REMARK    3  A    between atoms: C_2  and  N_11
REMARK    4  A    between atoms: C_6  and  C_7
REMARK    5  A    between atoms: C_19  and  S_20
REMARK    6  A    between atoms: S_20  and  C_21
REMARK    7  A    between atoms: C_28  and  C_29
REMARK    8  A    between atoms: C_29  and  C_30
REMARK    9  A    between atoms: C_30  and  O_32
REMARK                            x       y       z     vdW  Elec       q    Type
REMARK                         _______ _______ _______ _____ _____    ______ ____
ROOT
ATOM      1  N   UNL     1      -2.436  12.647  19.997  0.00  0.00    +0.000 N 
ATOM      2  C   UNL     1      -2.456  11.750  18.908  0.00  0.00    +0.000 A 
ATOM      3  C   UNL     1      -3.782  11.529  18.581  0.00  0.00    +0.000 A 
ATOM      4  C   UNL     1      -4.603  12.032  19.600  0.00  0.00    +0.000 A 
ATOM      5  C   UNL     1      -5.991  11.867  19.774  0.00  0.00    +0.000 A 
ATOM      6  C   UNL     1      -6.608  12.380  20.887  0.00  0.00    +0.000 A 
ATOM      7  F   UNL     1      -7.917  12.172  21.079  0.00  0.00    +0.000 F 
ATOM      8  C   UNL     1      -5.881  13.101  21.803  0.00  0.00    +0.000 A 
ATOM      9  C   UNL     1      -4.483  13.360  21.660  0.00  0.00    +0.000 A 
ATOM     10  C   UNL     1      -3.809  12.763  20.511  0.00  0.00    +0.000 A 
ATOM     11  C   UNL     1      -4.267  10.768  17.387  0.00  0.00    +0.000 C 
ATOM     12  C   UNL     1      -3.234  10.799  16.277  0.00  0.00    +0.000 C 
ATOM     13  C   UNL     1      -1.919  10.288  16.853  0.00  0.00    +0.000 C 
ATOM     14  C   UNL     1      -1.352  11.140  18.042  0.00  0.00    +0.000 C 
ENDROOT
BRANCH   9  15
ATOM     15  S   UNL     1      -3.943  14.488  22.974  0.00  0.00    +0.000 S 
ATOM     16  C   UNL     1      -5.418  15.045  23.802  0.00  0.00    +0.000 C 
ATOM     17  O   UNL     1      -3.140  13.785  23.937  0.00  0.00    +0.000 OA
ATOM     18  O   UNL     1      -3.380  15.660  22.318  0.00  0.00    +0.000 OA
ENDBRANCH   9  15
BRANCH   1  20
ATOM     19  C   UNL     1      -0.683  11.961  21.522  0.00  0.00    +0.000 C 
ATOM     20  C   UNL     1      -1.298  13.194  20.829  0.00  0.00    +0.000 C 
BRANCH  20  21
ATOM     21  C   UNL     1      -0.096  14.099  20.469  0.00  0.00    +0.000 A 
ATOM     22  C   UNL     1       0.089  14.845  19.322  0.00  0.00    +0.000 A 
ATOM     23  C   UNL     1       1.363  15.017  18.753  0.00  0.00    +0.000 A 
ATOM     24  C   UNL     1       2.498  14.577  19.417  0.00  0.00    +0.000 A 
ATOM     25  C   UNL     1       2.361  14.124  20.722  0.00  0.00    +0.000 A 
ATOM     26  C   UNL     1       1.080  13.907  21.246  0.00  0.00    +0.000 A 
BRANCH  24  27
ATOM     27  C   UNL     1       3.768  14.545  18.744  0.00  0.00    +0.000 C 
ATOM     28  N   UNL     1       4.762  14.547  18.152  0.00  0.00    +0.000 NA
ENDBRANCH  24  27
ENDBRANCH  20  21
ENDBRANCH   1  20
BRANCH  14  29
ATOM     29  C   UNL     1      -0.392  10.189  18.781  0.00  0.00    +0.000 C 
BRANCH  29  30
ATOM     30  C   UNL     1       1.020  10.490  18.333  0.00  0.00    +0.000 C 
ATOM     31  O   UNL     1       1.669  11.490  18.590  0.00  0.00    +0.000 OA
BRANCH  30  32
ATOM     32  O   UNL     1       1.491   9.587  17.451  0.00  0.00    +0.000 OA
ATOM     33  H   UNL     1       2.364   9.327  17.816  0.00  0.00    +0.000 HD
ENDBRANCH  30  32
ENDBRANCH  29  30
ENDBRANCH  14  29
TORSDOF 7
ENDMDL
MODEL 6
REMARK VINA RESULT:      -6.3      0.935      1.051
REMARK  Name = 
REMARK  9 active torsions:
REMARK  status: ('A' for Active; 'I' for Inactive)
REMARK    1  A    between atoms: C_1  and  C_2
REMARK    2  A    between atoms: C_2  and  C_3
REMARK    3  A    between atoms: C_2  and  N_11
REMARK    4  A    between atoms: C_6  and  C_7
REMARK    5  A    between atoms: C_19  and  S_20
REMARK    6  A    between atoms: S_20  and  C_21
REMARK    7  A    between atoms: C_28  and  C_29
REMARK    8  A    between atoms: C_29  and  C_30
REMARK    9  A    between atoms: C_30  and  O_32
REMARK                            x       y       z     vdW  Elec       q    Type
REMARK                         _______ _______ _______ _____ _____    ______ ____
ROOT
ATOM      1  N   UNL     1      -2.395  12.563  19.843  0.00  0.00    +0.000 N 
ATOM      2  C   UNL     1      -2.483  11.642  18.779  0.00  0.00    +0.000 A 
ATOM      3  C   UNL     1      -3.820  11.535  18.437  0.00  0.00    +0.000 A 
ATOM      4  C   UNL     1      -4.604  12.139  19.430  0.00  0.00    +0.000 A 
ATOM      5  C   UNL     1      -6.004  12.106  19.587  0.00  0.00    +0.000 A 
ATOM      6  C   UNL     1      -6.585  12.703  20.676  0.00  0.00    +0.000 A 
ATOM      7  F   UNL     1      -7.909  12.621  20.854  0.00  0.00    +0.000 F 
ATOM      8  C   UNL     1      -5.807  13.379  21.584  0.00  0.00    +0.000 A 
ATOM      9  C   UNL     1      -4.389  13.505  21.456  0.00  0.00    +0.000 A 
ATOM     10  C   UNL     1      -3.758  12.818  20.334  0.00  0.00    +0.000 A 
ATOM     11  C   UNL     1      -4.358  10.789  17.256  0.00  0.00    +0.000 C 
ATOM     12  C   UNL     1      -3.312  10.695  16.162  0.00  0.00    +0.000 C 
ATOM     13  C   UNL     1      -2.057  10.082  16.770  0.00  0.00    +0.000 C 
ATOM     14  C   UNL     1      -1.429  10.910  17.946  0.00  0.00    +0.000 C 
ENDROOT
BRANCH   9  15
ATOM     15  S   UNL     1      -3.765  14.615  22.748  0.00  0.00    +0.000 S 
ATOM     16  C   UNL     1      -2.742  15.821  21.929  0.00  0.00    +0.000 C 
ATOM     17  O   UNL     1      -4.853  15.317  23.372  0.00  0.00    +0.000 OA
ATOM     18  O   UNL     1      -2.871  13.827  23.585  0.00  0.00    +0.000 OA
ENDBRANCH   9  15
BRANCH   1  20
ATOM     19  C   UNL     1      -0.958  11.873  21.668  0.00  0.00    +0.000 C 
ATOM     20  C   UNL     1      -1.223  13.026  20.679  0.00  0.00    +0.000 C 
BRANCH  20  21
ATOM     21  C   UNL     1       0.178  13.556  20.290  0.00  0.00    +0.000 A 
ATOM     22  C   UNL     1       1.298  13.657  21.091  0.00  0.00    +0.000 A 
ATOM     23  C   UNL     1       2.209  14.718  20.954  0.00  0.00    +0.000 A 
ATOM     24  C   UNL     1       2.097  15.613  19.900  0.00  0.00    +0.000 A 
ATOM     25  C   UNL     1       1.178  15.335  18.898  0.00  0.00    +0.000 A 
ATOM     26  C   UNL     1       0.244  14.307  19.083  0.00  0.00    +0.000 A 
BRANCH  24  27
ATOM     27  C   UNL     1       2.878  16.820  19.885  0.00  0.00    +0.000 C 
ATOM     28  N   UNL     1       3.524  17.778  19.813  0.00  0.00    +0.000 NA
ENDBRANCH  24  27
ENDBRANCH  20  21
ENDBRANCH   1  20
BRANCH  14  29
ATOM     29  C   UNL     1      -0.570   9.896  18.724  0.00  0.00    +0.000 C 
BRANCH  29  30
ATOM     30  C   UNL     1       0.810   9.865  18.107  0.00  0.00    +0.000 C 
ATOM     31  O   UNL     1       1.442   8.873  17.783  0.00  0.00    +0.000 OA
BRANCH  30  32
ATOM     32  O   UNL     1       1.394  11.079  18.073  0.00  0.00    +0.000 OA
ATOM     33  H   UNL     1       2.333  10.900  18.295  0.00  0.00    +0.000 HD
ENDBRANCH  30  32
ENDBRANCH  29  30
ENDBRANCH  14  29
TORSDOF 7
ENDMDL
MODEL 7
REMARK VINA RESULT:      -6.2      1.260      1.444
REMARK  Name = 
REMARK  9 active torsions:
REMARK  status: ('A' for Active; 'I' for Inactive)
REMARK    1  A    between atoms: C_1  and  C_2
REMARK    2  A    between atoms: C_2  and  C_3
REMARK    3  A    between atoms: C_2  and  N_11
REMARK    4  A    between atoms: C_6  and  C_7
REMARK    5  A    between atoms: C_19  and  S_20
REMARK    6  A    between atoms: S_20  and  C_21
REMARK    7  A    between atoms: C_28  and  C_29
REMARK    8  A    between atoms: C_29  and  C_30
REMARK    9  A    between atoms: C_30  and  O_32
REMARK                            x       y       z     vdW  Elec       q    Type
REMARK                         _______ _______ _______ _____ _____    ______ ____
ROOT
ATOM      1  N   UNL     1      -2.308  12.577  20.076  0.00  0.00    +0.000 N 
ATOM      2  C   UNL     1      -2.283  11.684  18.985  0.00  0.00    +0.000 A 
ATOM      3  C   UNL     1      -3.589  11.511  18.563  0.00  0.00    +0.000 A 
ATOM      4  C   UNL     1      -4.462  12.042  19.524  0.00  0.00    +0.000 A 
ATOM      5  C   UNL     1      -5.864  11.927  19.598  0.00  0.00    +0.000 A 
ATOM      6  C   UNL     1      -6.540  12.459  20.666  0.00  0.00    +0.000 A 
ATOM      7  F   UNL     1      -7.866  12.298  20.764  0.00  0.00    +0.000 F 
ATOM      8  C   UNL     1      -5.855  13.151  21.635  0.00  0.00    +0.000 A 
ATOM      9  C   UNL     1      -4.442  13.360  21.593  0.00  0.00    +0.000 A 
ATOM     10  C   UNL     1      -3.710  12.742  20.492  0.00  0.00    +0.000 A 
ATOM     11  C   UNL     1      -4.016  10.771  17.334  0.00  0.00    +0.000 C 
ATOM     12  C   UNL     1      -2.906  10.767  16.301  0.00  0.00    +0.000 C 
ATOM     13  C   UNL     1      -1.654  10.208  16.966  0.00  0.00    +0.000 C 
ATOM     14  C   UNL     1      -1.143  11.036  18.196  0.00  0.00    +0.000 C 
ENDROOT
BRANCH   9  15
ATOM     15  S   UNL     1      -3.956  14.466  22.946  0.00  0.00    +0.000 S 
ATOM     16  C   UNL     1      -5.466  15.084  23.662  0.00  0.00    +0.000 C 
ATOM     17  O   UNL     1      -3.259  13.731  23.966  0.00  0.00    +0.000 OA
ATOM     18  O   UNL     1      -3.297  15.613  22.338  0.00  0.00    +0.000 OA
ENDBRANCH   9  15
BRANCH   1  20
ATOM     19  C   UNL     1      -0.870  11.883  21.897  0.00  0.00    +0.000 C 
ATOM     20  C   UNL     1      -1.214  13.081  20.989  0.00  0.00    +0.000 C 
BRANCH  20  21
ATOM     21  C   UNL     1       0.140  13.771  20.698  0.00  0.00    +0.000 A 
ATOM     22  C   UNL     1       1.126  13.364  19.821  0.00  0.00    +0.000 A 
ATOM     23  C   UNL     1       2.490  13.553  20.107  0.00  0.00    +0.000 A 
ATOM     24  C   UNL     1       2.883  14.300  21.207  0.00  0.00    +0.000 A 
ATOM     25  C   UNL     1       1.909  14.994  21.912  0.00  0.00    +0.000 A 
ATOM     26  C   UNL     1       0.557  14.747  21.646  0.00  0.00    +0.000 A 
BRANCH  24  27
ATOM     27  C   UNL     1       4.258  14.303  21.630  0.00  0.00    +0.000 C 
ATOM     28  N   UNL     1       5.365  14.243  21.960  0.00  0.00    +0.000 NA
ENDBRANCH  24  27
ENDBRANCH  20  21
ENDBRANCH   1  20
BRANCH  14  29
ATOM     29  C   UNL     1      -0.273  10.049  18.997  0.00  0.00    +0.000 C 
BRANCH  29  30
ATOM     30  C   UNL     1       0.951   9.714  18.176  0.00  0.00    +0.000 C 
ATOM     31  O   UNL     1       1.398   8.601  17.953  0.00  0.00    +0.000 OA
BRANCH  30  32
ATOM     32  O   UNL     1       1.645  10.808  17.803  0.00  0.00    +0.000 OA
ATOM     33  H   UNL     1       1.696  11.350  18.619  0.00  0.00    +0.000 HD
ENDBRANCH  30  32
ENDBRANCH  29  30
ENDBRANCH  14  29
TORSDOF 7
ENDMDL
MODEL 8
REMARK VINA RESULT:      -6.2      3.533      6.675
REMARK  Name = 
REMARK  9 active torsions:
REMARK  status: ('A' for Active; 'I' for Inactive)
REMARK    1  A    between atoms: C_1  and  C_2
REMARK    2  A    between atoms: C_2  and  C_3
REMARK    3  A    between atoms: C_2  and  N_11
REMARK    4  A    between atoms: C_6  and  C_7
REMARK    5  A    between atoms: C_19  and  S_20
REMARK    6  A    between atoms: S_20  and  C_21
REMARK    7  A    between atoms: C_28  and  C_29
REMARK    8  A    between atoms: C_29  and  C_30
REMARK    9  A    between atoms: C_30  and  O_32
REMARK                            x       y       z     vdW  Elec       q    Type
REMARK                         _______ _______ _______ _____ _____    ______ ____
ROOT
ATOM      1  N   UNL     1      -3.292  12.334  19.962  0.00  0.00    +0.000 N 
ATOM      2  C   UNL     1      -4.634  12.666  19.684  0.00  0.00    +0.000 A 
ATOM      3  C   UNL     1      -5.053  11.854  18.646  0.00  0.00    +0.000 A 
ATOM      4  C   UNL     1      -3.941  11.219  18.074  0.00  0.00    +0.000 A 
ATOM      5  C   UNL     1      -3.876  10.455  16.892  0.00  0.00    +0.000 A 
ATOM      6  C   UNL     1      -2.668   9.974  16.453  0.00  0.00    +0.000 A 
ATOM      7  F   UNL     1      -2.600   9.298  15.300  0.00  0.00    +0.000 F 
ATOM      8  C   UNL     1      -1.533  10.191  17.196  0.00  0.00    +0.000 A 
ATOM      9  C   UNL     1      -1.535  10.903  18.434  0.00  0.00    +0.000 A 
ATOM     10  C   UNL     1      -2.806  11.472  18.873  0.00  0.00    +0.000 A 
ATOM     11  C   UNL     1      -6.456  11.753  18.132  0.00  0.00    +0.000 C 
ATOM     12  C   UNL     1      -7.449  12.131  19.213  0.00  0.00    +0.000 C 
ATOM     13  C   UNL     1      -7.069  13.514  19.730  0.00  0.00    +0.000 C 
ATOM     14  C   UNL     1      -5.636  13.604  20.361  0.00  0.00    +0.000 C 
ENDROOT
BRANCH   9  15
ATOM     15  S   UNL     1       0.115  10.814  19.182  0.00  0.00    +0.000 S 
ATOM     16  C   UNL     1       1.008   9.556  18.292  0.00  0.00    +0.000 C 
ATOM     17  O   UNL     1       0.814  12.057  19.000  0.00  0.00    +0.000 OA
ATOM     18  O   UNL     1      -0.062  10.305  20.535  0.00  0.00    +0.000 OA
ENDBRANCH   9  15
BRANCH   1  20
ATOM     19  C   UNL     1      -1.545  14.005  20.115  0.00  0.00    +0.000 C 
ATOM     20  C   UNL     1      -2.288  12.925  20.926  0.00  0.00    +0.000 C 
BRANCH  20  21
ATOM     21  C   UNL     1      -2.444  13.519  22.346  0.00  0.00    +0.000 A 
ATOM     22  C   UNL     1      -3.338  13.142  23.328  0.00  0.00    +0.000 A 
ATOM     23  C   UNL     1      -3.909  14.080  24.205  0.00  0.00    +0.000 A 
ATOM     24  C   UNL     1      -3.469  15.395  24.216  0.00  0.00    +0.000 A 
ATOM     25  C   UNL     1      -2.344  15.717  23.469  0.00  0.00    +0.000 A 
ATOM     26  C   UNL     1      -1.828  14.783  22.561  0.00  0.00    +0.000 A 
BRANCH  24  27
ATOM     27  C   UNL     1      -4.199  16.401  24.940  0.00  0.00    +0.000 C 
ATOM     28  N   UNL     1      -4.794  17.241  25.467  0.00  0.00    +0.000 NA
ENDBRANCH  24  27
ENDBRANCH  20  21
ENDBRANCH   1  20
BRANCH  14  29
ATOM     29  C   UNL     1      -5.275  15.100  20.300  0.00  0.00    +0.000 C 
BRANCH  29  30
ATOM     30  C   UNL     1      -6.178  15.849  21.254  0.00  0.00    +0.000 C 
ATOM     31  O   UNL     1      -6.497  15.504  22.380  0.00  0.00    +0.000 OA
BRANCH  30  32
ATOM     32  O   UNL     1      -6.762  16.922  20.685  0.00  0.00    +0.000 OA
ATOM     33  H   UNL     1      -6.164  17.155  19.943  0.00  0.00    +0.000 HD
ENDBRANCH  30  32
ENDBRANCH  29  30
ENDBRANCH  14  29
TORSDOF 7
ENDMDL
MODEL 9
REMARK VINA RESULT:      -6.1      0.904      1.116
REMARK  Name = 
REMARK  9 active torsions:
REMARK  status: ('A' for Active; 'I' for Inactive)
REMARK    1  A    between atoms: C_1  and  C_2
REMARK    2  A    between atoms: C_2  and  C_3
REMARK    3  A    between atoms: C_2  and  N_11
REMARK    4  A    between atoms: C_6  and  C_7
REMARK    5  A    between atoms: C_19  and  S_20
REMARK    6  A    between atoms: S_20  and  C_21
REMARK    7  A    between atoms: C_28  and  C_29
REMARK    8  A    between atoms: C_29  and  C_30
REMARK    9  A    between atoms: C_30  and  O_32
REMARK                            x       y       z     vdW  Elec       q    Type
REMARK                         _______ _______ _______ _____ _____    ______ ____
ROOT
ATOM      1  N   UNL     1      -2.354  12.720  19.885  0.00  0.00    +0.000 N 
ATOM      2  C   UNL     1      -2.418  11.737  18.877  0.00  0.00    +0.000 A 
ATOM      3  C   UNL     1      -3.750  11.584  18.535  0.00  0.00    +0.000 A 
ATOM      4  C   UNL     1      -4.552  12.231  19.486  0.00  0.00    +0.000 A 
ATOM      5  C   UNL     1      -5.952  12.183  19.637  0.00  0.00    +0.000 A 
ATOM      6  C   UNL     1      -6.551  12.833  20.685  0.00  0.00    +0.000 A 
ATOM      7  F   UNL     1      -7.875  12.737  20.860  0.00  0.00    +0.000 F 
ATOM      8  C   UNL     1      -5.791  13.576  21.556  0.00  0.00    +0.000 A 
ATOM      9  C   UNL     1      -4.375  13.720  21.428  0.00  0.00    +0.000 A 
ATOM     10  C   UNL     1      -3.725  12.979  20.352  0.00  0.00    +0.000 A 
ATOM     11  C   UNL     1      -4.267  10.759  17.397  0.00  0.00    +0.000 C 
ATOM     12  C   UNL     1      -3.213  10.620  16.317  0.00  0.00    +0.000 C 
ATOM     13  C   UNL     1      -1.950  10.068  16.968  0.00  0.00    +0.000 C 
ATOM     14  C   UNL     1      -1.345  10.975  18.095  0.00  0.00    +0.000 C 
ENDROOT
BRANCH   9  15
ATOM     15  S   UNL     1      -3.779  14.916  22.655  0.00  0.00    +0.000 S 
ATOM     16  C   UNL     1      -3.208  13.968  24.050  0.00  0.00    +0.000 C 
ATOM     17  O   UNL     1      -2.656  15.648  22.135  0.00  0.00    +0.000 OA
ATOM     18  O   UNL     1      -4.942  15.659  23.119  0.00  0.00    +0.000 OA
ENDBRANCH   9  15
BRANCH   1  20
ATOM     19  C   UNL     1      -0.988  12.219  21.822  0.00  0.00    +0.000 C 
ATOM     20  C   UNL     1      -1.196  13.254  20.698  0.00  0.00    +0.000 C 
BRANCH  20  21
ATOM     21  C   UNL     1       0.228  13.707  20.295  0.00  0.00    +0.000 A 
ATOM     22  C   UNL     1       1.353  13.774  21.093  0.00  0.00    +0.000 A 
ATOM     23  C   UNL     1       2.314  14.787  20.928  0.00  0.00    +0.000 A 
ATOM     24  C   UNL     1       2.242  15.659  19.852  0.00  0.00    +0.000 A 
ATOM     25  C   UNL     1       1.309  15.400  18.857  0.00  0.00    +0.000 A 
ATOM     26  C   UNL     1       0.328  14.422  19.069  0.00  0.00    +0.000 A 
BRANCH  24  27
ATOM     27  C   UNL     1       3.080  16.827  19.805  0.00  0.00    +0.000 C 
ATOM     28  N   UNL     1       3.768  17.757  19.829  0.00  0.00    +0.000 NA
ENDBRANCH  24  27
ENDBRANCH  20  21
ENDBRANCH   1  20
BRANCH  14  29
ATOM     29  C   UNL     1      -0.474  10.026  18.937  0.00  0.00    +0.000 C 
BRANCH  29  30
ATOM     30  C   UNL     1       0.956  10.139  18.459  0.00  0.00    +0.000 C 
ATOM     31  O   UNL     1       1.660  11.135  18.492  0.00  0.00    +0.000 OA
BRANCH  30  32
ATOM     32  O   UNL     1       1.382   9.032  17.819  0.00  0.00    +0.000 OA
ATOM     33  H   UNL     1       1.182   9.210  16.875  0.00  0.00    +0.000 HD
ENDBRANCH  30  32
ENDBRANCH  29  30
ENDBRANCH  14  29
TORSDOF 7
ENDMDL
