MODEL 1
REMARK VINA RESULT:      -8.6      0.000      0.000
REMARK  Name = 
REMARK  6 active torsions:
REMARK  status: ('A' for Active; 'I' for Inactive)
REMARK    1  A    between atoms: C_2  and  C_3
REMARK    2  A    between atoms: C_3  and  N_4
REMARK    3  A    between atoms: N_4  and  C_5
REMARK    4  A    between atoms: N_4  and  S_11
REMARK    5  A    between atoms: S_11  and  C_14
REMARK    6  A    between atoms: N_20  and  C_21
REMARK                            x       y       z     vdW  Elec       q    Type
REMARK                         _______ _______ _______ _____ _____    ______ ____
ROOT
ATOM      1  N   UNL     1       3.778   5.405  19.047  0.00  0.00    +0.000 N 
ENDROOT
BRANCH   1   2
ATOM      2  C   UNL     1       2.692   4.487  19.296  0.00  0.00    +0.000 A 
ATOM      3  C   UNL     1       2.340   4.227  20.622  0.00  0.00    +0.000 A 
ATOM      4  C   UNL     1       1.295   3.349  20.918  0.00  0.00    +0.000 A 
ATOM      5  C   UNL     1       0.609   2.708  19.886  0.00  0.00    +0.000 A 
ATOM      6  C   UNL     1       0.979   2.935  18.562  0.00  0.00    +0.000 A 
ATOM      7  C   UNL     1       2.023   3.817  18.265  0.00  0.00    +0.000 A 
ENDBRANCH   1   2
BRANCH   1   8
ATOM      8  S   UNL     1       5.350   4.722  18.995  0.00  0.00    +0.000 S 
ATOM      9  O   UNL     1       6.249   5.640  19.667  0.00  0.00    +0.000 OA
ATOM     10  O   UNL     1       5.266   3.344  19.434  0.00  0.00    +0.000 OA
BRANCH   8  11
ATOM     11  C   UNL     1       5.810   4.704  17.269  0.00  0.00    +0.000 A 
ATOM     12  C   UNL     1       6.956   5.379  16.836  0.00  0.00    +0.000 A 
ATOM     13  C   UNL     1       7.315   5.332  15.484  0.00  0.00    +0.000 A 
ATOM     14  C   UNL     1       6.549   4.593  14.580  0.00  0.00    +0.000 A 
ATOM     15  C   UNL     1       5.438   3.877  15.025  0.00  0.00    +0.000 A 
ATOM     16  C   UNL     1       5.072   3.923  16.372  0.00  0.00    +0.000 A 
ENDBRANCH   8  11
ENDBRANCH   1   8
BRANCH   1  17
ATOM     17  C   UNL     1       3.530   6.531  18.115  0.00  0.00    +0.000 C 
BRANCH  17  19
ATOM     18  O   UNL     1       2.291   7.560  19.869  0.00  0.00    +0.000 OA
ATOM     19  C   UNL     1       2.608   7.607  18.681  0.00  0.00    +0.000 C 
ATOM     20  N   UNL     1       2.122   8.529  17.755  0.00  0.00    +0.000 N 
ATOM     21  H   UNL     1       2.335   8.360  16.778  0.00  0.00    +0.000 HD
BRANCH  20  22
ATOM     22  C   UNL     1       1.275   9.636  18.050  0.00  0.00    +0.000 A 
ATOM     23  C   UNL     1      -0.119   9.564  17.977  0.00  0.00    +0.000 A 
ATOM     24  C   UNL     1      -0.918  10.670  18.279  0.00  0.00    +0.000 A 
ATOM     25  C   UNL     1      -0.323  11.863  18.655  0.00  0.00    +0.000 A 
ATOM     26  F   UNL     1      -1.089  12.925  18.936  0.00  0.00    +0.000 F 
ATOM     27  C   UNL     1       1.059  11.962  18.745  0.00  0.00    +0.000 A 
ATOM     28  C   UNL     1       1.861  10.847  18.453  0.00  0.00    +0.000 A 
ENDBRANCH  20  22
ENDBRANCH  17  19
ENDBRANCH   1  17
TORSDOF 6
ENDMDL
MODEL 2
REMARK VINA RESULT:      -8.6      0.090      1.314
REMARK  Name = 
REMARK  6 active torsions:
REMARK  status: ('A' for Active; 'I' for Inactive)
REMARK    1  A    between atoms: C_2  and  C_3
REMARK    2  A    between atoms: C_3  and  N_4
REMARK    3  A    between atoms: N_4  and  C_5
REMARK    4  A    between atoms: N_4  and  S_11
REMARK    5  A    between atoms: S_11  and  C_14
REMARK    6  A    between atoms: N_20  and  C_21
REMARK                            x       y       z     vdW  Elec       q    Type
REMARK                         _______ _______ _______ _____ _____    ______ ____
ROOT
ATOM      1  N   UNL     1       3.767   5.415  19.051  0.00  0.00    +0.000 N 
ENDROOT
BRANCH   1   2
ATOM      2  C   UNL     1       2.709   4.473  19.328  0.00  0.00    +0.000 A 
ATOM      3  C   UNL     1       2.064   3.869  18.246  0.00  0.00    +0.000 A 
ATOM      4  C   UNL     1       1.036   2.949  18.459  0.00  0.00    +0.000 A 
ATOM      5  C   UNL     1       0.629   2.644  19.758  0.00  0.00    +0.000 A 
ATOM      6  C   UNL     1       1.243   3.271  20.841  0.00  0.00    +0.000 A 
ATOM      7  C   UNL     1       2.276   4.189  20.629  0.00  0.00    +0.000 A 
ENDBRANCH   1   2
BRANCH   1   8
ATOM      8  S   UNL     1       5.357   4.775  18.994  0.00  0.00    +0.000 S 
ATOM      9  O   UNL     1       6.234   5.722  19.656  0.00  0.00    +0.000 OA
ATOM     10  O   UNL     1       5.312   3.398  19.443  0.00  0.00    +0.000 OA
BRANCH   8  11
ATOM     11  C   UNL     1       5.808   4.759  17.266  0.00  0.00    +0.000 A 
ATOM     12  C   UNL     1       6.863   5.552  16.803  0.00  0.00    +0.000 A 
ATOM     13  C   UNL     1       7.218   5.506  15.451  0.00  0.00    +0.000 A 
ATOM     14  C   UNL     1       6.543   4.652  14.576  0.00  0.00    +0.000 A 
ATOM     15  C   UNL     1       5.528   3.823  15.052  0.00  0.00    +0.000 A 
ATOM     16  C   UNL     1       5.165   3.867  16.400  0.00  0.00    +0.000 A 
ENDBRANCH   8  11
ENDBRANCH   1   8
BRANCH   1  17
ATOM     17  C   UNL     1       3.479   6.517  18.102  0.00  0.00    +0.000 C 
BRANCH  17  19
ATOM     18  O   UNL     1       2.327   7.594  19.886  0.00  0.00    +0.000 OA
ATOM     19  C   UNL     1       2.602   7.621  18.687  0.00  0.00    +0.000 C 
ATOM     20  N   UNL     1       2.104   8.542  17.768  0.00  0.00    +0.000 N 
ATOM     21  H   UNL     1       2.278   8.358  16.786  0.00  0.00    +0.000 HD
BRANCH  20  22
ATOM     22  C   UNL     1       1.293   9.672  18.079  0.00  0.00    +0.000 A 
ATOM     23  C   UNL     1       1.828  10.903  18.472  0.00  0.00    +0.000 A 
ATOM     24  C   UNL     1       1.000  11.991  18.765  0.00  0.00    +0.000 A 
ATOM     25  C   UNL     1      -0.374  11.853  18.670  0.00  0.00    +0.000 A 
ATOM     26  F   UNL     1      -1.166  12.893  18.959  0.00  0.00    +0.000 F 
ATOM     27  C   UNL     1      -0.933  10.645  18.273  0.00  0.00    +0.000 A 
ATOM     28  C   UNL     1      -0.102   9.555  17.967  0.00  0.00    +0.000 A 
ENDBRANCH  20  22
ENDBRANCH  17  19
ENDBRANCH   1  17
TORSDOF 6
ENDMDL
MODEL 3
REMARK VINA RESULT:      -8.5      0.056      1.315
REMARK  Name = 
REMARK  6 active torsions:
REMARK  status: ('A' for Active; 'I' for Inactive)
REMARK    1  A    between atoms: C_2  and  C_3
REMARK    2  A    between atoms: C_3  and  N_4
REMARK    3  A    between atoms: N_4  and  C_5
REMARK    4  A    between atoms: N_4  and  S_11
REMARK    5  A    between atoms: S_11  and  C_14
REMARK    6  A    between atoms: N_20  and  C_21
REMARK                            x       y       z     vdW  Elec       q    Type
REMARK                         _______ _______ _______ _____ _____    ______ ____
ROOT
ATOM      1  N   UNL     1       3.775   5.386  19.050  0.00  0.00    +0.000 N 
ENDROOT
BRANCH   1   2
ATOM      2  C   UNL     1       2.687   4.467  19.290  0.00  0.00    +0.000 A 
ATOM      3  C   UNL     1       2.327   4.201  20.612  0.00  0.00    +0.000 A 
ATOM      4  C   UNL     1       1.281   3.322  20.899  0.00  0.00    +0.000 A 
ATOM      5  C   UNL     1       0.601   2.685  19.861  0.00  0.00    +0.000 A 
ATOM      6  C   UNL     1       0.978   2.917  18.539  0.00  0.00    +0.000 A 
ATOM      7  C   UNL     1       2.024   3.801  18.252  0.00  0.00    +0.000 A 
ENDBRANCH   1   2
BRANCH   1   8
ATOM      8  S   UNL     1       5.347   4.704  19.007  0.00  0.00    +0.000 S 
ATOM      9  O   UNL     1       6.247   5.637  19.657  0.00  0.00    +0.000 OA
ATOM     10  O   UNL     1       5.266   3.335  19.475  0.00  0.00    +0.000 OA
BRANCH   8  11
ATOM     11  C   UNL     1       5.802   4.651  17.281  0.00  0.00    +0.000 A 
ATOM     12  C   UNL     1       5.006   3.961  16.361  0.00  0.00    +0.000 A 
ATOM     13  C   UNL     1       5.364   3.952  15.009  0.00  0.00    +0.000 A 
ATOM     14  C   UNL     1       6.492   4.653  14.577  0.00  0.00    +0.000 A 
ATOM     15  C   UNL     1       7.252   5.385  15.488  0.00  0.00    +0.000 A 
ATOM     16  C   UNL     1       6.903   5.394  16.840  0.00  0.00    +0.000 A 
ENDBRANCH   8  11
ENDBRANCH   1   8
BRANCH   1  17
ATOM     17  C   UNL     1       3.532   6.513  18.119  0.00  0.00    +0.000 C 
BRANCH  17  19
ATOM     18  O   UNL     1       2.291   7.540  19.873  0.00  0.00    +0.000 OA
ATOM     19  C   UNL     1       2.628   7.602  18.692  0.00  0.00    +0.000 C 
ATOM     20  N   UNL     1       2.180   8.553  17.776  0.00  0.00    +0.000 N 
ATOM     21  H   UNL     1       2.404   8.398  16.799  0.00  0.00    +0.000 HD
BRANCH  20  22
ATOM     22  C   UNL     1       1.357   9.675  18.080  0.00  0.00    +0.000 A 
ATOM     23  C   UNL     1       1.877  10.920  18.448  0.00  0.00    +0.000 A 
ATOM     24  C   UNL     1       1.038  12.000  18.734  0.00  0.00    +0.000 A 
ATOM     25  C   UNL     1      -0.336  11.840  18.656  0.00  0.00    +0.000 A 
ATOM     26  F   UNL     1      -1.140  12.873  18.939  0.00  0.00    +0.000 F 
ATOM     27  C   UNL     1      -0.881  10.619  18.284  0.00  0.00    +0.000 A 
ATOM     28  C   UNL     1      -0.038   9.537  17.985  0.00  0.00    +0.000 A 
ENDBRANCH  20  22
ENDBRANCH  17  19
ENDBRANCH   1  17
TORSDOF 6
ENDMDL
MODEL 4
REMARK VINA RESULT:      -8.5      1.757      1.812
REMARK  Name = 
REMARK  6 active torsions:
REMARK  status: ('A' for Active; 'I' for Inactive)
REMARK    1  A    between atoms: C_2  and  C_3
REMARK    2  A    between atoms: C_3  and  N_4
REMARK    3  A    between atoms: N_4  and  C_5
REMARK    4  A    between atoms: N_4  and  S_11
REMARK    5  A    between atoms: S_11  and  C_14
REMARK    6  A    between atoms: N_20  and  C_21
REMARK                            x       y       z     vdW  Elec       q    Type
REMARK                         _______ _______ _______ _____ _____    ______ ____
ROOT
ATOM      1  N   UNL     1       3.832   5.403  19.047  0.00  0.00    +0.000 N 
ENDROOT
BRANCH   1   2
ATOM      2  C   UNL     1       2.723   4.512  19.298  0.00  0.00    +0.000 A 
ATOM      3  C   UNL     1       2.311   4.329  20.619  0.00  0.00    +0.000 A 
ATOM      4  C   UNL     1       1.243   3.480  20.916  0.00  0.00    +0.000 A 
ATOM      5  C   UNL     1       0.594   2.790  19.892  0.00  0.00    +0.000 A 
ATOM      6  C   UNL     1       1.024   2.940  18.574  0.00  0.00    +0.000 A 
ATOM      7  C   UNL     1       2.091   3.793  18.277  0.00  0.00    +0.000 A 
ENDBRANCH   1   2
BRANCH   1   8
ATOM      8  S   UNL     1       5.388   4.685  19.008  0.00  0.00    +0.000 S 
ATOM      9  O   UNL     1       6.300   5.577  19.697  0.00  0.00    +0.000 OA
ATOM     10  O   UNL     1       5.267   3.306  19.435  0.00  0.00    +0.000 OA
BRANCH   8  11
ATOM     11  C   UNL     1       5.867   4.669  17.287  0.00  0.00    +0.000 A 
ATOM     12  C   UNL     1       6.998   5.374  16.862  0.00  0.00    +0.000 A 
ATOM     13  C   UNL     1       7.373   5.328  15.515  0.00  0.00    +0.000 A 
ATOM     14  C   UNL     1       6.639   4.562  14.607  0.00  0.00    +0.000 A 
ATOM     15  C   UNL     1       5.544   3.817  15.045  0.00  0.00    +0.000 A 
ATOM     16  C   UNL     1       5.162   3.861  16.387  0.00  0.00    +0.000 A 
ENDBRANCH   8  11
ENDBRANCH   1   8
BRANCH   1  17
ATOM     17  C   UNL     1       3.613   6.527  18.106  0.00  0.00    +0.000 C 
BRANCH  17  19
ATOM     18  O   UNL     1       1.790   7.989  17.650  0.00  0.00    +0.000 OA
ATOM     19  C   UNL     1       2.486   7.468  18.521  0.00  0.00    +0.000 C 
ATOM     20  N   UNL     1       2.394   7.731  19.887  0.00  0.00    +0.000 N 
ATOM     21  H   UNL     1       3.129   7.361  20.480  0.00  0.00    +0.000 HD
BRANCH  20  22
ATOM     22  C   UNL     1       1.409   8.549  20.512  0.00  0.00    +0.000 A 
ATOM     23  C   UNL     1       0.625   8.107  21.582  0.00  0.00    +0.000 A 
ATOM     24  C   UNL     1      -0.329   8.940  22.174  0.00  0.00    +0.000 A 
ATOM     25  C   UNL     1      -0.506  10.227  21.694  0.00  0.00    +0.000 A 
ATOM     26  F   UNL     1      -1.426  11.022  22.255  0.00  0.00    +0.000 F 
ATOM     27  C   UNL     1       0.265  10.697  20.638  0.00  0.00    +0.000 A 
ATOM     28  C   UNL     1       1.230   9.863  20.052  0.00  0.00    +0.000 A 
ENDBRANCH  20  22
ENDBRANCH  17  19
ENDBRANCH   1  17
TORSDOF 6
ENDMDL
MODEL 5
REMARK VINA RESULT:      -8.5      1.756      2.239
REMARK  Name = 
REMARK  6 active torsions:
REMARK  status: ('A' for Active; 'I' for Inactive)
REMARK    1  A    between atoms: C_2  and  C_3
REMARK    2  A    between atoms: C_3  and  N_4
REMARK    3  A    between atoms: N_4  and  C_5
REMARK    4  A    between atoms: N_4  and  S_11
REMARK    5  A    between atoms: S_11  and  C_14
REMARK    6  A    between atoms: N_20  and  C_21
REMARK                            x       y       z     vdW  Elec       q    Type
REMARK                         _______ _______ _______ _____ _____    ______ ____
ROOT
ATOM      1  N   UNL     1       3.851   5.402  19.074  0.00  0.00    +0.000 N 
ENDROOT
BRANCH   1   2
ATOM      2  C   UNL     1       2.751   4.505  19.338  0.00  0.00    +0.000 A 
ATOM      3  C   UNL     1       2.147   3.865  18.253  0.00  0.00    +0.000 A 
ATOM      4  C   UNL     1       1.081   2.987  18.453  0.00  0.00    +0.000 A 
ATOM      5  C   UNL     1       0.595   2.760  19.741  0.00  0.00    +0.000 A 
ATOM      6  C   UNL     1       1.169   3.423  20.825  0.00  0.00    +0.000 A 
ATOM      7  C   UNL     1       2.240   4.300  20.625  0.00  0.00    +0.000 A 
ENDBRANCH   1   2
BRANCH   1   8
ATOM      8  S   UNL     1       5.413   4.696  19.041  0.00  0.00    +0.000 S 
ATOM      9  O   UNL     1       6.324   5.619  19.690  0.00  0.00    +0.000 OA
ATOM     10  O   UNL     1       5.309   3.331  19.515  0.00  0.00    +0.000 OA
BRANCH   8  11
ATOM     11  C   UNL     1       5.873   4.628  17.317  0.00  0.00    +0.000 A 
ATOM     12  C   UNL     1       5.124   3.867  16.414  0.00  0.00    +0.000 A 
ATOM     13  C   UNL     1       5.484   3.846  15.063  0.00  0.00    +0.000 A 
ATOM     14  C   UNL     1       6.568   4.605  14.614  0.00  0.00    +0.000 A 
ATOM     15  C   UNL     1       7.279   5.405  15.507  0.00  0.00    +0.000 A 
ATOM     16  C   UNL     1       6.928   5.427  16.858  0.00  0.00    +0.000 A 
ENDBRANCH   8  11
ENDBRANCH   1   8
BRANCH   1  17
ATOM     17  C   UNL     1       3.622   6.513  18.120  0.00  0.00    +0.000 C 
BRANCH  17  19
ATOM     18  O   UNL     1       1.795   7.968  17.655  0.00  0.00    +0.000 OA
ATOM     19  C   UNL     1       2.492   7.453  18.529  0.00  0.00    +0.000 C 
ATOM     20  N   UNL     1       2.399   7.723  19.894  0.00  0.00    +0.000 N 
ATOM     21  H   UNL     1       3.134   7.359  20.489  0.00  0.00    +0.000 HD
BRANCH  20  22
ATOM     22  C   UNL     1       1.411   8.542  20.513  0.00  0.00    +0.000 A 
ATOM     23  C   UNL     1       0.634   8.108  21.592  0.00  0.00    +0.000 A 
ATOM     24  C   UNL     1      -0.322   8.942  22.177  0.00  0.00    +0.000 A 
ATOM     25  C   UNL     1      -0.510  10.222  21.684  0.00  0.00    +0.000 A 
ATOM     26  F   UNL     1      -1.432  11.018  22.240  0.00  0.00    +0.000 F 
ATOM     27  C   UNL     1       0.254  10.684  20.620  0.00  0.00    +0.000 A 
ATOM     28  C   UNL     1       1.223   9.850  20.039  0.00  0.00    +0.000 A 
ENDBRANCH  20  22
ENDBRANCH  17  19
ENDBRANCH   1  17
TORSDOF 6
ENDMDL
MODEL 6
REMARK VINA RESULT:      -8.3      1.730      2.070
REMARK  Name = 
REMARK  6 active torsions:
REMARK  status: ('A' for Active; 'I' for Inactive)
REMARK    1  A    between atoms: C_2  and  C_3
REMARK    2  A    between atoms: C_3  and  N_4
REMARK    3  A    between atoms: N_4  and  C_5
REMARK    4  A    between atoms: N_4  and  S_11
REMARK    5  A    between atoms: S_11  and  C_14
REMARK    6  A    between atoms: N_20  and  C_21
REMARK                            x       y       z     vdW  Elec       q    Type
REMARK                         _______ _______ _______ _____ _____    ______ ____
ROOT
ATOM      1  N   UNL     1       3.771   5.401  18.977  0.00  0.00    +0.000 N 
ENDROOT
BRANCH   1   2
ATOM      2  C   UNL     1       2.705   4.488  19.317  0.00  0.00    +0.000 A 
ATOM      3  C   UNL     1       2.032   3.843  18.278  0.00  0.00    +0.000 A 
ATOM      4  C   UNL     1       0.995   2.949  18.553  0.00  0.00    +0.000 A 
ATOM      5  C   UNL     1       0.610   2.712  19.873  0.00  0.00    +0.000 A 
ATOM      6  C   UNL     1       1.253   3.380  20.914  0.00  0.00    +0.000 A 
ATOM      7  C   UNL     1       2.295   4.273  20.638  0.00  0.00    +0.000 A 
ENDBRANCH   1   2
BRANCH   1   8
ATOM      8  S   UNL     1       5.357   4.750  18.977  0.00  0.00    +0.000 S 
ATOM      9  O   UNL     1       6.223   5.707  19.638  0.00  0.00    +0.000 OA
ATOM     10  O   UNL     1       5.291   3.385  19.457  0.00  0.00    +0.000 OA
BRANCH   8  11
ATOM     11  C   UNL     1       5.852   4.689  17.262  0.00  0.00    +0.000 A 
ATOM     12  C   UNL     1       6.981   5.391  16.827  0.00  0.00    +0.000 A 
ATOM     13  C   UNL     1       7.368   5.310  15.485  0.00  0.00    +0.000 A 
ATOM     14  C   UNL     1       6.650   4.510  14.594  0.00  0.00    +0.000 A 
ATOM     15  C   UNL     1       5.558   3.768  15.044  0.00  0.00    +0.000 A 
ATOM     16  C   UNL     1       5.163   3.848  16.380  0.00  0.00    +0.000 A 
ENDBRANCH   8  11
ENDBRANCH   1   8
BRANCH   1  17
ATOM     17  C   UNL     1       3.494   6.430  17.946  0.00  0.00    +0.000 C 
BRANCH  17  19
ATOM     18  O   UNL     1       2.752   8.690  17.824  0.00  0.00    +0.000 OA
ATOM     19  C   UNL     1       2.740   7.647  18.477  0.00  0.00    +0.000 C 
ATOM     20  N   UNL     1       2.159   7.492  19.735  0.00  0.00    +0.000 N 
ATOM     21  H   UNL     1       2.360   6.633  20.235  0.00  0.00    +0.000 HD
BRANCH  20  22
ATOM     22  C   UNL     1       1.384   8.472  20.418  0.00  0.00    +0.000 A 
ATOM     23  C   UNL     1       1.303   8.537  21.813  0.00  0.00    +0.000 A 
ATOM     24  C   UNL     1       0.535   9.517  22.449  0.00  0.00    +0.000 A 
ATOM     25  C   UNL     1      -0.162  10.442  21.689  0.00  0.00    +0.000 A 
ATOM     26  F   UNL     1      -0.904  11.375  22.299  0.00  0.00    +0.000 F 
ATOM     27  C   UNL     1      -0.093  10.408  20.303  0.00  0.00    +0.000 A 
ATOM     28  C   UNL     1       0.688   9.431  19.664  0.00  0.00    +0.000 A 
ENDBRANCH  20  22
ENDBRANCH  17  19
ENDBRANCH   1  17
TORSDOF 6
ENDMDL
MODEL 7
REMARK VINA RESULT:      -8.2      1.708      2.050
REMARK  Name = 
REMARK  6 active torsions:
REMARK  status: ('A' for Active; 'I' for Inactive)
REMARK    1  A    between atoms: C_2  and  C_3
REMARK    2  A    between atoms: C_3  and  N_4
REMARK    3  A    between atoms: N_4  and  C_5
REMARK    4  A    between atoms: N_4  and  S_11
REMARK    5  A    between atoms: S_11  and  C_14
REMARK    6  A    between atoms: N_20  and  C_21
REMARK                            x       y       z     vdW  Elec       q    Type
REMARK                         _______ _______ _______ _____ _____    ______ ____
ROOT
ATOM      1  N   UNL     1       3.731   5.343  18.954  0.00  0.00    +0.000 N 
ENDROOT
BRANCH   1   2
ATOM      2  C   UNL     1       2.659   4.424  19.257  0.00  0.00    +0.000 A 
ATOM      3  C   UNL     1       2.319   4.227  20.597  0.00  0.00    +0.000 A 
ATOM      4  C   UNL     1       1.289   3.351  20.945  0.00  0.00    +0.000 A 
ATOM      5  C   UNL     1       0.607   2.646  19.952  0.00  0.00    +0.000 A 
ATOM      6  C   UNL     1       0.966   2.810  18.615  0.00  0.00    +0.000 A 
ATOM      7  C   UNL     1       1.995   3.691  18.267  0.00  0.00    +0.000 A 
ENDBRANCH   1   2
BRANCH   1   8
ATOM      8  S   UNL     1       5.318   4.698  18.996  0.00  0.00    +0.000 S 
ATOM      9  O   UNL     1       6.170   5.672  19.653  0.00  0.00    +0.000 OA
ATOM     10  O   UNL     1       5.249   3.343  19.503  0.00  0.00    +0.000 OA
BRANCH   8  11
ATOM     11  C   UNL     1       5.845   4.603  17.292  0.00  0.00    +0.000 A 
ATOM     12  C   UNL     1       5.092   3.884  16.358  0.00  0.00    +0.000 A 
ATOM     13  C   UNL     1       5.506   3.843  15.023  0.00  0.00    +0.000 A 
ATOM     14  C   UNL     1       6.648   4.539  14.620  0.00  0.00    +0.000 A 
ATOM     15  C   UNL     1       7.365   5.300  15.543  0.00  0.00    +0.000 A 
ATOM     16  C   UNL     1       6.960   5.342  16.878  0.00  0.00    +0.000 A 
ENDBRANCH   8  11
ENDBRANCH   1   8
BRANCH   1  17
ATOM     17  C   UNL     1       3.480   6.378  17.923  0.00  0.00    +0.000 C 
BRANCH  17  19
ATOM     18  O   UNL     1       2.821   8.664  17.813  0.00  0.00    +0.000 OA
ATOM     19  C   UNL     1       2.760   7.615  18.453  0.00  0.00    +0.000 C 
ATOM     20  N   UNL     1       2.148   7.466  19.697  0.00  0.00    +0.000 N 
ATOM     21  H   UNL     1       2.308   6.595  20.191  0.00  0.00    +0.000 HD
BRANCH  20  22
ATOM     22  C   UNL     1       1.394   8.466  20.377  0.00  0.00    +0.000 A 
ATOM     23  C   UNL     1       1.287   8.517  21.770  0.00  0.00    +0.000 A 
ATOM     24  C   UNL     1       0.542   9.517  22.403  0.00  0.00    +0.000 A 
ATOM     25  C   UNL     1      -0.106  10.475  21.641  0.00  0.00    +0.000 A 
ATOM     26  F   UNL     1      -0.827  11.427  22.247  0.00  0.00    +0.000 F 
ATOM     27  C   UNL     1      -0.009  10.455  20.256  0.00  0.00    +0.000 A 
ATOM     28  C   UNL     1       0.749   9.458  19.621  0.00  0.00    +0.000 A 
ENDBRANCH  20  22
ENDBRANCH  17  19
ENDBRANCH   1  17
TORSDOF 6
ENDMDL
MODEL 8
REMARK VINA RESULT:      -8.2      1.955      4.514
REMARK  Name = 
REMARK  6 active torsions:
REMARK  status: ('A' for Active; 'I' for Inactive)
REMARK    1  A    between atoms: C_2  and  C_3
REMARK    2  A    between atoms: C_3  and  N_4
REMARK    3  A    between atoms: N_4  and  C_5
REMARK    4  A    between atoms: N_4  and  S_11
REMARK    5  A    between atoms: S_11  and  C_14
REMARK    6  A    between atoms: N_20  and  C_21
REMARK                            x       y       z     vdW  Elec       q    Type
REMARK                         _______ _______ _______ _____ _____    ______ ____
ROOT
ATOM      1  N   UNL     1       3.271   5.914  18.019  0.00  0.00    +0.000 N 
ENDROOT
BRANCH   1   2
ATOM      2  C   UNL     1       4.715   5.954  18.013  0.00  0.00    +0.000 A 
ATOM      3  C   UNL     1       5.391   5.508  19.150  0.00  0.00    +0.000 A 
ATOM      4  C   UNL     1       6.787   5.523  19.196  0.00  0.00    +0.000 A 
ATOM      5  C   UNL     1       7.515   6.008  18.109  0.00  0.00    +0.000 A 
ATOM      6  C   UNL     1       6.846   6.489  16.985  0.00  0.00    +0.000 A 
ATOM      7  C   UNL     1       5.448   6.470  16.938  0.00  0.00    +0.000 A 
ENDBRANCH   1   2
BRANCH   1   8
ATOM      8  S   UNL     1       2.554   4.391  17.696  0.00  0.00    +0.000 S 
ATOM      9  O   UNL     1       1.211   4.634  17.204  0.00  0.00    +0.000 OA
ATOM     10  O   UNL     1       3.480   3.606  16.905  0.00  0.00    +0.000 OA
BRANCH   8  11
ATOM     11  C   UNL     1       2.395   3.587  19.283  0.00  0.00    +0.000 A 
ATOM     12  C   UNL     1       3.501   2.971  19.877  0.00  0.00    +0.000 A 
ATOM     13  C   UNL     1       3.364   2.369  21.133  0.00  0.00    +0.000 A 
ATOM     14  C   UNL     1       2.138   2.411  21.801  0.00  0.00    +0.000 A 
ATOM     15  C   UNL     1       1.052   3.074  21.230  0.00  0.00    +0.000 A 
ATOM     16  C   UNL     1       1.181   3.672  19.975  0.00  0.00    +0.000 A 
ENDBRANCH   8  11
ENDBRANCH   1   8
BRANCH   1  17
ATOM     17  C   UNL     1       2.562   6.769  19.000  0.00  0.00    +0.000 C 
BRANCH  17  19
ATOM     18  O   UNL     1       2.491   8.443  17.308  0.00  0.00    +0.000 OA
ATOM     19  C   UNL     1       2.134   8.123  18.441  0.00  0.00    +0.000 C 
ATOM     20  N   UNL     1       1.428   8.940  19.323  0.00  0.00    +0.000 N 
ATOM     21  H   UNL     1       1.338   8.620  20.281  0.00  0.00    +0.000 HD
BRANCH  20  22
ATOM     22  C   UNL     1       0.900  10.229  19.020  0.00  0.00    +0.000 A 
ATOM     23  C   UNL     1       1.694  11.379  18.967  0.00  0.00    +0.000 A 
ATOM     24  C   UNL     1       1.141  12.626  18.662  0.00  0.00    +0.000 A 
ATOM     25  C   UNL     1      -0.217  12.731  18.409  0.00  0.00    +0.000 A 
ATOM     26  F   UNL     1      -0.747  13.927  18.125  0.00  0.00    +0.000 F 
ATOM     27  C   UNL     1      -1.028  11.604  18.446  0.00  0.00    +0.000 A 
ATOM     28  C   UNL     1      -0.471  10.350  18.741  0.00  0.00    +0.000 A 
ENDBRANCH  20  22
ENDBRANCH  17  19
ENDBRANCH   1  17
TORSDOF 6
ENDMDL
MODEL 9
REMARK VINA RESULT:      -8.0      2.243      4.786
REMARK  Name = 
REMARK  6 active torsions:
REMARK  status: ('A' for Active; 'I' for Inactive)
REMARK    1  A    between atoms: C_2  and  C_3
REMARK    2  A    between atoms: C_3  and  N_4
REMARK    3  A    between atoms: N_4  and  C_5
REMARK    4  A    between atoms: N_4  and  S_11
REMARK    5  A    between atoms: S_11  and  C_14
REMARK    6  A    between atoms: N_20  and  C_21
REMARK                            x       y       z     vdW  Elec       q    Type
REMARK                         _______ _______ _______ _____ _____    ______ ____
ROOT
ATOM      1  N   UNL     1       3.556   5.213  17.657  0.00  0.00    +0.000 N 
ENDROOT
BRANCH   1   2
ATOM      2  C   UNL     1       4.806   5.044  16.953  0.00  0.00    +0.000 A 
ATOM      3  C   UNL     1       5.932   4.672  17.689  0.00  0.00    +0.000 A 
ATOM      4  C   UNL     1       7.164   4.493  17.057  0.00  0.00    +0.000 A 
ATOM      5  C   UNL     1       7.281   4.708  15.683  0.00  0.00    +0.000 A 
ATOM      6  C   UNL     1       6.169   5.115  14.948  0.00  0.00    +0.000 A 
ATOM      7  C   UNL     1       4.934   5.291  15.581  0.00  0.00    +0.000 A 
ENDBRANCH   1   2
BRANCH   1   8
ATOM      8  S   UNL     1       2.465   3.893  17.592  0.00  0.00    +0.000 S 
ATOM      9  O   UNL     1       1.164   4.418  17.224  0.00  0.00    +0.000 OA
ATOM     10  O   UNL     1       3.067   2.839  16.801  0.00  0.00    +0.000 OA
BRANCH   8  11
ATOM     11  C   UNL     1       2.335   3.293  19.269  0.00  0.00    +0.000 A 
ATOM     12  C   UNL     1       3.433   2.690  19.891  0.00  0.00    +0.000 A 
ATOM     13  C   UNL     1       3.321   2.250  21.214  0.00  0.00    +0.000 A 
ATOM     14  C   UNL     1       2.129   2.438  21.918  0.00  0.00    +0.000 A 
ATOM     15  C   UNL     1       1.054   3.089  21.312  0.00  0.00    +0.000 A 
ATOM     16  C   UNL     1       1.158   3.526  19.991  0.00  0.00    +0.000 A 
ENDBRANCH   8  11
ENDBRANCH   1   8
BRANCH   1  17
ATOM     17  C   UNL     1       3.580   5.972  18.929  0.00  0.00    +0.000 C 
BRANCH  17  19
ATOM     18  O   UNL     1       2.096   7.561  17.958  0.00  0.00    +0.000 OA
ATOM     19  C   UNL     1       2.538   7.086  19.003  0.00  0.00    +0.000 C 
ATOM     20  N   UNL     1       2.234   7.540  20.285  0.00  0.00    +0.000 N 
ATOM     21  H   UNL     1       2.788   7.172  21.051  0.00  0.00    +0.000 HD
BRANCH  20  22
ATOM     22  C   UNL     1       1.276   8.544  20.605  0.00  0.00    +0.000 A 
ATOM     23  C   UNL     1       0.617   8.598  21.837  0.00  0.00    +0.000 A 
ATOM     24  C   UNL     1      -0.315   9.602  22.118  0.00  0.00    +0.000 A 
ATOM     25  C   UNL     1      -0.596  10.563  21.160  0.00  0.00    +0.000 A 
ATOM     26  F   UNL     1      -1.494  11.519  21.426  0.00  0.00    +0.000 F 
ATOM     27  C   UNL     1       0.051  10.541  19.931  0.00  0.00    +0.000 A 
ATOM     28  C   UNL     1       0.994   9.539  19.655  0.00  0.00    +0.000 A 
ENDBRANCH  20  22
ENDBRANCH  17  19
ENDBRANCH   1  17
TORSDOF 6
ENDMDL
