MODEL 1
REMARK VINA RESULT:      -8.1      0.000      0.000
REMARK  Name = 
REMARK  12 active torsions:
REMARK  status: ('A' for Active; 'I' for Inactive)
REMARK    1  A    between atoms: C_1  and  O_2
REMARK    2  A    between atoms: O_2  and  C_3
REMARK    3  A    between atoms: C_3  and  C_5
REMARK    4  A    between atoms: C_8  and  N_9
REMARK    5  A    between atoms: C_10  and  C_11
REMARK    6  A    between atoms: C_13  and  C_14
REMARK    7  A    between atoms: C_14  and  C_16
REMARK    8  A    between atoms: C_16  and  S_17
REMARK    9  A    between atoms: S_17  and  C_18
REMARK   10  A    between atoms: C_18  and  C_19
REMARK   11  A    between atoms: C_23  and  C_24
REMARK   12  A    between atoms: C_26  and  C_27
REMARK                            x       y       z     vdW  Elec       q    Type
REMARK                         _______ _______ _______ _____ _____    ______ ____
ROOT
ATOM      1  N   UNL     1       3.136   6.156  18.835  0.00  0.00    +0.000 N 
ATOM      2  C   UNL     1       2.821   5.336  19.921  0.00  0.00    +0.000 A 
ATOM      3  C   UNL     1       3.405   3.991  20.220  0.00  0.00    +0.000 C 
ATOM      4  C   UNL     1       1.934   6.021  20.730  0.00  0.00    +0.000 A 
ATOM      5  C   UNL     1       1.689   7.298  20.176  0.00  0.00    +0.000 A 
ATOM      6  C   UNL     1       2.432   7.363  18.999  0.00  0.00    +0.000 A 
ATOM      7  C   UNL     1       2.457   8.476  17.992  0.00  0.00    +0.000 C 
ENDROOT
BRANCH   1  11
ATOM      8  C   UNL     1       5.802   5.175  15.672  0.00  0.00    +0.000 A 
ATOM      9  C   UNL     1       4.746   4.321  15.994  0.00  0.00    +0.000 A 
ATOM     10  C   UNL     1       3.841   4.661  17.006  0.00  0.00    +0.000 A 
ATOM     11  C   UNL     1       4.023   5.832  17.755  0.00  0.00    +0.000 A 
ATOM     12  C   UNL     1       5.097   6.673  17.436  0.00  0.00    +0.000 A 
ATOM     13  C   UNL     1       5.968   6.359  16.386  0.00  0.00    +0.000 A 
BRANCH   8  14
ATOM     14  C   UNL     1       6.722   4.776  14.575  0.00  0.00    +0.000 C 
ATOM     15  O   UNL     1       7.733   5.391  14.296  0.00  0.00    +0.000 OA
BRANCH  14  17
ATOM     16  C   UNL     1       6.511   3.667  12.545  0.00  0.00    +0.000 C 
ATOM     17  O   UNL     1       6.266   3.662  13.953  0.00  0.00    +0.000 OA
ENDBRANCH  14  17
ENDBRANCH   8  14
ENDBRANCH   1  11
BRANCH   5  18
ATOM     18  C   UNL     1       0.800   8.357  20.696  0.00  0.00    +0.000 C 
ATOM     19  O   UNL     1      -0.036   8.111  21.561  0.00  0.00    +0.000 OA
BRANCH  18  20
ATOM     20  C   UNL     1       0.913   9.753  20.086  0.00  0.00    +0.000 C 
BRANCH  20  21
ATOM     21  S   UNL     1      -0.431  10.877  20.606  0.00  0.00    +0.000 S 
BRANCH  21  22
ATOM     22  C   UNL     1      -0.580  11.874  19.092  0.00  0.00    +0.000 C 
BRANCH  22  23
ATOM     23  C   UNL     1      -1.877  11.626  18.366  0.00  0.00    +0.000 A 
ATOM     24  C   UNL     1      -3.106  11.966  18.947  0.00  0.00    +0.000 A 
ATOM     25  C   UNL     1      -4.302  11.668  18.297  0.00  0.00    +0.000 A 
ATOM     26  C   UNL     1      -4.287  11.019  17.061  0.00  0.00    +0.000 A 
ATOM     27  C   UNL     1      -3.071  10.686  16.454  0.00  0.00    +0.000 A 
ATOM     28  C   UNL     1      -3.032   9.951  15.147  0.00  0.00    +0.000 C 
ATOM     29  C   UNL     1      -1.872  11.015  17.101  0.00  0.00    +0.000 A 
ENDBRANCH  22  23
ENDBRANCH  21  22
ENDBRANCH  20  21
ENDBRANCH  18  20
ENDBRANCH   5  18
TORSDOF 8
ENDMDL
MODEL 2
REMARK VINA RESULT:      -8.0      0.571      1.065
REMARK  Name = 
REMARK  12 active torsions:
REMARK  status: ('A' for Active; 'I' for Inactive)
REMARK    1  A    between atoms: C_1  and  O_2
REMARK    2  A    between atoms: O_2  and  C_3
REMARK    3  A    between atoms: C_3  and  C_5
REMARK    4  A    between atoms: C_8  and  N_9
REMARK    5  A    between atoms: C_10  and  C_11
REMARK    6  A    between atoms: C_13  and  C_14
REMARK    7  A    between atoms: C_14  and  C_16
REMARK    8  A    between atoms: C_16  and  S_17
REMARK    9  A    between atoms: S_17  and  C_18
REMARK   10  A    between atoms: C_18  and  C_19
REMARK   11  A    between atoms: C_23  and  C_24
REMARK   12  A    between atoms: C_26  and  C_27
REMARK                            x       y       z     vdW  Elec       q    Type
REMARK                         _______ _______ _______ _____ _____    ______ ____
ROOT
ATOM      1  N   UNL     1       3.037   6.175  18.906  0.00  0.00    +0.000 N 
ATOM      2  C   UNL     1       2.617   5.365  19.964  0.00  0.00    +0.000 A 
ATOM      3  C   UNL     1       3.040   3.954  20.228  0.00  0.00    +0.000 C 
ATOM      4  C   UNL     1       1.803   6.123  20.785  0.00  0.00    +0.000 A 
ATOM      5  C   UNL     1       1.712   7.435  20.267  0.00  0.00    +0.000 A 
ATOM      6  C   UNL     1       2.473   7.449  19.100  0.00  0.00    +0.000 A 
ATOM      7  C   UNL     1       2.637   8.580  18.127  0.00  0.00    +0.000 C 
ENDROOT
BRANCH   1  11
ATOM      8  C   UNL     1       5.541   5.031  15.667  0.00  0.00    +0.000 A 
ATOM      9  C   UNL     1       5.737   6.254  16.312  0.00  0.00    +0.000 A 
ATOM     10  C   UNL     1       4.943   6.614  17.406  0.00  0.00    +0.000 A 
ATOM     11  C   UNL     1       3.895   5.783  17.825  0.00  0.00    +0.000 A 
ATOM     12  C   UNL     1       3.696   4.567  17.160  0.00  0.00    +0.000 A 
ATOM     13  C   UNL     1       4.528   4.181  16.102  0.00  0.00    +0.000 A 
BRANCH   8  14
ATOM     14  C   UNL     1       6.428   4.687  14.525  0.00  0.00    +0.000 C 
ATOM     15  O   UNL     1       7.564   5.110  14.413  0.00  0.00    +0.000 OA
BRANCH  14  17
ATOM     16  C   UNL     1       6.555   3.594  12.480  0.00  0.00    +0.000 C 
ATOM     17  O   UNL     1       5.791   3.865  13.657  0.00  0.00    +0.000 OA
ENDBRANCH  14  17
ENDBRANCH   8  14
ENDBRANCH   1  11
BRANCH   5  18
ATOM     18  C   UNL     1       0.943   8.573  20.811  0.00  0.00    +0.000 C 
ATOM     19  O   UNL     1       1.332   9.181  21.805  0.00  0.00    +0.000 OA
BRANCH  18  20
ATOM     20  C   UNL     1      -0.378   8.935  20.134  0.00  0.00    +0.000 C 
BRANCH  20  21
ATOM     21  S   UNL     1      -0.866  10.678  20.393  0.00  0.00    +0.000 S 
BRANCH  21  22
ATOM     22  C   UNL     1      -0.754  11.271  18.677  0.00  0.00    +0.000 C 
BRANCH  22  23
ATOM     23  C   UNL     1      -2.097  11.314  17.996  0.00  0.00    +0.000 A 
ATOM     24  C   UNL     1      -3.241  11.740  18.684  0.00  0.00    +0.000 A 
ATOM     25  C   UNL     1      -4.490  11.710  18.064  0.00  0.00    +0.000 A 
ATOM     26  C   UNL     1      -4.613  11.246  16.754  0.00  0.00    +0.000 A 
ATOM     27  C   UNL     1      -3.482  10.834  16.042  0.00  0.00    +0.000 A 
ATOM     28  C   UNL     1      -3.597  10.293  14.648  0.00  0.00    +0.000 C 
ATOM     29  C   UNL     1      -2.226  10.894  16.662  0.00  0.00    +0.000 A 
ENDBRANCH  22  23
ENDBRANCH  21  22
ENDBRANCH  20  21
ENDBRANCH  18  20
ENDBRANCH   5  18
TORSDOF 8
ENDMDL
MODEL 3
REMARK VINA RESULT:      -8.0      0.692      1.569
REMARK  Name = 
REMARK  12 active torsions:
REMARK  status: ('A' for Active; 'I' for Inactive)
REMARK    1  A    between atoms: C_1  and  O_2
REMARK    2  A    between atoms: O_2  and  C_3
REMARK    3  A    between atoms: C_3  and  C_5
REMARK    4  A    between atoms: C_8  and  N_9
REMARK    5  A    between atoms: C_10  and  C_11
REMARK    6  A    between atoms: C_13  and  C_14
REMARK    7  A    between atoms: C_14  and  C_16
REMARK    8  A    between atoms: C_16  and  S_17
REMARK    9  A    between atoms: S_17  and  C_18
REMARK   10  A    between atoms: C_18  and  C_19
REMARK   11  A    between atoms: C_23  and  C_24
REMARK   12  A    between atoms: C_26  and  C_27
REMARK                            x       y       z     vdW  Elec       q    Type
REMARK                         _______ _______ _______ _____ _____    ______ ____
ROOT
ATOM      1  N   UNL     1       2.977   6.357  19.013  0.00  0.00    +0.000 N 
ATOM      2  C   UNL     1       2.580   5.614  20.127  0.00  0.00    +0.000 A 
ATOM      3  C   UNL     1       3.084   4.262  20.523  0.00  0.00    +0.000 C 
ATOM      4  C   UNL     1       1.694   6.383  20.858  0.00  0.00    +0.000 A 
ATOM      5  C   UNL     1       1.534   7.637  20.227  0.00  0.00    +0.000 A 
ATOM      6  C   UNL     1       2.327   7.603  19.081  0.00  0.00    +0.000 A 
ATOM      7  C   UNL     1       2.447   8.655  18.018  0.00  0.00    +0.000 C 
ENDROOT
BRANCH   1  11
ATOM      8  C   UNL     1       5.653   5.122  15.948  0.00  0.00    +0.000 A 
ATOM      9  C   UNL     1       5.897   6.294  16.668  0.00  0.00    +0.000 A 
ATOM     10  C   UNL     1       5.042   6.681  17.705  0.00  0.00    +0.000 A 
ATOM     11  C   UNL     1       3.892   5.933  17.992  0.00  0.00    +0.000 A 
ATOM     12  C   UNL     1       3.646   4.769  17.252  0.00  0.00    +0.000 A 
ATOM     13  C   UNL     1       4.533   4.353  16.252  0.00  0.00    +0.000 A 
BRANCH   8  14
ATOM     14  C   UNL     1       6.605   4.746  14.870  0.00  0.00    +0.000 C 
ATOM     15  O   UNL     1       7.560   5.432  14.557  0.00  0.00    +0.000 OA
BRANCH  14  17
ATOM     16  C   UNL     1       6.176   3.624  12.883  0.00  0.00    +0.000 C 
ATOM     17  O   UNL     1       6.248   3.566  14.310  0.00  0.00    +0.000 OA
ENDBRANCH  14  17
ENDBRANCH   8  14
ENDBRANCH   1  11
BRANCH   5  18
ATOM     18  C   UNL     1       0.677   8.763  20.650  0.00  0.00    +0.000 C 
ATOM     19  O   UNL     1      -0.514   8.592  20.898  0.00  0.00    +0.000 OA
BRANCH  18  20
ATOM     20  C   UNL     1       1.301  10.156  20.714  0.00  0.00    +0.000 C 
BRANCH  20  21
ATOM     21  S   UNL     1       0.743  11.258  19.366  0.00  0.00    +0.000 S 
BRANCH  21  22
ATOM     22  C   UNL     1      -1.024  11.360  19.784  0.00  0.00    +0.000 C 
BRANCH  22  23
ATOM     23  C   UNL     1      -1.911  11.006  18.618  0.00  0.00    +0.000 A 
ATOM     24  C   UNL     1      -1.467  10.137  17.612  0.00  0.00    +0.000 A 
ATOM     25  C   UNL     1      -2.270   9.872  16.503  0.00  0.00    +0.000 A 
ATOM     26  C   UNL     1      -3.522  10.477  16.382  0.00  0.00    +0.000 A 
ATOM     27  C   UNL     1      -3.992  11.332  17.384  0.00  0.00    +0.000 A 
ATOM     28  C   UNL     1      -5.317  12.025  17.253  0.00  0.00    +0.000 C 
ATOM     29  C   UNL     1      -3.192  11.571  18.508  0.00  0.00    +0.000 A 
ENDBRANCH  22  23
ENDBRANCH  21  22
ENDBRANCH  20  21
ENDBRANCH  18  20
ENDBRANCH   5  18
TORSDOF 8
ENDMDL
MODEL 4
REMARK VINA RESULT:      -8.0      0.609      1.374
REMARK  Name = 
REMARK  12 active torsions:
REMARK  status: ('A' for Active; 'I' for Inactive)
REMARK    1  A    between atoms: C_1  and  O_2
REMARK    2  A    between atoms: O_2  and  C_3
REMARK    3  A    between atoms: C_3  and  C_5
REMARK    4  A    between atoms: C_8  and  N_9
REMARK    5  A    between atoms: C_10  and  C_11
REMARK    6  A    between atoms: C_13  and  C_14
REMARK    7  A    between atoms: C_14  and  C_16
REMARK    8  A    between atoms: C_16  and  S_17
REMARK    9  A    between atoms: S_17  and  C_18
REMARK   10  A    between atoms: C_18  and  C_19
REMARK   11  A    between atoms: C_23  and  C_24
REMARK   12  A    between atoms: C_26  and  C_27
REMARK                            x       y       z     vdW  Elec       q    Type
REMARK                         _______ _______ _______ _____ _____    ______ ____
ROOT
ATOM      1  N   UNL     1       3.056   6.225  18.930  0.00  0.00    +0.000 N 
ATOM      2  C   UNL     1       2.648   5.384  19.968  0.00  0.00    +0.000 A 
ATOM      3  C   UNL     1       3.091   3.974  20.201  0.00  0.00    +0.000 C 
ATOM      4  C   UNL     1       1.822   6.111  20.806  0.00  0.00    +0.000 A 
ATOM      5  C   UNL     1       1.712   7.433  20.318  0.00  0.00    +0.000 A 
ATOM      6  C   UNL     1       2.474   7.485  19.152  0.00  0.00    +0.000 A 
ATOM      7  C   UNL     1       2.621   8.640  18.206  0.00  0.00    +0.000 C 
ENDROOT
BRANCH   1  11
ATOM      8  C   UNL     1       5.661   5.163  15.742  0.00  0.00    +0.000 A 
ATOM      9  C   UNL     1       4.724   4.246  16.222  0.00  0.00    +0.000 A 
ATOM     10  C   UNL     1       3.837   4.606  17.242  0.00  0.00    +0.000 A 
ATOM     11  C   UNL     1       3.922   5.870  17.841  0.00  0.00    +0.000 A 
ATOM     12  C   UNL     1       4.877   6.777  17.365  0.00  0.00    +0.000 A 
ATOM     13  C   UNL     1       5.726   6.434  16.306  0.00  0.00    +0.000 A 
BRANCH   8  14
ATOM     14  C   UNL     1       6.565   4.736  14.643  0.00  0.00    +0.000 C 
ATOM     15  O   UNL     1       7.561   5.356  14.321  0.00  0.00    +0.000 OA
BRANCH  14  17
ATOM     16  C   UNL     1       6.212   3.601  12.647  0.00  0.00    +0.000 C 
ATOM     17  O   UNL     1       6.116   3.592  14.074  0.00  0.00    +0.000 OA
ENDBRANCH  14  17
ENDBRANCH   8  14
ENDBRANCH   1  11
BRANCH   5  18
ATOM     18  C   UNL     1       0.925   8.547  20.886  0.00  0.00    +0.000 C 
ATOM     19  O   UNL     1       0.903   8.751  22.098  0.00  0.00    +0.000 OA
BRANCH  18  20
ATOM     20  C   UNL     1       0.095   9.401  19.930  0.00  0.00    +0.000 C 
BRANCH  20  21
ATOM     21  S   UNL     1       0.399  11.193  20.115  0.00  0.00    +0.000 S 
BRANCH  21  22
ATOM     22  C   UNL     1      -0.191  11.760  18.492  0.00  0.00    +0.000 C 
BRANCH  22  23
ATOM     23  C   UNL     1      -1.587  11.281  18.188  0.00  0.00    +0.000 A 
ATOM     24  C   UNL     1      -1.810  10.246  17.270  0.00  0.00    +0.000 A 
ATOM     25  C   UNL     1      -3.109   9.858  16.945  0.00  0.00    +0.000 A 
ATOM     26  C   UNL     1      -4.202  10.504  17.526  0.00  0.00    +0.000 A 
ATOM     27  C   UNL     1      -4.002  11.527  18.459  0.00  0.00    +0.000 A 
ATOM     28  C   UNL     1      -5.161  12.262  19.064  0.00  0.00    +0.000 C 
ATOM     29  C   UNL     1      -2.693  11.891  18.802  0.00  0.00    +0.000 A 
ENDBRANCH  22  23
ENDBRANCH  21  22
ENDBRANCH  20  21
ENDBRANCH  18  20
ENDBRANCH   5  18
TORSDOF 8
ENDMDL
MODEL 5
REMARK VINA RESULT:      -7.9      2.841      9.332
REMARK  Name = 
REMARK  12 active torsions:
REMARK  status: ('A' for Active; 'I' for Inactive)
REMARK    1  A    between atoms: C_1  and  O_2
REMARK    2  A    between atoms: O_2  and  C_3
REMARK    3  A    between atoms: C_3  and  C_5
REMARK    4  A    between atoms: C_8  and  N_9
REMARK    5  A    between atoms: C_10  and  C_11
REMARK    6  A    between atoms: C_13  and  C_14
REMARK    7  A    between atoms: C_14  and  C_16
REMARK    8  A    between atoms: C_16  and  S_17
REMARK    9  A    between atoms: S_17  and  C_18
REMARK   10  A    between atoms: C_18  and  C_19
REMARK   11  A    between atoms: C_23  and  C_24
REMARK   12  A    between atoms: C_26  and  C_27
REMARK                            x       y       z     vdW  Elec       q    Type
REMARK                         _______ _______ _______ _____ _____    ______ ____
ROOT
ATOM      1  N   UNL     1       3.523   6.067  18.227  0.00  0.00    +0.000 N 
ATOM      2  C   UNL     1       3.089   4.743  18.136  0.00  0.00    +0.000 A 
ATOM      3  C   UNL     1       1.683   4.253  18.287  0.00  0.00    +0.000 C 
ATOM      4  C   UNL     1       4.175   3.960  17.795  0.00  0.00    +0.000 A 
ATOM      5  C   UNL     1       5.313   4.784  17.642  0.00  0.00    +0.000 A 
ATOM      6  C   UNL     1       4.896   6.084  17.922  0.00  0.00    +0.000 A 
ATOM      7  C   UNL     1       5.739   7.323  17.983  0.00  0.00    +0.000 C 
ENDROOT
BRANCH   1  11
ATOM      8  C   UNL     1       1.080   9.412  19.186  0.00  0.00    +0.000 A 
ATOM      9  C   UNL     1       1.384   8.458  20.160  0.00  0.00    +0.000 A 
ATOM     10  C   UNL     1       2.222   7.380  19.859  0.00  0.00    +0.000 A 
ATOM     11  C   UNL     1       2.713   7.205  18.558  0.00  0.00    +0.000 A 
ATOM     12  C   UNL     1       2.388   8.158  17.584  0.00  0.00    +0.000 A 
ATOM     13  C   UNL     1       1.596   9.267  17.901  0.00  0.00    +0.000 A 
BRANCH   8  14
ATOM     14  C   UNL     1       0.202  10.550  19.565  0.00  0.00    +0.000 C 
ATOM     15  O   UNL     1      -0.250  10.697  20.684  0.00  0.00    +0.000 OA
BRANCH  14  17
ATOM     16  C   UNL     1      -1.383  11.730  18.345  0.00  0.00    +0.000 C 
ATOM     17  O   UNL     1      -0.011  11.363  18.502  0.00  0.00    +0.000 OA
ENDBRANCH  14  17
ENDBRANCH   8  14
ENDBRANCH   1  11
BRANCH   5  18
ATOM     18  C   UNL     1       6.690   4.376  17.295  0.00  0.00    +0.000 C 
ATOM     19  O   UNL     1       7.578   4.365  18.143  0.00  0.00    +0.000 OA
BRANCH  18  20
ATOM     20  C   UNL     1       6.989   4.022  15.839  0.00  0.00    +0.000 C 
BRANCH  20  21
ATOM     21  S   UNL     1       6.182   5.145  14.645  0.00  0.00    +0.000 S 
BRANCH  21  22
ATOM     22  C   UNL     1       7.122   4.709  13.151  0.00  0.00    +0.000 C 
BRANCH  22  23
ATOM     23  C   UNL     1       6.453   3.623  12.347  0.00  0.00    +0.000 A 
ATOM     24  C   UNL     1       7.173   2.505  11.906  0.00  0.00    +0.000 A 
ATOM     25  C   UNL     1       6.562   1.542  11.104  0.00  0.00    +0.000 A 
ATOM     26  C   UNL     1       5.226   1.688  10.727  0.00  0.00    +0.000 A 
ATOM     27  C   UNL     1       4.483   2.787  11.171  0.00  0.00    +0.000 A 
ATOM     28  C   UNL     1       3.059   2.984  10.744  0.00  0.00    +0.000 C 
ATOM     29  C   UNL     1       5.097   3.735  12.000  0.00  0.00    +0.000 A 
ENDBRANCH  22  23
ENDBRANCH  21  22
ENDBRANCH  20  21
ENDBRANCH  18  20
ENDBRANCH   5  18
TORSDOF 8
ENDMDL
MODEL 6
REMARK VINA RESULT:      -7.9      2.899      9.448
REMARK  Name = 
REMARK  12 active torsions:
REMARK  status: ('A' for Active; 'I' for Inactive)
REMARK    1  A    between atoms: C_1  and  O_2
REMARK    2  A    between atoms: O_2  and  C_3
REMARK    3  A    between atoms: C_3  and  C_5
REMARK    4  A    between atoms: C_8  and  N_9
REMARK    5  A    between atoms: C_10  and  C_11
REMARK    6  A    between atoms: C_13  and  C_14
REMARK    7  A    between atoms: C_14  and  C_16
REMARK    8  A    between atoms: C_16  and  S_17
REMARK    9  A    between atoms: S_17  and  C_18
REMARK   10  A    between atoms: C_18  and  C_19
REMARK   11  A    between atoms: C_23  and  C_24
REMARK   12  A    between atoms: C_26  and  C_27
REMARK                            x       y       z     vdW  Elec       q    Type
REMARK                         _______ _______ _______ _____ _____    ______ ____
ROOT
ATOM      1  N   UNL     1       3.334   5.922  18.127  0.00  0.00    +0.000 N 
ATOM      2  C   UNL     1       2.908   4.593  18.082  0.00  0.00    +0.000 A 
ATOM      3  C   UNL     1       1.544   4.082  18.428  0.00  0.00    +0.000 C 
ATOM      4  C   UNL     1       3.943   3.829  17.576  0.00  0.00    +0.000 A 
ATOM      5  C   UNL     1       5.037   4.671  17.272  0.00  0.00    +0.000 A 
ATOM      6  C   UNL     1       4.648   5.962  17.628  0.00  0.00    +0.000 A 
ATOM      7  C   UNL     1       5.477   7.211  17.584  0.00  0.00    +0.000 C 
ENDROOT
BRANCH   1  11
ATOM      8  C   UNL     1       1.111   9.272  19.510  0.00  0.00    +0.000 A 
ATOM      9  C   UNL     1       1.478   9.175  18.166  0.00  0.00    +0.000 A 
ATOM     10  C   UNL     1       2.172   8.054  17.699  0.00  0.00    +0.000 A 
ATOM     11  C   UNL     1       2.568   7.045  18.588  0.00  0.00    +0.000 A 
ATOM     12  C   UNL     1       2.211   7.160  19.937  0.00  0.00    +0.000 A 
ATOM     13  C   UNL     1       1.467   8.255  20.392  0.00  0.00    +0.000 A 
BRANCH   8  14
ATOM     14  C   UNL     1       0.356  10.474  19.949  0.00  0.00    +0.000 C 
ATOM     15  O   UNL     1       0.811  11.304  20.713  0.00  0.00    +0.000 OA
BRANCH  14  17
ATOM     16  C   UNL     1      -1.231  11.775  18.861  0.00  0.00    +0.000 C 
ATOM     17  O   UNL     1      -0.876  10.494  19.387  0.00  0.00    +0.000 OA
ENDBRANCH  14  17
ENDBRANCH   8  14
ENDBRANCH   1  11
BRANCH   5  18
ATOM     18  C   UNL     1       6.353   4.285  16.724  0.00  0.00    +0.000 C 
ATOM     19  O   UNL     1       7.353   4.266  17.438  0.00  0.00    +0.000 OA
BRANCH  18  20
ATOM     20  C   UNL     1       6.445   3.968  15.233  0.00  0.00    +0.000 C 
BRANCH  20  21
ATOM     21  S   UNL     1       6.738   5.446  14.198  0.00  0.00    +0.000 S 
BRANCH  21  22
ATOM     22  C   UNL     1       7.591   4.659  12.798  0.00  0.00    +0.000 C 
BRANCH  22  23
ATOM     23  C   UNL     1       6.770   3.565  12.166  0.00  0.00    +0.000 A 
ATOM     24  C   UNL     1       7.369   2.377  11.727  0.00  0.00    +0.000 A 
ATOM     25  C   UNL     1       6.611   1.401  11.080  0.00  0.00    +0.000 A 
ATOM     26  C   UNL     1       5.248   1.603  10.858  0.00  0.00    +0.000 A 
ATOM     27  C   UNL     1       4.626   2.774  11.305  0.00  0.00    +0.000 A 
ATOM     28  C   UNL     1       3.172   3.030  11.039  0.00  0.00    +0.000 C 
ATOM     29  C   UNL     1       5.389   3.737  11.979  0.00  0.00    +0.000 A 
ENDBRANCH  22  23
ENDBRANCH  21  22
ENDBRANCH  20  21
ENDBRANCH  18  20
ENDBRANCH   5  18
TORSDOF 8
ENDMDL
MODEL 7
REMARK VINA RESULT:      -7.8      3.404      9.741
REMARK  Name = 
REMARK  12 active torsions:
REMARK  status: ('A' for Active; 'I' for Inactive)
REMARK    1  A    between atoms: C_1  and  O_2
REMARK    2  A    between atoms: O_2  and  C_3
REMARK    3  A    between atoms: C_3  and  C_5
REMARK    4  A    between atoms: C_8  and  N_9
REMARK    5  A    between atoms: C_10  and  C_11
REMARK    6  A    between atoms: C_13  and  C_14
REMARK    7  A    between atoms: C_14  and  C_16
REMARK    8  A    between atoms: C_16  and  S_17
REMARK    9  A    between atoms: S_17  and  C_18
REMARK   10  A    between atoms: C_18  and  C_19
REMARK   11  A    between atoms: C_23  and  C_24
REMARK   12  A    between atoms: C_26  and  C_27
REMARK                            x       y       z     vdW  Elec       q    Type
REMARK                         _______ _______ _______ _____ _____    ______ ____
ROOT
ATOM      1  N   UNL     1       0.899   9.898  20.360  0.00  0.00    +0.000 N 
ATOM      2  C   UNL     1       0.873   9.081  21.492  0.00  0.00    +0.000 A 
ATOM      3  C   UNL     1       0.253   9.408  22.814  0.00  0.00    +0.000 C 
ATOM      4  C   UNL     1       1.449   7.870  21.158  0.00  0.00    +0.000 A 
ATOM      5  C   UNL     1       1.830   7.895  19.797  0.00  0.00    +0.000 A 
ATOM      6  C   UNL     1       1.491   9.160  19.319  0.00  0.00    +0.000 A 
ATOM      7  C   UNL     1       1.762   9.727  17.956  0.00  0.00    +0.000 C 
ENDROOT
BRANCH   1  11
ATOM      8  C   UNL     1      -0.600  13.870  20.146  0.00  0.00    +0.000 A 
ATOM      9  C   UNL     1       0.726  13.636  20.518  0.00  0.00    +0.000 A 
ATOM     10  C   UNL     1       1.234  12.333  20.548  0.00  0.00    +0.000 A 
ATOM     11  C   UNL     1       0.401  11.241  20.270  0.00  0.00    +0.000 A 
ATOM     12  C   UNL     1      -0.932  11.486  19.916  0.00  0.00    +0.000 A 
ATOM     13  C   UNL     1      -1.424  12.794  19.831  0.00  0.00    +0.000 A 
BRANCH   8  14
ATOM     14  C   UNL     1      -1.083  15.276  20.110  0.00  0.00    +0.000 C 
ATOM     15  O   UNL     1      -2.200  15.605  20.463  0.00  0.00    +0.000 OA
BRANCH  14  17
ATOM     16  C   UNL     1      -0.459  16.689  18.376  0.00  0.00    +0.000 C 
ATOM     17  O   UNL     1      -0.119  16.099  19.633  0.00  0.00    +0.000 OA
ENDBRANCH  14  17
ENDBRANCH   8  14
ENDBRANCH   1  11
BRANCH   5  18
ATOM     18  C   UNL     1       2.490   6.827  19.019  0.00  0.00    +0.000 C 
ATOM     19  O   UNL     1       3.262   7.098  18.102  0.00  0.00    +0.000 OA
BRANCH  18  20
ATOM     20  C   UNL     1       2.141   5.377  19.350  0.00  0.00    +0.000 C 
BRANCH  20  21
ATOM     21  S   UNL     1       2.071   4.298  17.877  0.00  0.00    +0.000 S 
BRANCH  21  22
ATOM     22  C   UNL     1       3.553   3.289  18.181  0.00  0.00    +0.000 C 
BRANCH  22  23
ATOM     23  C   UNL     1       4.812   3.954  17.687  0.00  0.00    +0.000 A 
ATOM     24  C   UNL     1       5.165   3.912  16.332  0.00  0.00    +0.000 A 
ATOM     25  C   UNL     1       6.367   4.469  15.897  0.00  0.00    +0.000 A 
ATOM     26  C   UNL     1       7.234   5.069  16.812  0.00  0.00    +0.000 A 
ATOM     27  C   UNL     1       6.893   5.138  18.166  0.00  0.00    +0.000 A 
ATOM     28  C   UNL     1       7.829   5.741  19.172  0.00  0.00    +0.000 C 
ATOM     29  C   UNL     1       5.670   4.601  18.591  0.00  0.00    +0.000 A 
ENDBRANCH  22  23
ENDBRANCH  21  22
ENDBRANCH  20  21
ENDBRANCH  18  20
ENDBRANCH   5  18
TORSDOF 8
ENDMDL
MODEL 8
REMARK VINA RESULT:      -7.8      0.813      1.419
REMARK  Name = 
REMARK  12 active torsions:
REMARK  status: ('A' for Active; 'I' for Inactive)
REMARK    1  A    between atoms: C_1  and  O_2
REMARK    2  A    between atoms: O_2  and  C_3
REMARK    3  A    between atoms: C_3  and  C_5
REMARK    4  A    between atoms: C_8  and  N_9
REMARK    5  A    between atoms: C_10  and  C_11
REMARK    6  A    between atoms: C_13  and  C_14
REMARK    7  A    between atoms: C_14  and  C_16
REMARK    8  A    between atoms: C_16  and  S_17
REMARK    9  A    between atoms: S_17  and  C_18
REMARK   10  A    between atoms: C_18  and  C_19
REMARK   11  A    between atoms: C_23  and  C_24
REMARK   12  A    between atoms: C_26  and  C_27
REMARK                            x       y       z     vdW  Elec       q    Type
REMARK                         _______ _______ _______ _____ _____    ______ ____
ROOT
ATOM      1  N   UNL     1       3.253   5.640  18.869  0.00  0.00    +0.000 N 
ATOM      2  C   UNL     1       2.977   4.783  19.936  0.00  0.00    +0.000 A 
ATOM      3  C   UNL     1       3.554   3.420  20.157  0.00  0.00    +0.000 C 
ATOM      4  C   UNL     1       2.136   5.446  20.810  0.00  0.00    +0.000 A 
ATOM      5  C   UNL     1       1.885   6.746  20.317  0.00  0.00    +0.000 A 
ATOM      6  C   UNL     1       2.575   6.848  19.110  0.00  0.00    +0.000 A 
ATOM      7  C   UNL     1       2.569   7.998  18.147  0.00  0.00    +0.000 C 
ENDROOT
BRANCH   1  11
ATOM      8  C   UNL     1       5.679   4.783  15.485  0.00  0.00    +0.000 A 
ATOM      9  C   UNL     1       5.752   6.031  16.107  0.00  0.00    +0.000 A 
ATOM     10  C   UNL     1       4.987   6.302  17.246  0.00  0.00    +0.000 A 
ATOM     11  C   UNL     1       4.087   5.347  17.738  0.00  0.00    +0.000 A 
ATOM     12  C   UNL     1       4.008   4.105  17.096  0.00  0.00    +0.000 A 
ATOM     13  C   UNL     1       4.816   3.815  15.990  0.00  0.00    +0.000 A 
BRANCH   8  14
ATOM     14  C   UNL     1       6.530   4.541  14.290  0.00  0.00    +0.000 C 
ATOM     15  O   UNL     1       6.240   3.746  13.416  0.00  0.00    +0.000 OA
BRANCH  14  17
ATOM     16  C   UNL     1       8.196   5.567  13.039  0.00  0.00    +0.000 C 
ATOM     17  O   UNL     1       7.642   5.314  14.332  0.00  0.00    +0.000 OA
ENDBRANCH  14  17
ENDBRANCH   8  14
ENDBRANCH   1  11
BRANCH   5  18
ATOM     18  C   UNL     1       1.035   7.795  20.917  0.00  0.00    +0.000 C 
ATOM     19  O   UNL     1      -0.142   7.574  21.193  0.00  0.00    +0.000 OA
BRANCH  18  20
ATOM     20  C   UNL     1       1.645   9.179  21.130  0.00  0.00    +0.000 C 
BRANCH  20  21
ATOM     21  S   UNL     1       0.518  10.543  20.671  0.00  0.00    +0.000 S 
BRANCH  21  22
ATOM     22  C   UNL     1       0.216  10.101  18.933  0.00  0.00    +0.000 C 
BRANCH  22  23
ATOM     23  C   UNL     1      -1.119  10.593  18.438  0.00  0.00    +0.000 A 
ATOM     24  C   UNL     1      -1.914  11.436  19.226  0.00  0.00    +0.000 A 
ATOM     25  C   UNL     1      -3.179  11.828  18.788  0.00  0.00    +0.000 A 
ATOM     26  C   UNL     1      -3.668  11.376  17.561  0.00  0.00    +0.000 A 
ATOM     27  C   UNL     1      -2.883  10.549  16.750  0.00  0.00    +0.000 A 
ATOM     28  C   UNL     1      -3.406  10.019  15.448  0.00  0.00    +0.000 C 
ATOM     29  C   UNL     1      -1.603  10.183  17.185  0.00  0.00    +0.000 A 
ENDBRANCH  22  23
ENDBRANCH  21  22
ENDBRANCH  20  21
ENDBRANCH  18  20
ENDBRANCH   5  18
TORSDOF 8
ENDMDL
MODEL 9
REMARK VINA RESULT:      -7.8      3.422      9.737
REMARK  Name = 
REMARK  12 active torsions:
REMARK  status: ('A' for Active; 'I' for Inactive)
REMARK    1  A    between atoms: C_1  and  O_2
REMARK    2  A    between atoms: O_2  and  C_3
REMARK    3  A    between atoms: C_3  and  C_5
REMARK    4  A    between atoms: C_8  and  N_9
REMARK    5  A    between atoms: C_10  and  C_11
REMARK    6  A    between atoms: C_13  and  C_14
REMARK    7  A    between atoms: C_14  and  C_16
REMARK    8  A    between atoms: C_16  and  S_17
REMARK    9  A    between atoms: S_17  and  C_18
REMARK   10  A    between atoms: C_18  and  C_19
REMARK   11  A    between atoms: C_23  and  C_24
REMARK   12  A    between atoms: C_26  and  C_27
REMARK                            x       y       z     vdW  Elec       q    Type
REMARK                         _______ _______ _______ _____ _____    ______ ____
ROOT
ATOM      1  N   UNL     1       1.339   9.197  19.417  0.00  0.00    +0.000 N 
ATOM      2  C   UNL     1       2.112   9.417  18.274  0.00  0.00    +0.000 A 
ATOM      3  C   UNL     1       2.261  10.707  17.533  0.00  0.00    +0.000 C 
ATOM      4  C   UNL     1       2.794   8.248  17.990  0.00  0.00    +0.000 A 
ATOM      5  C   UNL     1       2.478   7.275  18.965  0.00  0.00    +0.000 A 
ATOM      6  C   UNL     1       1.569   7.875  19.836  0.00  0.00    +0.000 A 
ATOM      7  C   UNL     1       0.858   7.241  20.996  0.00  0.00    +0.000 C 
ENDROOT
BRANCH   1  11
ATOM      8  C   UNL     1      -1.246  11.981  21.325  0.00  0.00    +0.000 A 
ATOM      9  C   UNL     1      -0.044  11.606  21.930  0.00  0.00    +0.000 A 
ATOM     10  C   UNL     1       0.829  10.724  21.285  0.00  0.00    +0.000 A 
ATOM     11  C   UNL     1       0.477  10.151  20.055  0.00  0.00    +0.000 A 
ATOM     12  C   UNL     1      -0.738  10.520  19.465  0.00  0.00    +0.000 A 
ATOM     13  C   UNL     1      -1.585  11.447  20.086  0.00  0.00    +0.000 A 
BRANCH   8  14
ATOM     14  C   UNL     1      -2.126  12.939  22.045  0.00  0.00    +0.000 C 
ATOM     15  O   UNL     1      -1.816  14.096  22.258  0.00  0.00    +0.000 OA
BRANCH  14  17
ATOM     16  C   UNL     1      -3.491  12.352  23.830  0.00  0.00    +0.000 C 
ATOM     17  O   UNL     1      -3.282  12.338  22.416  0.00  0.00    +0.000 OA
ENDBRANCH  14  17
ENDBRANCH   8  14
ENDBRANCH   1  11
BRANCH   5  18
ATOM     18  C   UNL     1       2.965   5.883  19.050  0.00  0.00    +0.000 C 
ATOM     19  O   UNL     1       3.723   5.533  19.951  0.00  0.00    +0.000 OA
BRANCH  18  20
ATOM     20  C   UNL     1       2.544   4.907  17.952  0.00  0.00    +0.000 C 
BRANCH  20  21
ATOM     21  S   UNL     1       3.941   3.949  17.266  0.00  0.00    +0.000 S 
BRANCH  21  22
ATOM     22  C   UNL     1       4.838   5.295  16.434  0.00  0.00    +0.000 C 
BRANCH  22  23
ATOM     23  C   UNL     1       6.036   5.760  17.221  0.00  0.00    +0.000 A 
ATOM     24  C   UNL     1       6.665   4.913  18.143  0.00  0.00    +0.000 A 
ATOM     25  C   UNL     1       7.729   5.377  18.917  0.00  0.00    +0.000 A 
ATOM     26  C   UNL     1       8.173   6.694  18.783  0.00  0.00    +0.000 A 
ATOM     27  C   UNL     1       7.571   7.550  17.855  0.00  0.00    +0.000 A 
ATOM     28  C   UNL     1       8.004   8.980  17.726  0.00  0.00    +0.000 C 
ATOM     29  C   UNL     1       6.521   7.068  17.062  0.00  0.00    +0.000 A 
ENDBRANCH  22  23
ENDBRANCH  21  22
ENDBRANCH  20  21
ENDBRANCH  18  20
ENDBRANCH   5  18
TORSDOF 8
ENDMDL
