MODEL 1
REMARK VINA RESULT:      -7.2      0.000      0.000
REMARK  Name = 
REMARK  7 active torsions:
REMARK  status: ('A' for Active; 'I' for Inactive)
REMARK    1  A    between atoms: C_2  and  C_3
REMARK    2  A    between atoms: C_3  and  O_5
REMARK    3  A    between atoms: O_5  and  C_6
REMARK    4  A    between atoms: N_10  and  C_11
REMARK    5  A    between atoms: C_24  and  O_25
REMARK    6  A    between atoms: O_25  and  C_26
REMARK    7  A    between atoms: C_26  and  C_27
REMARK                            x       y       z     vdW  Elec       q    Type
REMARK                         _______ _______ _______ _____ _____    ______ ____
ROOT
ATOM      1  C   UNL     1       6.024   6.536  16.963  0.00  0.00    +0.000 A 
ATOM      2  C   UNL     1       4.899   7.108  17.547  0.00  0.00    +0.000 A 
ATOM      3  C   UNL     1       3.715   6.370  17.709  0.00  0.00    +0.000 A 
ATOM      4  C   UNL     1       2.523   6.927  18.185  0.00  0.00    +0.000 A 
ATOM      5  N   UNL     1       2.468   8.323  18.471  0.00  0.00    +0.000 N 
ATOM      6  N   UNL     1       1.421   6.179  18.368  0.00  0.00    +0.000 NA
ATOM      7  C   UNL     1       1.509   4.888  18.039  0.00  0.00    +0.000 A 
ATOM      8  N   UNL     1       2.590   4.267  17.551  0.00  0.00    +0.000 NA
ATOM      9  C   UNL     1       3.689   5.011  17.385  0.00  0.00    +0.000 A 
ATOM     10  C   UNL     1       4.855   4.431  16.892  0.00  0.00    +0.000 A 
ATOM     11  C   UNL     1       6.040   5.167  16.693  0.00  0.00    +0.000 A 
ATOM     12  H   UNL     1       2.702   8.845  17.628  0.00  0.00    +0.000 HD
ENDROOT
BRANCH   5  13
ATOM     13  C   UNL     1       1.437   8.918  19.227  0.00  0.00    +0.000 A 
ATOM     14  C   UNL     1       0.497   9.744  18.590  0.00  0.00    +0.000 A 
ATOM     15  C   UNL     1      -0.447  10.453  19.326  0.00  0.00    +0.000 A 
ATOM     16  C   UNL     1      -0.465  10.326  20.708  0.00  0.00    +0.000 A 
ATOM     17  F   UNL     1      -1.345  11.058  21.408  0.00  0.00    +0.000 F 
ATOM     18  C   UNL     1       0.423   9.466  21.354  0.00  0.00    +0.000 A 
ATOM     19 CL   UNL     1       0.392   9.308  23.069  0.00  0.00    +0.000 Cl
ATOM     20  C   UNL     1       1.365   8.747  20.614  0.00  0.00    +0.000 A 
ENDBRANCH   5  13
BRANCH   1  21
ATOM     21  O   UNL     1       7.133   7.360  16.712  0.00  0.00    +0.000 OA
BRANCH  21  22
ATOM     22  C   UNL     1       7.859   7.743  17.835  0.00  0.00    +0.000 C 
ATOM     23  O   UNL     1       8.326   7.023  18.707  0.00  0.00    +0.000 OA
BRANCH  22  25
ATOM     24  C   UNL     1       8.862   9.818  18.647  0.00  0.00    +0.000 C 
ATOM     25  C   UNL     1       8.097   9.199  17.739  0.00  0.00    +0.000 C 
ENDBRANCH  22  25
ENDBRANCH  21  22
ENDBRANCH   1  21
BRANCH  11  26
ATOM     26  O   UNL     1       7.088   4.416  16.229  0.00  0.00    +0.000 OA
BRANCH  26  27
ATOM     27  C   UNL     1       6.937   3.830  14.937  0.00  0.00    +0.000 C 
ATOM     28  C   UNL     1       7.062   4.919  13.884  0.00  0.00    +0.000 C 
ENDBRANCH  26  27
ENDBRANCH  11  26
TORSDOF 6
ENDMDL
MODEL 2
REMARK VINA RESULT:      -7.1      1.021      1.396
REMARK  Name = 
REMARK  7 active torsions:
REMARK  status: ('A' for Active; 'I' for Inactive)
REMARK    1  A    between atoms: C_2  and  C_3
REMARK    2  A    between atoms: C_3  and  O_5
REMARK    3  A    between atoms: O_5  and  C_6
REMARK    4  A    between atoms: N_10  and  C_11
REMARK    5  A    between atoms: C_24  and  O_25
REMARK    6  A    between atoms: O_25  and  C_26
REMARK    7  A    between atoms: C_26  and  C_27
REMARK                            x       y       z     vdW  Elec       q    Type
REMARK                         _______ _______ _______ _____ _____    ______ ____
ROOT
ATOM      1  C   UNL     1       5.952   6.143  16.848  0.00  0.00    +0.000 A 
ATOM      2  C   UNL     1       4.916   6.701  17.589  0.00  0.00    +0.000 A 
ATOM      3  C   UNL     1       3.705   6.015  17.769  0.00  0.00    +0.000 A 
ATOM      4  C   UNL     1       2.593   6.574  18.408  0.00  0.00    +0.000 A 
ATOM      5  N   UNL     1       2.651   7.928  18.855  0.00  0.00    +0.000 N 
ATOM      6  N   UNL     1       1.463   5.871  18.599  0.00  0.00    +0.000 NA
ATOM      7  C   UNL     1       1.442   4.626  18.117  0.00  0.00    +0.000 A 
ATOM      8  N   UNL     1       2.438   4.010  17.469  0.00  0.00    +0.000 NA
ATOM      9  C   UNL     1       3.565   4.707  17.294  0.00  0.00    +0.000 A 
ATOM     10  C   UNL     1       4.648   4.129  16.638  0.00  0.00    +0.000 A 
ATOM     11  C   UNL     1       5.858   4.817  16.422  0.00  0.00    +0.000 A 
ATOM     12  H   UNL     1       2.849   8.533  18.061  0.00  0.00    +0.000 HD
ENDROOT
BRANCH   5  13
ATOM     13  C   UNL     1       1.724   8.482  19.762  0.00  0.00    +0.000 A 
ATOM     14  C   UNL     1       1.633   7.967  21.065  0.00  0.00    +0.000 A 
ATOM     15  C   UNL     1       0.638   8.397  21.937  0.00  0.00    +0.000 A 
ATOM     16  C   UNL     1      -0.266   9.361  21.511  0.00  0.00    +0.000 A 
ATOM     17  F   UNL     1      -1.253   9.725  22.344  0.00  0.00    +0.000 F 
ATOM     18  C   UNL     1      -0.157   9.926  20.242  0.00  0.00    +0.000 A 
ATOM     19 CL   UNL     1      -1.278  11.126  19.721  0.00  0.00    +0.000 Cl
ATOM     20  C   UNL     1       0.848   9.501  19.369  0.00  0.00    +0.000 A 
ENDBRANCH   5  13
BRANCH   1  21
ATOM     21  O   UNL     1       7.088   6.929  16.596  0.00  0.00    +0.000 OA
BRANCH  21  22
ATOM     22  C   UNL     1       7.738   7.417  17.726  0.00  0.00    +0.000 C 
ATOM     23  O   UNL     1       8.201   6.777  18.659  0.00  0.00    +0.000 OA
BRANCH  22  25
ATOM     24  C   UNL     1       8.693   9.568  18.382  0.00  0.00    +0.000 C 
ATOM     25  C   UNL     1       7.900   8.877  17.553  0.00  0.00    +0.000 C 
ENDBRANCH  22  25
ENDBRANCH  21  22
ENDBRANCH   1  21
BRANCH  11  26
ATOM     26  O   UNL     1       6.815   4.071  15.785  0.00  0.00    +0.000 OA
BRANCH  26  27
ATOM     27  C   UNL     1       6.596   3.789  14.404  0.00  0.00    +0.000 C 
ATOM     28  C   UNL     1       7.139   4.941  13.573  0.00  0.00    +0.000 C 
ENDBRANCH  26  27
ENDBRANCH  11  26
TORSDOF 6
ENDMDL
MODEL 3
REMARK VINA RESULT:      -7.1      2.769      3.948
REMARK  Name = 
REMARK  7 active torsions:
REMARK  status: ('A' for Active; 'I' for Inactive)
REMARK    1  A    between atoms: C_2  and  C_3
REMARK    2  A    between atoms: C_3  and  O_5
REMARK    3  A    between atoms: O_5  and  C_6
REMARK    4  A    between atoms: N_10  and  C_11
REMARK    5  A    between atoms: C_24  and  O_25
REMARK    6  A    between atoms: O_25  and  C_26
REMARK    7  A    between atoms: C_26  and  C_27
REMARK                            x       y       z     vdW  Elec       q    Type
REMARK                         _______ _______ _______ _____ _____    ______ ____
ROOT
ATOM      1  C   UNL     1       3.984   5.922  17.544  0.00  0.00    +0.000 A 
ATOM      2  C   UNL     1       3.354   7.144  17.752  0.00  0.00    +0.000 A 
ATOM      3  C   UNL     1       2.567   7.365  18.893  0.00  0.00    +0.000 A 
ATOM      4  C   UNL     1       1.822   8.532  19.097  0.00  0.00    +0.000 A 
ATOM      5  N   UNL     1       1.801   9.535  18.083  0.00  0.00    +0.000 N 
ATOM      6  N   UNL     1       1.113   8.727  20.222  0.00  0.00    +0.000 NA
ATOM      7  C   UNL     1       1.125   7.737  21.119  0.00  0.00    +0.000 A 
ATOM      8  N   UNL     1       1.779   6.574  21.007  0.00  0.00    +0.000 NA
ATOM      9  C   UNL     1       2.496   6.392  19.894  0.00  0.00    +0.000 A 
ATOM     10  C   UNL     1       3.212   5.211  19.711  0.00  0.00    +0.000 A 
ATOM     11  C   UNL     1       3.980   4.962  18.557  0.00  0.00    +0.000 A 
ATOM     12  H   UNL     1       1.448   9.127  17.219  0.00  0.00    +0.000 HD
ENDROOT
BRANCH   5  13
ATOM     13  C   UNL     1       1.344  10.850  18.306  0.00  0.00    +0.000 A 
ATOM     14  C   UNL     1      -0.027  11.087  18.490  0.00  0.00    +0.000 A 
ATOM     15  C   UNL     1      -0.524  12.384  18.575  0.00  0.00    +0.000 A 
ATOM     16  C   UNL     1       0.355  13.454  18.489  0.00  0.00    +0.000 A 
ATOM     17  F   UNL     1      -0.145  14.699  18.517  0.00  0.00    +0.000 F 
ATOM     18  C   UNL     1       1.727  13.238  18.364  0.00  0.00    +0.000 A 
ATOM     19 CL   UNL     1       2.815  14.570  18.265  0.00  0.00    +0.000 Cl
ATOM     20  C   UNL     1       2.228  11.936  18.288  0.00  0.00    +0.000 A 
ENDBRANCH   5  13
BRANCH   1  21
ATOM     21  O   UNL     1       4.651   5.718  16.325  0.00  0.00    +0.000 OA
BRANCH  21  22
ATOM     22  C   UNL     1       6.024   5.945  16.352  0.00  0.00    +0.000 C 
ATOM     23  O   UNL     1       6.611   6.949  16.728  0.00  0.00    +0.000 OA
BRANCH  22  25
ATOM     24  C   UNL     1       6.280   4.014  14.877  0.00  0.00    +0.000 C 
ATOM     25  C   UNL     1       6.693   4.685  15.960  0.00  0.00    +0.000 C 
ENDBRANCH  22  25
ENDBRANCH  21  22
ENDBRANCH   1  21
BRANCH  11  26
ATOM     26  O   UNL     1       4.635   3.759  18.576  0.00  0.00    +0.000 OA
BRANCH  26  27
ATOM     27  C   UNL     1       3.860   2.610  18.916  0.00  0.00    +0.000 C 
ATOM     28  C   UNL     1       2.952   2.262  17.747  0.00  0.00    +0.000 C 
ENDBRANCH  26  27
ENDBRANCH  11  26
TORSDOF 6
ENDMDL
MODEL 4
REMARK VINA RESULT:      -7.0      2.667      3.794
REMARK  Name = 
REMARK  7 active torsions:
REMARK  status: ('A' for Active; 'I' for Inactive)
REMARK    1  A    between atoms: C_2  and  C_3
REMARK    2  A    between atoms: C_3  and  O_5
REMARK    3  A    between atoms: O_5  and  C_6
REMARK    4  A    between atoms: N_10  and  C_11
REMARK    5  A    between atoms: C_24  and  O_25
REMARK    6  A    between atoms: O_25  and  C_26
REMARK    7  A    between atoms: C_26  and  C_27
REMARK                            x       y       z     vdW  Elec       q    Type
REMARK                         _______ _______ _______ _____ _____    ______ ____
ROOT
ATOM      1  C   UNL     1       3.924   5.746  17.681  0.00  0.00    +0.000 A 
ATOM      2  C   UNL     1       3.367   7.011  17.830  0.00  0.00    +0.000 A 
ATOM      3  C   UNL     1       2.550   7.317  18.930  0.00  0.00    +0.000 A 
ATOM      4  C   UNL     1       1.876   8.534  19.071  0.00  0.00    +0.000 A 
ATOM      5  N   UNL     1       1.962   9.506  18.030  0.00  0.00    +0.000 N 
ATOM      6  N   UNL     1       1.136   8.808  20.159  0.00  0.00    +0.000 NA
ATOM      7  C   UNL     1       1.047   7.846  21.082  0.00  0.00    +0.000 A 
ATOM      8  N   UNL     1       1.628   6.641  21.029  0.00  0.00    +0.000 NA
ATOM      9  C   UNL     1       2.375   6.380  19.953  0.00  0.00    +0.000 A 
ATOM     10  C   UNL     1       3.020   5.151  19.832  0.00  0.00    +0.000 A 
ATOM     11  C   UNL     1       3.815   4.819  18.719  0.00  0.00    +0.000 A 
ATOM     12  H   UNL     1       1.618   9.097  17.163  0.00  0.00    +0.000 HD
ENDROOT
BRANCH   5  13
ATOM     13  C   UNL     1       1.584  10.854  18.198  0.00  0.00    +0.000 A 
ATOM     14  C   UNL     1       2.532  11.871  18.000  0.00  0.00    +0.000 A 
ATOM     15  C   UNL     1       2.229  13.198  18.291  0.00  0.00    +0.000 A 
ATOM     16  C   UNL     1       0.966  13.516  18.770  0.00  0.00    +0.000 A 
ATOM     17  F   UNL     1       0.707  14.791  19.098  0.00  0.00    +0.000 F 
ATOM     18  C   UNL     1      -0.007  12.528  18.919  0.00  0.00    +0.000 A 
ATOM     19 CL   UNL     1      -1.575  12.930  19.508  0.00  0.00    +0.000 Cl
ATOM     20  C   UNL     1       0.294  11.197  18.618  0.00  0.00    +0.000 A 
ENDBRANCH   5  13
BRANCH   1  21
ATOM     21  O   UNL     1       4.625   5.463  16.498  0.00  0.00    +0.000 OA
BRANCH  21  22
ATOM     22  C   UNL     1       5.947   5.898  16.469  0.00  0.00    +0.000 C 
ATOM     23  O   UNL     1       6.357   7.050  16.450  0.00  0.00    +0.000 OA
BRANCH  22  25
ATOM     24  C   UNL     1       7.648   4.594  17.642  0.00  0.00    +0.000 C 
ATOM     25  C   UNL     1       6.812   4.706  16.602  0.00  0.00    +0.000 C 
ENDBRANCH  22  25
ENDBRANCH  21  22
ENDBRANCH   1  21
BRANCH  11  26
ATOM     26  O   UNL     1       4.389   3.577  18.797  0.00  0.00    +0.000 OA
BRANCH  26  27
ATOM     27  C   UNL     1       3.512   2.478  19.043  0.00  0.00    +0.000 C 
ATOM     28  C   UNL     1       2.745   2.164  17.769  0.00  0.00    +0.000 C 
ENDBRANCH  26  27
ENDBRANCH  11  26
TORSDOF 6
ENDMDL
MODEL 5
REMARK VINA RESULT:      -7.0      5.131      9.045
REMARK  Name = 
REMARK  7 active torsions:
REMARK  status: ('A' for Active; 'I' for Inactive)
REMARK    1  A    between atoms: C_2  and  C_3
REMARK    2  A    between atoms: C_3  and  O_5
REMARK    3  A    between atoms: O_5  and  C_6
REMARK    4  A    between atoms: N_10  and  C_11
REMARK    5  A    between atoms: C_24  and  O_25
REMARK    6  A    between atoms: O_25  and  C_26
REMARK    7  A    between atoms: C_26  and  C_27
REMARK                            x       y       z     vdW  Elec       q    Type
REMARK                         _______ _______ _______ _____ _____    ______ ____
ROOT
ATOM      1  C   UNL     1      -1.384  11.172  18.917  0.00  0.00    +0.000 A 
ATOM      2  C   UNL     1      -0.515  10.105  19.111  0.00  0.00    +0.000 A 
ATOM      3  C   UNL     1       0.071   9.869  20.365  0.00  0.00    +0.000 A 
ATOM      4  C   UNL     1       1.036   8.882  20.589  0.00  0.00    +0.000 A 
ATOM      5  N   UNL     1       1.506   8.101  19.490  0.00  0.00    +0.000 N 
ATOM      6  N   UNL     1       1.544   8.657  21.813  0.00  0.00    +0.000 NA
ATOM      7  C   UNL     1       1.109   9.447  22.798  0.00  0.00    +0.000 A 
ATOM      8  N   UNL     1       0.213  10.435  22.684  0.00  0.00    +0.000 NA
ATOM      9  C   UNL     1      -0.301  10.644  21.468  0.00  0.00    +0.000 A 
ATOM     10  C   UNL     1      -1.247  11.648  21.273  0.00  0.00    +0.000 A 
ATOM     11  C   UNL     1      -1.818  11.916  20.014  0.00  0.00    +0.000 A 
ATOM     12  H   UNL     1       1.900   8.722  18.786  0.00  0.00    +0.000 HD
ENDROOT
BRANCH   5  13
ATOM     13  C   UNL     1       2.232   6.903  19.648  0.00  0.00    +0.000 A 
ATOM     14  C   UNL     1       3.381   6.680  18.872  0.00  0.00    +0.000 A 
ATOM     15  C   UNL     1       4.039   5.455  18.904  0.00  0.00    +0.000 A 
ATOM     16  C   UNL     1       3.557   4.447  19.728  0.00  0.00    +0.000 A 
ATOM     17  F   UNL     1       4.170   3.254  19.707  0.00  0.00    +0.000 F 
ATOM     18  C   UNL     1       2.452   4.669  20.549  0.00  0.00    +0.000 A 
ATOM     19 CL   UNL     1       1.862   3.417  21.575  0.00  0.00    +0.000 Cl
ATOM     20  C   UNL     1       1.796   5.902  20.524  0.00  0.00    +0.000 A 
ENDBRANCH   5  13
BRANCH   1  21
ATOM     21  O   UNL     1      -1.837  11.431  17.613  0.00  0.00    +0.000 OA
BRANCH  21  22
ATOM     22  C   UNL     1      -2.775  10.530  17.117  0.00  0.00    +0.000 C 
ATOM     23  O   UNL     1      -3.727  10.039  17.707  0.00  0.00    +0.000 OA
BRANCH  22  25
ATOM     24  C   UNL     1      -3.521  10.294  14.803  0.00  0.00    +0.000 C 
ATOM     25  C   UNL     1      -2.506  10.354  15.674  0.00  0.00    +0.000 C 
ENDBRANCH  22  25
ENDBRANCH  21  22
ENDBRANCH   1  21
BRANCH  11  26
ATOM     26  O   UNL     1      -2.750  12.921  20.031  0.00  0.00    +0.000 OA
BRANCH  26  27
ATOM     27  C   UNL     1      -4.120  12.526  20.104  0.00  0.00    +0.000 C 
ATOM     28  C   UNL     1      -4.698  12.995  21.429  0.00  0.00    +0.000 C 
ENDBRANCH  26  27
ENDBRANCH  11  26
TORSDOF 6
ENDMDL
MODEL 6
REMARK VINA RESULT:      -6.9      2.919      4.639
REMARK  Name = 
REMARK  7 active torsions:
REMARK  status: ('A' for Active; 'I' for Inactive)
REMARK    1  A    between atoms: C_2  and  C_3
REMARK    2  A    between atoms: C_3  and  O_5
REMARK    3  A    between atoms: O_5  and  C_6
REMARK    4  A    between atoms: N_10  and  C_11
REMARK    5  A    between atoms: C_24  and  O_25
REMARK    6  A    between atoms: O_25  and  C_26
REMARK    7  A    between atoms: C_26  and  C_27
REMARK                            x       y       z     vdW  Elec       q    Type
REMARK                         _______ _______ _______ _____ _____    ______ ____
ROOT
ATOM      1  C   UNL     1       3.419   4.881  19.540  0.00  0.00    +0.000 A 
ATOM      2  C   UNL     1       2.696   5.962  20.033  0.00  0.00    +0.000 A 
ATOM      3  C   UNL     1       2.525   7.126  19.268  0.00  0.00    +0.000 A 
ATOM      4  C   UNL     1       1.906   8.281  19.756  0.00  0.00    +0.000 A 
ATOM      5  N   UNL     1       1.471   8.321  21.114  0.00  0.00    +0.000 N 
ATOM      6  N   UNL     1       1.721   9.363  18.980  0.00  0.00    +0.000 NA
ATOM      7  C   UNL     1       2.191   9.294  17.731  0.00  0.00    +0.000 A 
ATOM      8  N   UNL     1       2.821   8.250  17.179  0.00  0.00    +0.000 NA
ATOM      9  C   UNL     1       2.988   7.171  17.950  0.00  0.00    +0.000 A 
ATOM     10  C   UNL     1       3.625   6.042  17.440  0.00  0.00    +0.000 A 
ATOM     11  C   UNL     1       3.833   4.879  18.208  0.00  0.00    +0.000 A 
ATOM     12  H   UNL     1       2.269   8.155  21.724  0.00  0.00    +0.000 HD
ENDROOT
BRANCH   5  13
ATOM     13  C   UNL     1       0.582   9.296  21.613  0.00  0.00    +0.000 A 
ATOM     14  C   UNL     1       0.260   9.308  22.980  0.00  0.00    +0.000 A 
ATOM     15  C   UNL     1      -0.716  10.166  23.477  0.00  0.00    +0.000 A 
ATOM     16  C   UNL     1      -1.367  11.030  22.608  0.00  0.00    +0.000 A 
ATOM     17  F   UNL     1      -2.344  11.811  23.092  0.00  0.00    +0.000 F 
ATOM     18  C   UNL     1      -1.022  11.073  21.257  0.00  0.00    +0.000 A 
ATOM     19 CL   UNL     1      -1.829  12.151  20.184  0.00  0.00    +0.000 Cl
ATOM     20  C   UNL     1      -0.035  10.218  20.759  0.00  0.00    +0.000 A 
ENDBRANCH   5  13
BRANCH   1  21
ATOM     21  O   UNL     1       3.664   3.798  20.400  0.00  0.00    +0.000 OA
BRANCH  21  22
ATOM     22  C   UNL     1       2.530   3.175  20.912  0.00  0.00    +0.000 C 
ATOM     23  O   UNL     1       2.039   3.308  22.024  0.00  0.00    +0.000 OA
BRANCH  22  25
ATOM     24  C   UNL     1       0.681   2.693  19.389  0.00  0.00    +0.000 C 
ATOM     25  C   UNL     1       1.915   2.395  19.816  0.00  0.00    +0.000 C 
ENDBRANCH  22  25
ENDBRANCH  21  22
ENDBRANCH   1  21
BRANCH  11  26
ATOM     26  O   UNL     1       4.450   3.866  17.523  0.00  0.00    +0.000 OA
BRANCH  26  27
ATOM     27  C   UNL     1       5.765   4.126  17.035  0.00  0.00    +0.000 C 
ATOM     28  C   UNL     1       5.812   3.812  15.548  0.00  0.00    +0.000 C 
ENDBRANCH  26  27
ENDBRANCH  11  26
TORSDOF 6
ENDMDL
MODEL 7
REMARK VINA RESULT:      -6.9      1.529      1.886
REMARK  Name = 
REMARK  7 active torsions:
REMARK  status: ('A' for Active; 'I' for Inactive)
REMARK    1  A    between atoms: C_2  and  C_3
REMARK    2  A    between atoms: C_3  and  O_5
REMARK    3  A    between atoms: O_5  and  C_6
REMARK    4  A    between atoms: N_10  and  C_11
REMARK    5  A    between atoms: C_24  and  O_25
REMARK    6  A    between atoms: O_25  and  C_26
REMARK    7  A    between atoms: C_26  and  C_27
REMARK                            x       y       z     vdW  Elec       q    Type
REMARK                         _______ _______ _______ _____ _____    ______ ____
ROOT
ATOM      1  C   UNL     1       5.188   6.227  17.597  0.00  0.00    +0.000 A 
ATOM      2  C   UNL     1       4.241   6.891  18.369  0.00  0.00    +0.000 A 
ATOM      3  C   UNL     1       3.221   6.184  19.027  0.00  0.00    +0.000 A 
ATOM      4  C   UNL     1       2.180   6.809  19.722  0.00  0.00    +0.000 A 
ATOM      5  N   UNL     1       2.098   8.233  19.728  0.00  0.00    +0.000 N 
ATOM      6  N   UNL     1       1.245   6.098  20.376  0.00  0.00    +0.000 NA
ATOM      7  C   UNL     1       1.337   4.768  20.299  0.00  0.00    +0.000 A 
ATOM      8  N   UNL     1       2.274   4.076  19.639  0.00  0.00    +0.000 NA
ATOM      9  C   UNL     1       3.211   4.787  19.003  0.00  0.00    +0.000 A 
ATOM     10  C   UNL     1       4.225   4.136  18.304  0.00  0.00    +0.000 A 
ATOM     11  C   UNL     1       5.235   4.833  17.612  0.00  0.00    +0.000 A 
ATOM     12  H   UNL     1       2.030   8.566  18.768  0.00  0.00    +0.000 HD
ENDROOT
BRANCH   5  13
ATOM     13  C   UNL     1       1.289   8.957  20.628  0.00  0.00    +0.000 A 
ATOM     14  C   UNL     1       1.347   8.668  22.001  0.00  0.00    +0.000 A 
ATOM     15  C   UNL     1       0.465   9.265  22.896  0.00  0.00    +0.000 A 
ATOM     16  C   UNL     1      -0.474  10.170  22.421  0.00  0.00    +0.000 A 
ATOM     17  F   UNL     1      -1.353  10.696  23.287  0.00  0.00    +0.000 F 
ATOM     18  C   UNL     1      -0.510  10.513  21.070  0.00  0.00    +0.000 A 
ATOM     19 CL   UNL     1      -1.674  11.641  20.487  0.00  0.00    +0.000 Cl
ATOM     20  C   UNL     1       0.381   9.920  20.172  0.00  0.00    +0.000 A 
ENDBRANCH   5  13
BRANCH   1  21
ATOM     21  O   UNL     1       6.103   6.998  16.862  0.00  0.00    +0.000 OA
BRANCH  21  22
ATOM     22  C   UNL     1       7.308   7.267  17.505  0.00  0.00    +0.000 C 
ATOM     23  O   UNL     1       8.147   6.466  17.891  0.00  0.00    +0.000 OA
BRANCH  22  25
ATOM     24  C   UNL     1       8.483   9.282  18.233  0.00  0.00    +0.000 C 
ATOM     25  C   UNL     1       7.479   8.736  17.535  0.00  0.00    +0.000 C 
ENDBRANCH  22  25
ENDBRANCH  21  22
ENDBRANCH   1  21
BRANCH  11  26
ATOM     26  O   UNL     1       6.158   4.018  17.011  0.00  0.00    +0.000 OA
BRANCH  26  27
ATOM     27  C   UNL     1       5.856   3.569  15.691  0.00  0.00    +0.000 C 
ATOM     28  C   UNL     1       6.640   4.406  14.693  0.00  0.00    +0.000 C 
ENDBRANCH  26  27
ENDBRANCH  11  26
TORSDOF 6
ENDMDL
MODEL 8
REMARK VINA RESULT:      -6.9      5.073      9.112
REMARK  Name = 
REMARK  7 active torsions:
REMARK  status: ('A' for Active; 'I' for Inactive)
REMARK    1  A    between atoms: C_2  and  C_3
REMARK    2  A    between atoms: C_3  and  O_5
REMARK    3  A    between atoms: O_5  and  C_6
REMARK    4  A    between atoms: N_10  and  C_11
REMARK    5  A    between atoms: C_24  and  O_25
REMARK    6  A    between atoms: O_25  and  C_26
REMARK    7  A    between atoms: C_26  and  C_27
REMARK                            x       y       z     vdW  Elec       q    Type
REMARK                         _______ _______ _______ _____ _____    ______ ____
ROOT
ATOM      1  C   UNL     1      -1.373  11.472  18.588  0.00  0.00    +0.000 A 
ATOM      2  C   UNL     1      -0.465  10.425  18.481  0.00  0.00    +0.000 A 
ATOM      3  C   UNL     1       0.227   9.951  19.607  0.00  0.00    +0.000 A 
ATOM      4  C   UNL     1       1.231   8.979  19.538  0.00  0.00    +0.000 A 
ATOM      5  N   UNL     1       1.627   8.472  18.265  0.00  0.00    +0.000 N 
ATOM      6  N   UNL     1       1.842   8.519  20.643  0.00  0.00    +0.000 NA
ATOM      7  C   UNL     1       1.471   9.061  21.805  0.00  0.00    +0.000 A 
ATOM      8  N   UNL     1       0.545  10.013  21.975  0.00  0.00    +0.000 NA
ATOM      9  C   UNL     1      -0.072  10.457  20.875  0.00  0.00    +0.000 A 
ATOM     10  C   UNL     1      -1.055  11.439  20.975  0.00  0.00    +0.000 A 
ATOM     11  C   UNL     1      -1.733  11.946  19.850  0.00  0.00    +0.000 A 
ATOM     12  H   UNL     1       1.947   9.244  17.684  0.00  0.00    +0.000 HD
ENDROOT
BRANCH   5  13
ATOM     13  C   UNL     1       2.392   7.298  18.105  0.00  0.00    +0.000 A 
ATOM     14  C   UNL     1       3.735   7.394  17.706  0.00  0.00    +0.000 A 
ATOM     15  C   UNL     1       4.476   6.255  17.406  0.00  0.00    +0.000 A 
ATOM     16  C   UNL     1       3.878   5.008  17.519  0.00  0.00    +0.000 A 
ATOM     17  F   UNL     1       4.587   3.923  17.174  0.00  0.00    +0.000 F 
ATOM     18  C   UNL     1       2.563   4.889  17.969  0.00  0.00    +0.000 A 
ATOM     19 CL   UNL     1       1.827   3.338  18.114  0.00  0.00    +0.000 Cl
ATOM     20  C   UNL     1       1.822   6.032  18.279  0.00  0.00    +0.000 A 
ENDBRANCH   5  13
BRANCH   1  21
ATOM     21  O   UNL     1      -1.937  11.985  17.409  0.00  0.00    +0.000 OA
BRANCH  21  22
ATOM     22  C   UNL     1      -3.026  11.275  16.910  0.00  0.00    +0.000 C 
ATOM     23  O   UNL     1      -4.142  11.175  17.397  0.00  0.00    +0.000 OA
BRANCH  22  25
ATOM     24  C   UNL     1      -3.567  10.188  14.790  0.00  0.00    +0.000 C 
ATOM     25  C   UNL     1      -2.644  10.746  15.583  0.00  0.00    +0.000 C 
ENDBRANCH  22  25
ENDBRANCH  21  22
ENDBRANCH   1  21
BRANCH  11  26
ATOM     26  O   UNL     1      -2.685  12.885  20.153  0.00  0.00    +0.000 OA
BRANCH  26  27
ATOM     27  C   UNL     1      -3.945  12.398  20.612  0.00  0.00    +0.000 C 
ATOM     28  C   UNL     1      -4.305  13.105  21.909  0.00  0.00    +0.000 C 
ENDBRANCH  26  27
ENDBRANCH  11  26
TORSDOF 6
ENDMDL
MODEL 9
REMARK VINA RESULT:      -6.8      2.656      3.676
REMARK  Name = 
REMARK  7 active torsions:
REMARK  status: ('A' for Active; 'I' for Inactive)
REMARK    1  A    between atoms: C_2  and  C_3
REMARK    2  A    between atoms: C_3  and  O_5
REMARK    3  A    between atoms: O_5  and  C_6
REMARK    4  A    between atoms: N_10  and  C_11
REMARK    5  A    between atoms: C_24  and  O_25
REMARK    6  A    between atoms: O_25  and  C_26
REMARK    7  A    between atoms: C_26  and  C_27
REMARK                            x       y       z     vdW  Elec       q    Type
REMARK                         _______ _______ _______ _____ _____    ______ ____
ROOT
ATOM      1  C   UNL     1       4.120   5.940  17.613  0.00  0.00    +0.000 A 
ATOM      2  C   UNL     1       3.478   7.159  17.805  0.00  0.00    +0.000 A 
ATOM      3  C   UNL     1       2.625   7.362  18.901  0.00  0.00    +0.000 A 
ATOM      4  C   UNL     1       1.869   8.525  19.080  0.00  0.00    +0.000 A 
ATOM      5  N   UNL     1       1.906   9.545  18.082  0.00  0.00    +0.000 N 
ATOM      6  N   UNL     1       1.095   8.702  20.165  0.00  0.00    +0.000 NA
ATOM      7  C   UNL     1       1.055   7.698  21.044  0.00  0.00    +0.000 A 
ATOM      8  N   UNL     1       1.716   6.537  20.952  0.00  0.00    +0.000 NA
ATOM      9  C   UNL     1       2.496   6.372  19.880  0.00  0.00    +0.000 A 
ATOM     10  C   UNL     1       3.223   5.195  19.720  0.00  0.00    +0.000 A 
ATOM     11  C   UNL     1       4.057   4.964  18.609  0.00  0.00    +0.000 A 
ATOM     12  H   UNL     1       1.605   9.151  17.193  0.00  0.00    +0.000 HD
ENDROOT
BRANCH   5  13
ATOM     13  C   UNL     1       1.437  10.856  18.300  0.00  0.00    +0.000 A 
ATOM     14  C   UNL     1       0.065  11.077  18.507  0.00  0.00    +0.000 A 
ATOM     15  C   UNL     1      -0.447  12.368  18.587  0.00  0.00    +0.000 A 
ATOM     16  C   UNL     1       0.416  13.449  18.474  0.00  0.00    +0.000 A 
ATOM     17  F   UNL     1      -0.100  14.687  18.497  0.00  0.00    +0.000 F 
ATOM     18  C   UNL     1       1.788  13.250  18.325  0.00  0.00    +0.000 A 
ATOM     19 CL   UNL     1       2.856  14.595  18.191  0.00  0.00    +0.000 Cl
ATOM     20  C   UNL     1       2.305  11.953  18.254  0.00  0.00    +0.000 A 
ENDBRANCH   5  13
BRANCH   1  21
ATOM     21  O   UNL     1       4.858   5.756  16.433  0.00  0.00    +0.000 OA
BRANCH  21  22
ATOM     22  C   UNL     1       6.223   5.549  16.608  0.00  0.00    +0.000 C 
ATOM     23  O   UNL     1       6.876   4.562  16.303  0.00  0.00    +0.000 OA
BRANCH  22  25
ATOM     24  C   UNL     1       7.685   6.780  18.130  0.00  0.00    +0.000 C 
ATOM     25  C   UNL     1       6.803   6.808  17.123  0.00  0.00    +0.000 C 
ENDBRANCH  22  25
ENDBRANCH  21  22
ENDBRANCH   1  21
BRANCH  11  26
ATOM     26  O   UNL     1       4.711   3.761  18.646  0.00  0.00    +0.000 OA
BRANCH  26  27
ATOM     27  C   UNL     1       3.941   2.623  19.031  0.00  0.00    +0.000 C 
ATOM     28  C   UNL     1       3.175   2.112  17.821  0.00  0.00    +0.000 C 
ENDBRANCH  26  27
ENDBRANCH  11  26
TORSDOF 6
ENDMDL
