MODEL 1
REMARK VINA RESULT:      -6.4      0.000      0.000
REMARK  Name = 
REMARK  5 active torsions:
REMARK  status: ('A' for Active; 'I' for Inactive)
REMARK    1  A    between atoms: C_1  and  C_2
REMARK    2  A    between atoms: C_2  and  C_3
REMARK    3  A    between atoms: C_2  and  C_4
REMARK    4  A    between atoms: C_2  and  C_5
REMARK    5  A    between atoms: C_11  and  C_12
REMARK                            x       y       z     vdW  Elec       q    Type
REMARK                         _______ _______ _______ _____ _____    ______ ____
ROOT
ATOM      1  C   UNL     1       3.038   3.790  20.060  0.00  0.00    +0.000 C 
ATOM      2  C   UNL     1       2.162   4.640  21.048  0.00  0.00    +0.000 C 
ATOM      3  C   UNL     1       1.580   5.950  20.476  0.00  0.00    +0.000 C 
ATOM      4  C   UNL     1       2.521   6.514  19.493  0.00  0.00    +0.000 A 
ATOM      5  O   UNL     1       2.214   7.640  18.826  0.00  0.00    +0.000 OA
ATOM      6  N   UNL     1       3.213   7.894  17.909  0.00  0.00    +0.000 NA
ATOM      7  C   UNL     1       4.156   6.943  18.073  0.00  0.00    +0.000 A 
ATOM      8  C   UNL     1       3.699   5.985  19.027  0.00  0.00    +0.000 A 
ATOM      9  C   UNL     1       4.210   4.685  19.520  0.00  0.00    +0.000 C 
ENDROOT
BRANCH   7  10
ATOM     10  C   UNL     1       5.397   6.899  17.277  0.00  0.00    +0.000 C 
ATOM     11  O   UNL     1       6.283   7.733  17.482  0.00  0.00    +0.000 OA
ATOM     12  N   UNL     1       5.568   5.915  16.294  0.00  0.00    +0.000 N 
ATOM     13  C   UNL     1       4.567   4.972  15.776  0.00  0.00    +0.000 C 
ATOM     14  C   UNL     1       5.058   3.536  15.984  0.00  0.00    +0.000 C 
ATOM     15  O   UNL     1       6.321   3.343  15.322  0.00  0.00    +0.000 OA
ATOM     16  C   UNL     1       7.316   4.248  15.834  0.00  0.00    +0.000 C 
ATOM     17  C   UNL     1       6.883   5.714  15.684  0.00  0.00    +0.000 C 
ENDBRANCH   7  10
BRANCH   1  19
ATOM     18  C   UNL     1       1.862   3.757  17.697  0.00  0.00    +0.000 C 
ATOM     19  C   UNL     1       2.233   2.970  18.967  0.00  0.00    +0.000 C 
ATOM     20  C   UNL     1       0.918   2.434  19.580  0.00  0.00    +0.000 C 
ATOM     21  C   UNL     1       3.043   1.735  18.508  0.00  0.00    +0.000 C 
ENDBRANCH   1  19
TORSDOF 2
ENDMDL
MODEL 2
REMARK VINA RESULT:      -6.4      2.463      5.701
REMARK  Name = 
REMARK  5 active torsions:
REMARK  status: ('A' for Active; 'I' for Inactive)
REMARK    1  A    between atoms: C_1  and  C_2
REMARK    2  A    between atoms: C_2  and  C_3
REMARK    3  A    between atoms: C_2  and  C_4
REMARK    4  A    between atoms: C_2  and  C_5
REMARK    5  A    between atoms: C_11  and  C_12
REMARK                            x       y       z     vdW  Elec       q    Type
REMARK                         _______ _______ _______ _____ _____    ______ ____
ROOT
ATOM      1  C   UNL     1       5.014   5.498  15.406  0.00  0.00    +0.000 C 
ATOM      2  C   UNL     1       5.539   6.935  15.758  0.00  0.00    +0.000 C 
ATOM      3  C   UNL     1       6.506   7.024  16.956  0.00  0.00    +0.000 C 
ATOM      4  C   UNL     1       6.149   5.996  17.950  0.00  0.00    +0.000 A 
ATOM      5  O   UNL     1       6.878   5.850  19.069  0.00  0.00    +0.000 OA
ATOM      6  N   UNL     1       6.392   4.767  19.772  0.00  0.00    +0.000 NA
ATOM      7  C   UNL     1       5.323   4.299  19.094  0.00  0.00    +0.000 A 
ATOM      8  C   UNL     1       5.193   5.015  17.867  0.00  0.00    +0.000 A 
ATOM      9  C   UNL     1       4.322   4.883  16.675  0.00  0.00    +0.000 C 
ENDROOT
BRANCH   7  10
ATOM     10  C   UNL     1       4.521   3.149  19.554  0.00  0.00    +0.000 C 
ATOM     11  O   UNL     1       5.081   2.084  19.824  0.00  0.00    +0.000 OA
ATOM     12  N   UNL     1       3.130   3.268  19.683  0.00  0.00    +0.000 N 
ATOM     13  C   UNL     1       2.272   4.373  19.230  0.00  0.00    +0.000 C 
ATOM     14  C   UNL     1       1.502   4.946  20.423  0.00  0.00    +0.000 C 
ATOM     15  O   UNL     1       0.711   3.916  21.046  0.00  0.00    +0.000 OA
ATOM     16  C   UNL     1       1.543   2.838  21.511  0.00  0.00    +0.000 C 
ATOM     17  C   UNL     1       2.369   2.223  20.370  0.00  0.00    +0.000 C 
ENDBRANCH   7  10
BRANCH   1  19
ATOM     18  C   UNL     1       7.351   5.242  14.208  0.00  0.00    +0.000 C 
ATOM     19  C   UNL     1       6.048   4.558  14.657  0.00  0.00    +0.000 C 
ATOM     20  C   UNL     1       5.385   3.951  13.398  0.00  0.00    +0.000 C 
ATOM     21  C   UNL     1       6.455   3.369  15.559  0.00  0.00    +0.000 C 
ENDBRANCH   1  19
TORSDOF 2
ENDMDL
MODEL 3
REMARK VINA RESULT:      -6.4      2.101      3.786
REMARK  Name = 
REMARK  5 active torsions:
REMARK  status: ('A' for Active; 'I' for Inactive)
REMARK    1  A    between atoms: C_1  and  C_2
REMARK    2  A    between atoms: C_2  and  C_3
REMARK    3  A    between atoms: C_2  and  C_4
REMARK    4  A    between atoms: C_2  and  C_5
REMARK    5  A    between atoms: C_11  and  C_12
REMARK                            x       y       z     vdW  Elec       q    Type
REMARK                         _______ _______ _______ _____ _____    ______ ____
ROOT
ATOM      1  C   UNL     1       1.379   4.654  18.945  0.00  0.00    +0.000 C 
ATOM      2  C   UNL     1       0.666   3.260  18.830  0.00  0.00    +0.000 C 
ATOM      3  C   UNL     1       1.595   2.036  18.700  0.00  0.00    +0.000 C 
ATOM      4  C   UNL     1       2.808   2.421  17.957  0.00  0.00    +0.000 A 
ATOM      5  O   UNL     1       3.792   1.527  17.752  0.00  0.00    +0.000 OA
ATOM      6  N   UNL     1       4.840   2.166  17.122  0.00  0.00    +0.000 NA
ATOM      7  C   UNL     1       4.454   3.438  16.895  0.00  0.00    +0.000 A 
ATOM      8  C   UNL     1       3.181   3.660  17.501  0.00  0.00    +0.000 A 
ATOM      9  C   UNL     1       2.320   4.849  17.703  0.00  0.00    +0.000 C 
ENDROOT
BRANCH   7  10
ATOM     10  C   UNL     1       5.310   4.427  16.213  0.00  0.00    +0.000 C 
ATOM     11  O   UNL     1       5.025   4.796  15.071  0.00  0.00    +0.000 OA
ATOM     12  N   UNL     1       6.442   4.943  16.860  0.00  0.00    +0.000 N 
ATOM     13  C   UNL     1       7.047   4.490  18.120  0.00  0.00    +0.000 C 
ATOM     14  C   UNL     1       7.090   5.653  19.116  0.00  0.00    +0.000 C 
ATOM     15  O   UNL     1       7.839   6.751  18.564  0.00  0.00    +0.000 OA
ATOM     16  C   UNL     1       7.245   7.217  17.339  0.00  0.00    +0.000 C 
ATOM     17  C   UNL     1       7.143   6.096  16.293  0.00  0.00    +0.000 C 
ENDBRANCH   7  10
BRANCH   1  19
ATOM     18  C   UNL     1       1.911   3.852  21.402  0.00  0.00    +0.000 C 
ATOM     19  C   UNL     1       2.022   4.978  20.358  0.00  0.00    +0.000 C 
ATOM     20  C   UNL     1       1.352   6.235  20.961  0.00  0.00    +0.000 C 
ATOM     21  C   UNL     1       3.526   5.304  20.210  0.00  0.00    +0.000 C 
ENDBRANCH   1  19
TORSDOF 2
ENDMDL
MODEL 4
REMARK VINA RESULT:      -6.3      2.084      3.714
REMARK  Name = 
REMARK  5 active torsions:
REMARK  status: ('A' for Active; 'I' for Inactive)
REMARK    1  A    between atoms: C_1  and  C_2
REMARK    2  A    between atoms: C_2  and  C_3
REMARK    3  A    between atoms: C_2  and  C_4
REMARK    4  A    between atoms: C_2  and  C_5
REMARK    5  A    between atoms: C_11  and  C_12
REMARK                            x       y       z     vdW  Elec       q    Type
REMARK                         _______ _______ _______ _____ _____    ______ ____
ROOT
ATOM      1  C   UNL     1       1.580   4.793  18.725  0.00  0.00    +0.000 C 
ATOM      2  C   UNL     1       1.036   3.392  18.272  0.00  0.00    +0.000 C 
ATOM      3  C   UNL     1       2.105   2.329  17.942  0.00  0.00    +0.000 C 
ATOM      4  C   UNL     1       3.293   2.990  17.375  0.00  0.00    +0.000 A 
ATOM      5  O   UNL     1       4.380   2.270  17.046  0.00  0.00    +0.000 OA
ATOM      6  N   UNL     1       5.371   3.136  16.633  0.00  0.00    +0.000 NA
ATOM      7  C   UNL     1       4.850   4.380  16.659  0.00  0.00    +0.000 A 
ATOM      8  C   UNL     1       3.539   4.331  17.218  0.00  0.00    +0.000 A 
ATOM      9  C   UNL     1       2.540   5.351  17.614  0.00  0.00    +0.000 C 
ENDROOT
BRANCH   7  10
ATOM     10  C   UNL     1       5.613   5.578  16.258  0.00  0.00    +0.000 C 
ATOM     11  O   UNL     1       5.181   6.304  15.359  0.00  0.00    +0.000 OA
ATOM     12  N   UNL     1       6.824   5.887  16.894  0.00  0.00    +0.000 N 
ATOM     13  C   UNL     1       7.588   5.054  17.833  0.00  0.00    +0.000 C 
ATOM     14  C   UNL     1       7.769   5.806  19.155  0.00  0.00    +0.000 C 
ATOM     15  O   UNL     1       8.444   7.057  18.927  0.00  0.00    +0.000 OA
ATOM     16  C   UNL     1       7.694   7.890  18.023  0.00  0.00    +0.000 C 
ATOM     17  C   UNL     1       7.449   7.192  16.676  0.00  0.00    +0.000 C 
ENDBRANCH   7  10
BRANCH   1  19
ATOM     18  C   UNL     1       3.654   4.741  20.356  0.00  0.00    +0.000 C 
ATOM     19  C   UNL     1       2.127   4.865  20.212  0.00  0.00    +0.000 C 
ATOM     20  C   UNL     1       1.488   3.738  21.058  0.00  0.00    +0.000 C 
ATOM     21  C   UNL     1       1.721   6.201  20.877  0.00  0.00    +0.000 C 
ENDBRANCH   1  19
TORSDOF 2
ENDMDL
MODEL 5
REMARK VINA RESULT:      -6.2      2.115      3.729
REMARK  Name = 
REMARK  5 active torsions:
REMARK  status: ('A' for Active; 'I' for Inactive)
REMARK    1  A    between atoms: C_1  and  C_2
REMARK    2  A    between atoms: C_2  and  C_3
REMARK    3  A    between atoms: C_2  and  C_4
REMARK    4  A    between atoms: C_2  and  C_5
REMARK    5  A    between atoms: C_11  and  C_12
REMARK                            x       y       z     vdW  Elec       q    Type
REMARK                         _______ _______ _______ _____ _____    ______ ____
ROOT
ATOM      1  C   UNL     1       1.450   4.746  18.812  0.00  0.00    +0.000 C 
ATOM      2  C   UNL     1       0.839   3.326  18.539  0.00  0.00    +0.000 C 
ATOM      3  C   UNL     1       1.855   2.184  18.330  0.00  0.00    +0.000 C 
ATOM      4  C   UNL     1       3.061   2.718  17.672  0.00  0.00    +0.000 A 
ATOM      5  O   UNL     1       4.110   1.916  17.421  0.00  0.00    +0.000 OA
ATOM      6  N   UNL     1       5.131   2.680  16.893  0.00  0.00    +0.000 NA
ATOM      7  C   UNL     1       4.664   3.940  16.773  0.00  0.00    +0.000 A 
ATOM      8  C   UNL     1       3.361   4.018  17.349  0.00  0.00    +0.000 A 
ATOM      9  C   UNL     1       2.414   5.122  17.630  0.00  0.00    +0.000 C 
ENDROOT
BRANCH   7  10
ATOM     10  C   UNL     1       5.471   5.045  16.220  0.00  0.00    +0.000 C 
ATOM     11  O   UNL     1       5.097   5.617  15.193  0.00  0.00    +0.000 OA
ATOM     12  N   UNL     1       6.655   5.439  16.857  0.00  0.00    +0.000 N 
ATOM     13  C   UNL     1       7.355   4.765  17.959  0.00  0.00    +0.000 C 
ATOM     14  C   UNL     1       7.487   5.723  19.147  0.00  0.00    +0.000 C 
ATOM     15  O   UNL     1       8.198   6.910  18.750  0.00  0.00    +0.000 OA
ATOM     16  C   UNL     1       7.511   7.591  17.685  0.00  0.00    +0.000 C 
ATOM     17  C   UNL     1       7.317   6.683  16.460  0.00  0.00    +0.000 C 
ENDBRANCH   7  10
BRANCH   1  19
ATOM     18  C   UNL     1       1.517   6.238  20.988  0.00  0.00    +0.000 C 
ATOM     19  C   UNL     1       2.025   4.973  20.272  0.00  0.00    +0.000 C 
ATOM     20  C   UNL     1       3.568   5.059  20.219  0.00  0.00    +0.000 C 
ATOM     21  C   UNL     1       1.679   3.773  21.185  0.00  0.00    +0.000 C 
ENDBRANCH   1  19
TORSDOF 2
ENDMDL
MODEL 6
REMARK VINA RESULT:      -6.1      2.352      5.350
REMARK  Name = 
REMARK  5 active torsions:
REMARK  status: ('A' for Active; 'I' for Inactive)
REMARK    1  A    between atoms: C_1  and  C_2
REMARK    2  A    between atoms: C_2  and  C_3
REMARK    3  A    between atoms: C_2  and  C_4
REMARK    4  A    between atoms: C_2  and  C_5
REMARK    5  A    between atoms: C_11  and  C_12
REMARK                            x       y       z     vdW  Elec       q    Type
REMARK                         _______ _______ _______ _____ _____    ______ ____
ROOT
ATOM      1  C   UNL     1       5.613   6.095  15.689  0.00  0.00    +0.000 C 
ATOM      2  C   UNL     1       6.936   6.833  16.101  0.00  0.00    +0.000 C 
ATOM      3  C   UNL     1       7.607   6.338  17.399  0.00  0.00    +0.000 C 
ATOM      4  C   UNL     1       6.571   5.886  18.343  0.00  0.00    +0.000 A 
ATOM      5  O   UNL     1       6.915   5.370  19.536  0.00  0.00    +0.000 OA
ATOM      6  N   UNL     1       5.770   4.944  20.177  0.00  0.00    +0.000 NA
ATOM      7  C   UNL     1       4.727   5.263  19.384  0.00  0.00    +0.000 A 
ATOM      8  C   UNL     1       5.215   5.793  18.153  0.00  0.00    +0.000 A 
ATOM      9  C   UNL     1       4.585   6.192  16.872  0.00  0.00    +0.000 C 
ENDROOT
BRANCH   7  10
ATOM     10  C   UNL     1       3.325   4.981  19.750  0.00  0.00    +0.000 C 
ATOM     11  O   UNL     1       2.574   5.913  20.047  0.00  0.00    +0.000 OA
ATOM     12  N   UNL     1       2.853   3.662  19.761  0.00  0.00    +0.000 N 
ATOM     13  C   UNL     1       3.632   2.422  19.631  0.00  0.00    +0.000 C 
ATOM     14  C   UNL     1       3.119   1.617  18.433  0.00  0.00    +0.000 C 
ATOM     15  O   UNL     1       1.721   1.318  18.598  0.00  0.00    +0.000 OA
ATOM     16  C   UNL     1       0.944   2.525  18.707  0.00  0.00    +0.000 C 
ATOM     17  C   UNL     1       1.417   3.402  19.877  0.00  0.00    +0.000 C 
ENDBRANCH   7  10
BRANCH   1  19
ATOM     18  C   UNL     1       5.503   3.476  15.999  0.00  0.00    +0.000 C 
ATOM     19  C   UNL     1       5.805   4.654  15.055  0.00  0.00    +0.000 C 
ATOM     20  C   UNL     1       7.261   4.490  14.560  0.00  0.00    +0.000 C 
ATOM     21  C   UNL     1       4.894   4.479  13.816  0.00  0.00    +0.000 C 
ENDBRANCH   1  19
TORSDOF 2
ENDMDL
MODEL 7
REMARK VINA RESULT:      -6.1      2.557      5.856
REMARK  Name = 
REMARK  5 active torsions:
REMARK  status: ('A' for Active; 'I' for Inactive)
REMARK    1  A    between atoms: C_1  and  C_2
REMARK    2  A    between atoms: C_2  and  C_3
REMARK    3  A    between atoms: C_2  and  C_4
REMARK    4  A    between atoms: C_2  and  C_5
REMARK    5  A    between atoms: C_11  and  C_12
REMARK                            x       y       z     vdW  Elec       q    Type
REMARK                         _______ _______ _______ _____ _____    ______ ____
ROOT
ATOM      1  C   UNL     1       6.133   5.572  17.572  0.00  0.00    +0.000 C 
ATOM      2  C   UNL     1       6.211   4.442  18.660  0.00  0.00    +0.000 C 
ATOM      3  C   UNL     1       4.862   3.854  19.119  0.00  0.00    +0.000 C 
ATOM      4  C   UNL     1       3.831   4.905  19.077  0.00  0.00    +0.000 A 
ATOM      5  O   UNL     1       2.556   4.622  19.396  0.00  0.00    +0.000 OA
ATOM      6  N   UNL     1       1.789   5.749  19.183  0.00  0.00    +0.000 NA
ATOM      7  C   UNL     1       2.625   6.732  18.790  0.00  0.00    +0.000 A 
ATOM      8  C   UNL     1       3.937   6.197  18.626  0.00  0.00    +0.000 A 
ATOM      9  C   UNL     1       5.219   6.731  18.107  0.00  0.00    +0.000 C 
ENDROOT
BRANCH   7  10
ATOM     10  C   UNL     1       2.167   8.102  18.489  0.00  0.00    +0.000 C 
ATOM     11  O   UNL     1       2.306   8.554  17.350  0.00  0.00    +0.000 OA
ATOM     12  N   UNL     1       1.580   8.884  19.493  0.00  0.00    +0.000 N 
ATOM     13  C   UNL     1       1.507   8.600  20.933  0.00  0.00    +0.000 C 
ATOM     14  C   UNL     1       0.042   8.579  21.379  0.00  0.00    +0.000 C 
ATOM     15  O   UNL     1      -0.586   9.840  21.082  0.00  0.00    +0.000 OA
ATOM     16  C   UNL     1      -0.539  10.121  19.671  0.00  0.00    +0.000 C 
ATOM     17  C   UNL     1       0.904  10.134  19.141  0.00  0.00    +0.000 C 
ENDBRANCH   7  10
BRANCH   1  19
ATOM     18  C   UNL     1       4.901   3.857  15.989  0.00  0.00    +0.000 C 
ATOM     19  C   UNL     1       5.832   5.078  16.096  0.00  0.00    +0.000 C 
ATOM     20  C   UNL     1       7.157   4.714  15.386  0.00  0.00    +0.000 C 
ATOM     21  C   UNL     1       5.181   6.210  15.266  0.00  0.00    +0.000 C 
ENDBRANCH   1  19
TORSDOF 2
ENDMDL
MODEL 8
REMARK VINA RESULT:      -6.0      2.361      5.239
REMARK  Name = 
REMARK  5 active torsions:
REMARK  status: ('A' for Active; 'I' for Inactive)
REMARK    1  A    between atoms: C_1  and  C_2
REMARK    2  A    between atoms: C_2  and  C_3
REMARK    3  A    between atoms: C_2  and  C_4
REMARK    4  A    between atoms: C_2  and  C_5
REMARK    5  A    between atoms: C_11  and  C_12
REMARK                            x       y       z     vdW  Elec       q    Type
REMARK                         _______ _______ _______ _____ _____    ______ ____
ROOT
ATOM      1  C   UNL     1       5.460   6.019  15.664  0.00  0.00    +0.000 C 
ATOM      2  C   UNL     1       6.812   6.730  16.028  0.00  0.00    +0.000 C 
ATOM      3  C   UNL     1       7.500   6.248  17.321  0.00  0.00    +0.000 C 
ATOM      4  C   UNL     1       6.475   5.848  18.300  0.00  0.00    +0.000 A 
ATOM      5  O   UNL     1       6.833   5.351  19.497  0.00  0.00    +0.000 OA
ATOM      6  N   UNL     1       5.693   4.972  20.175  0.00  0.00    +0.000 NA
ATOM      7  C   UNL     1       4.640   5.301  19.398  0.00  0.00    +0.000 A 
ATOM      8  C   UNL     1       5.112   5.788  18.143  0.00  0.00    +0.000 A 
ATOM      9  C   UNL     1       4.464   6.173  16.868  0.00  0.00    +0.000 C 
ENDROOT
BRANCH   7  10
ATOM     10  C   UNL     1       3.240   5.066  19.804  0.00  0.00    +0.000 C 
ATOM     11  O   UNL     1       2.524   6.024  20.104  0.00  0.00    +0.000 OA
ATOM     12  N   UNL     1       2.730   3.761  19.848  0.00  0.00    +0.000 N 
ATOM     13  C   UNL     1       3.470   2.498  19.719  0.00  0.00    +0.000 C 
ATOM     14  C   UNL     1       2.903   1.689  18.548  0.00  0.00    +0.000 C 
ATOM     15  O   UNL     1       1.501   1.434  18.753  0.00  0.00    +0.000 OA
ATOM     16  C   UNL     1       0.763   2.665  18.861  0.00  0.00    +0.000 C 
ATOM     17  C   UNL     1       1.291   3.546  20.004  0.00  0.00    +0.000 C 
ENDBRANCH   7  10
BRANCH   1  19
ATOM     18  C   UNL     1       5.129   4.404  13.604  0.00  0.00    +0.000 C 
ATOM     19  C   UNL     1       5.598   4.559  15.061  0.00  0.00    +0.000 C 
ATOM     20  C   UNL     1       4.784   3.561  15.919  0.00  0.00    +0.000 C 
ATOM     21  C   UNL     1       7.070   4.087  15.110  0.00  0.00    +0.000 C 
ENDBRANCH   1  19
TORSDOF 2
ENDMDL
MODEL 9
REMARK VINA RESULT:      -5.7      2.461      5.311
REMARK  Name = 
REMARK  5 active torsions:
REMARK  status: ('A' for Active; 'I' for Inactive)
REMARK    1  A    between atoms: C_1  and  C_2
REMARK    2  A    between atoms: C_2  and  C_3
REMARK    3  A    between atoms: C_2  and  C_4
REMARK    4  A    between atoms: C_2  and  C_5
REMARK    5  A    between atoms: C_11  and  C_12
REMARK                            x       y       z     vdW  Elec       q    Type
REMARK                         _______ _______ _______ _____ _____    ______ ____
ROOT
ATOM      1  C   UNL     1       2.404   3.200  18.143  0.00  0.00    +0.000 C 
ATOM      2  C   UNL     1       3.117   3.260  16.745  0.00  0.00    +0.000 C 
ATOM      3  C   UNL     1       4.157   4.386  16.568  0.00  0.00    +0.000 C 
ATOM      4  C   UNL     1       3.739   5.565  17.346  0.00  0.00    +0.000 A 
ATOM      5  O   UNL     1       4.511   6.665  17.382  0.00  0.00    +0.000 OA
ATOM      6  N   UNL     1       3.940   7.573  18.250  0.00  0.00    +0.000 NA
ATOM      7  C   UNL     1       2.785   7.033  18.690  0.00  0.00    +0.000 A 
ATOM      8  C   UNL     1       2.669   5.700  18.195  0.00  0.00    +0.000 A 
ATOM      9  C   UNL     1       1.720   4.585  18.426  0.00  0.00    +0.000 C 
ENDROOT
BRANCH   7  10
ATOM     10  C   UNL     1       1.880   7.728  19.626  0.00  0.00    +0.000 C 
ATOM     11  O   UNL     1       1.631   7.221  20.722  0.00  0.00    +0.000 OA
ATOM     12  N   UNL     1       1.306   8.955  19.269  0.00  0.00    +0.000 N 
ATOM     13  C   UNL     1       1.325   9.613  17.954  0.00  0.00    +0.000 C 
ATOM     14  C   UNL     1       1.961  11.000  18.083  0.00  0.00    +0.000 C 
ATOM     15  O   UNL     1       1.229  11.796  19.034  0.00  0.00    +0.000 OA
ATOM     16  C   UNL     1       1.221  11.172  20.331  0.00  0.00    +0.000 C 
ATOM     17  C   UNL     1       0.617   9.759  20.279  0.00  0.00    +0.000 C 
ENDBRANCH   7  10
BRANCH   1  19
ATOM     18  C   UNL     1       4.555   3.384  19.661  0.00  0.00    +0.000 C 
ATOM     19  C   UNL     1       3.272   2.602  19.327  0.00  0.00    +0.000 C 
ATOM     20  C   UNL     1       3.689   1.151  18.988  0.00  0.00    +0.000 C 
ATOM     21  C   UNL     1       2.440   2.531  20.629  0.00  0.00    +0.000 C 
ENDBRANCH   1  19
TORSDOF 2
ENDMDL
