MODEL 1
REMARK VINA RESULT:      -8.4      0.000      0.000
REMARK  Name = 
REMARK  6 active torsions:
REMARK  status: ('A' for Active; 'I' for Inactive)
REMARK    1  A    between atoms: C_1  and  C_2
REMARK    2  A    between atoms: C_4  and  C_5
REMARK    3  A    between atoms: N_9  and  C_10
REMARK    4  A    between atoms: C_10  and  C_11
REMARK    5  A    between atoms: N_13  and  C_14
REMARK    6  A    between atoms: C_20  and  C_21
REMARK                            x       y       z     vdW  Elec       q    Type
REMARK                         _______ _______ _______ _____ _____    ______ ____
ROOT
ATOM      1  C   UNL     1       3.105   4.049  20.209  0.00  0.00    +0.000 C 
ENDROOT
BRANCH   1  10
ATOM      2  C   UNL     1       6.417   3.964  13.421  0.00  0.00    +0.000 C 
ATOM      3  C   UNL     1       6.152   4.238  14.870  0.00  0.00    +0.000 A 
ATOM      4  C   UNL     1       7.033   5.023  15.626  0.00  0.00    +0.000 A 
ATOM      5  C   UNL     1       6.760   5.291  16.978  0.00  0.00    +0.000 A 
ATOM      6  C   UNL     1       7.706   6.099  17.807  0.00  0.00    +0.000 C 
ATOM      7  C   UNL     1       5.581   4.756  17.493  0.00  0.00    +0.000 A 
ATOM      8  C   UNL     1       5.017   4.890  18.849  0.00  0.00    +0.000 A 
ATOM      9  O   UNL     1       5.494   5.597  19.725  0.00  0.00    +0.000 OA
ATOM     10  N   UNL     1       3.857   4.147  18.975  0.00  0.00    +0.000 N 
ATOM     11  S   UNL     1       3.350   3.350  17.553  0.00  0.00    +0.000 S 
ATOM     12  C   UNL     1       4.773   3.973  16.681  0.00  0.00    +0.000 A 
ATOM     13  N   UNL     1       5.018   3.697  15.387  0.00  0.00    +0.000 NA
ENDBRANCH   1  10
BRANCH   1  14
ATOM     14  C   UNL     1       2.063   5.157  20.298  0.00  0.00    +0.000 C 
ATOM     15  O   UNL     1       0.866   4.903  20.407  0.00  0.00    +0.000 OA
ATOM     16  N   UNL     1       2.603   6.431  20.172  0.00  0.00    +0.000 N 
ATOM     17  H   UNL     1       3.511   6.481  19.707  0.00  0.00    +0.000 HD
BRANCH  16  18
ATOM     18  C   UNL     1       1.822   7.604  20.196  0.00  0.00    +0.000 A 
ATOM     19  C   UNL     1       1.080   7.941  21.338  0.00  0.00    +0.000 A 
ATOM     20  C   UNL     1       0.311   9.105  21.365  0.00  0.00    +0.000 A 
ATOM     21  C   UNL     1       0.278   9.923  20.246  0.00  0.00    +0.000 A 
ATOM     22  F   UNL     1      -0.478  11.029  20.257  0.00  0.00    +0.000 F 
ATOM     23  C   UNL     1       1.011   9.608  19.106  0.00  0.00    +0.000 A 
ATOM     24  C   UNL     1       1.801   8.447  19.069  0.00  0.00    +0.000 A 
ATOM     25  C   UNL     1       2.542   8.105  17.806  0.00  0.00    +0.000 C 
ENDBRANCH  16  18
ENDBRANCH   1  14
TORSDOF 3
ENDMDL
MODEL 2
REMARK VINA RESULT:      -7.1      4.441      8.924
REMARK  Name = 
REMARK  6 active torsions:
REMARK  status: ('A' for Active; 'I' for Inactive)
REMARK    1  A    between atoms: C_1  and  C_2
REMARK    2  A    between atoms: C_4  and  C_5
REMARK    3  A    between atoms: N_9  and  C_10
REMARK    4  A    between atoms: C_10  and  C_11
REMARK    5  A    between atoms: N_13  and  C_14
REMARK    6  A    between atoms: C_20  and  C_21
REMARK                            x       y       z     vdW  Elec       q    Type
REMARK                         _______ _______ _______ _____ _____    ______ ____
ROOT
ATOM      1  C   UNL     1       1.471   9.148  21.998  0.00  0.00    +0.000 C 
ENDROOT
BRANCH   1  10
ATOM      2  C   UNL     1      -4.250  14.061  22.423  0.00  0.00    +0.000 C 
ATOM      3  C   UNL     1      -3.055  13.311  21.919  0.00  0.00    +0.000 A 
ATOM      4  C   UNL     1      -2.458  13.647  20.696  0.00  0.00    +0.000 A 
ATOM      5  C   UNL     1      -1.324  12.949  20.246  0.00  0.00    +0.000 A 
ATOM      6  C   UNL     1      -0.696  13.273  18.929  0.00  0.00    +0.000 C 
ATOM      7  C   UNL     1      -0.838  11.947  21.083  0.00  0.00    +0.000 A 
ATOM      8  C   UNL     1       0.338  11.077  20.899  0.00  0.00    +0.000 A 
ATOM      9  O   UNL     1       1.135  11.183  19.978  0.00  0.00    +0.000 OA
ATOM     10  N   UNL     1       0.439  10.163  21.932  0.00  0.00    +0.000 N 
ATOM     11  S   UNL     1      -0.742  10.318  23.154  0.00  0.00    +0.000 S 
ATOM     12  C   UNL     1      -1.500  11.665  22.269  0.00  0.00    +0.000 A 
ATOM     13  N   UNL     1      -2.591  12.314  22.716  0.00  0.00    +0.000 NA
ENDBRANCH   1  10
BRANCH   1  14
ATOM     14  C   UNL     1       1.066   7.910  21.206  0.00  0.00    +0.000 C 
ATOM     15  O   UNL     1      -0.116   7.607  21.054  0.00  0.00    +0.000 OA
ATOM     16  N   UNL     1       2.149   7.163  20.761  0.00  0.00    +0.000 N 
ATOM     17  H   UNL     1       3.021   7.301  21.274  0.00  0.00    +0.000 HD
BRANCH  16  18
ATOM     18  C   UNL     1       2.009   5.964  20.034  0.00  0.00    +0.000 A 
ATOM     19  C   UNL     1       1.491   4.815  20.650  0.00  0.00    +0.000 A 
ATOM     20  C   UNL     1       1.345   3.629  19.929  0.00  0.00    +0.000 A 
ATOM     21  C   UNL     1       1.730   3.593  18.598  0.00  0.00    +0.000 A 
ATOM     22  F   UNL     1       1.616   2.450  17.907  0.00  0.00    +0.000 F 
ATOM     23  C   UNL     1       2.241   4.723  17.968  0.00  0.00    +0.000 A 
ATOM     24  C   UNL     1       2.380   5.928  18.676  0.00  0.00    +0.000 A 
ATOM     25  C   UNL     1       2.983   7.119  17.985  0.00  0.00    +0.000 C 
ENDBRANCH  16  18
ENDBRANCH   1  14
TORSDOF 3
ENDMDL
MODEL 3
REMARK VINA RESULT:      -7.0      3.223      5.455
REMARK  Name = 
REMARK  6 active torsions:
REMARK  status: ('A' for Active; 'I' for Inactive)
REMARK    1  A    between atoms: C_1  and  C_2
REMARK    2  A    between atoms: C_4  and  C_5
REMARK    3  A    between atoms: N_9  and  C_10
REMARK    4  A    between atoms: C_10  and  C_11
REMARK    5  A    between atoms: N_13  and  C_14
REMARK    6  A    between atoms: C_20  and  C_21
REMARK                            x       y       z     vdW  Elec       q    Type
REMARK                         _______ _______ _______ _____ _____    ______ ____
ROOT
ATOM      1  C   UNL     1       1.588   9.821  18.968  0.00  0.00    +0.000 C 
ENDROOT
BRANCH   1  10
ATOM      2  C   UNL     1       2.402   2.746  21.486  0.00  0.00    +0.000 C 
ATOM      3  C   UNL     1       2.518   3.975  20.636  0.00  0.00    +0.000 A 
ATOM      4  C   UNL     1       3.227   3.949  19.427  0.00  0.00    +0.000 A 
ATOM      5  C   UNL     1       3.309   5.102  18.630  0.00  0.00    +0.000 A 
ATOM      6  C   UNL     1       4.089   5.101  17.355  0.00  0.00    +0.000 C 
ATOM      7  C   UNL     1       2.640   6.232  19.098  0.00  0.00    +0.000 A 
ATOM      8  C   UNL     1       2.520   7.562  18.474  0.00  0.00    +0.000 A 
ATOM      9  O   UNL     1       2.942   7.840  17.361  0.00  0.00    +0.000 OA
ATOM     10  N   UNL     1       1.825   8.430  19.297  0.00  0.00    +0.000 N 
ATOM     11  S   UNL     1       1.239   7.741  20.745  0.00  0.00    +0.000 S 
ATOM     12  C   UNL     1       1.977   6.177  20.315  0.00  0.00    +0.000 A 
ATOM     13  N   UNL     1       1.892   5.087  21.099  0.00  0.00    +0.000 NA
ENDBRANCH   1  10
BRANCH   1  14
ATOM     14  C   UNL     1       0.272  10.302  19.567  0.00  0.00    +0.000 C 
ATOM     15  O   UNL     1      -0.805  10.058  19.026  0.00  0.00    +0.000 OA
ATOM     16  N   UNL     1       0.438  11.079  20.707  0.00  0.00    +0.000 N 
ATOM     17  H   UNL     1       1.353  11.518  20.812  0.00  0.00    +0.000 HD
BRANCH  16  18
ATOM     18  C   UNL     1      -0.640  11.655  21.409  0.00  0.00    +0.000 A 
ATOM     19  C   UNL     1      -1.304  12.779  20.896  0.00  0.00    +0.000 A 
ATOM     20  C   UNL     1      -2.377  13.345  21.586  0.00  0.00    +0.000 A 
ATOM     21  C   UNL     1      -2.773  12.792  22.794  0.00  0.00    +0.000 A 
ATOM     22  F   UNL     1      -3.786  13.347  23.474  0.00  0.00    +0.000 F 
ATOM     23  C   UNL     1      -2.131  11.675  23.317  0.00  0.00    +0.000 A 
ATOM     24  C   UNL     1      -1.060  11.085  22.626  0.00  0.00    +0.000 A 
ATOM     25  C   UNL     1      -0.351   9.909  23.239  0.00  0.00    +0.000 C 
ENDBRANCH  16  18
ENDBRANCH   1  14
TORSDOF 3
ENDMDL
MODEL 4
REMARK VINA RESULT:      -6.9      3.465      7.844
REMARK  Name = 
REMARK  6 active torsions:
REMARK  status: ('A' for Active; 'I' for Inactive)
REMARK    1  A    between atoms: C_1  and  C_2
REMARK    2  A    between atoms: C_4  and  C_5
REMARK    3  A    between atoms: N_9  and  C_10
REMARK    4  A    between atoms: C_10  and  C_11
REMARK    5  A    between atoms: N_13  and  C_14
REMARK    6  A    between atoms: C_20  and  C_21
REMARK                            x       y       z     vdW  Elec       q    Type
REMARK                         _______ _______ _______ _____ _____    ______ ____
ROOT
ATOM      1  C   UNL     1       2.282   6.740  20.060  0.00  0.00    +0.000 C 
ENDROOT
BRANCH   1  10
ATOM      2  C   UNL     1      -0.314  13.645  18.436  0.00  0.00    +0.000 C 
ATOM      3  C   UNL     1      -0.001  12.382  19.181  0.00  0.00    +0.000 A 
ATOM      4  C   UNL     1      -0.441  12.196  20.498  0.00  0.00    +0.000 A 
ATOM      5  C   UNL     1      -0.159  10.998  21.176  0.00  0.00    +0.000 A 
ATOM      6  C   UNL     1      -0.592  10.798  22.592  0.00  0.00    +0.000 C 
ATOM      7  C   UNL     1       0.547  10.031  20.464  0.00  0.00    +0.000 A 
ATOM      8  C   UNL     1       0.957   8.681  20.891  0.00  0.00    +0.000 A 
ATOM      9  O   UNL     1       0.640   8.171  21.956  0.00  0.00    +0.000 OA
ATOM     10  N   UNL     1       1.703   8.059  19.906  0.00  0.00    +0.000 N 
ATOM     11  S   UNL     1       1.891   8.955  18.466  0.00  0.00    +0.000 S 
ATOM     12  C   UNL     1       0.962  10.304  19.168  0.00  0.00    +0.000 A 
ATOM     13  N   UNL     1       0.711  11.446  18.502  0.00  0.00    +0.000 NA
ENDBRANCH   1  10
BRANCH   1  14
ATOM     14  C   UNL     1       2.657   6.152  18.705  0.00  0.00    +0.000 C 
ATOM     15  O   UNL     1       1.800   5.739  17.927  0.00  0.00    +0.000 OA
ATOM     16  N   UNL     1       4.029   6.076  18.499  0.00  0.00    +0.000 N 
ATOM     17  H   UNL     1       4.602   6.079  19.344  0.00  0.00    +0.000 HD
BRANCH  16  18
ATOM     18  C   UNL     1       4.603   5.540  17.329  0.00  0.00    +0.000 A 
ATOM     19  C   UNL     1       4.986   6.383  16.274  0.00  0.00    +0.000 A 
ATOM     20  C   UNL     1       5.561   5.855  15.118  0.00  0.00    +0.000 A 
ATOM     21  C   UNL     1       5.740   4.484  15.015  0.00  0.00    +0.000 A 
ATOM     22  F   UNL     1       6.268   3.968  13.897  0.00  0.00    +0.000 F 
ATOM     23  C   UNL     1       5.371   3.632  16.051  0.00  0.00    +0.000 A 
ATOM     24  C   UNL     1       4.805   4.151  17.227  0.00  0.00    +0.000 A 
ATOM     25  C   UNL     1       4.368   3.203  18.310  0.00  0.00    +0.000 C 
ENDBRANCH  16  18
ENDBRANCH   1  14
TORSDOF 3
ENDMDL
MODEL 5
REMARK VINA RESULT:      -6.9      5.683     10.400
REMARK  Name = 
REMARK  6 active torsions:
REMARK  status: ('A' for Active; 'I' for Inactive)
REMARK    1  A    between atoms: C_1  and  C_2
REMARK    2  A    between atoms: C_4  and  C_5
REMARK    3  A    between atoms: N_9  and  C_10
REMARK    4  A    between atoms: C_10  and  C_11
REMARK    5  A    between atoms: N_13  and  C_14
REMARK    6  A    between atoms: C_20  and  C_21
REMARK                            x       y       z     vdW  Elec       q    Type
REMARK                         _______ _______ _______ _____ _____    ______ ____
ROOT
ATOM      1  C   UNL     1      -1.468  12.321  18.377  0.00  0.00    +0.000 C 
ENDROOT
BRANCH   1  10
ATOM      2  C   UNL     1      -6.434  12.961  24.032  0.00  0.00    +0.000 C 
ATOM      3  C   UNL     1      -5.155  13.002  23.251  0.00  0.00    +0.000 A 
ATOM      4  C   UNL     1      -3.956  13.401  23.856  0.00  0.00    +0.000 A 
ATOM      5  C   UNL     1      -2.761  13.413  23.118  0.00  0.00    +0.000 A 
ATOM      6  C   UNL     1      -1.479  13.867  23.739  0.00  0.00    +0.000 C 
ATOM      7  C   UNL     1      -2.844  12.994  21.791  0.00  0.00    +0.000 A 
ATOM      8  C   UNL     1      -1.769  12.870  20.790  0.00  0.00    +0.000 A 
ATOM      9  O   UNL     1      -0.583  13.046  21.028  0.00  0.00    +0.000 OA
ATOM     10  N   UNL     1      -2.281  12.482  19.565  0.00  0.00    +0.000 N 
ATOM     11  S   UNL     1      -3.962  12.185  19.544  0.00  0.00    +0.000 S 
ATOM     12  C   UNL     1      -4.076  12.633  21.265  0.00  0.00    +0.000 A 
ATOM     13  N   UNL     1      -5.234  12.622  21.950  0.00  0.00    +0.000 NA
ENDBRANCH   1  10
BRANCH   1  14
ATOM     14  C   UNL     1      -0.873  10.920  18.313  0.00  0.00    +0.000 C 
ATOM     15  O   UNL     1      -1.484   9.988  17.794  0.00  0.00    +0.000 OA
ATOM     16  N   UNL     1       0.357  10.815  18.952  0.00  0.00    +0.000 N 
ATOM     17  H   UNL     1       0.551  11.530  19.654  0.00  0.00    +0.000 HD
BRANCH  16  18
ATOM     18  C   UNL     1       1.076   9.606  19.042  0.00  0.00    +0.000 A 
ATOM     19  C   UNL     1       1.804   9.128  17.942  0.00  0.00    +0.000 A 
ATOM     20  C   UNL     1       2.523   7.936  18.032  0.00  0.00    +0.000 A 
ATOM     21  C   UNL     1       2.500   7.218  19.218  0.00  0.00    +0.000 A 
ATOM     22  F   UNL     1       3.167   6.059  19.302  0.00  0.00    +0.000 F 
ATOM     23  C   UNL     1       1.788   7.678  20.322  0.00  0.00    +0.000 A 
ATOM     24  C   UNL     1       1.073   8.884  20.251  0.00  0.00    +0.000 A 
ATOM     25  C   UNL     1       0.270   9.331  21.441  0.00  0.00    +0.000 C 
ENDBRANCH  16  18
ENDBRANCH   1  14
TORSDOF 3
ENDMDL
MODEL 6
REMARK VINA RESULT:      -6.9      0.839      1.573
REMARK  Name = 
REMARK  6 active torsions:
REMARK  status: ('A' for Active; 'I' for Inactive)
REMARK    1  A    between atoms: C_1  and  C_2
REMARK    2  A    between atoms: C_4  and  C_5
REMARK    3  A    between atoms: N_9  and  C_10
REMARK    4  A    between atoms: C_10  and  C_11
REMARK    5  A    between atoms: N_13  and  C_14
REMARK    6  A    between atoms: C_20  and  C_21
REMARK                            x       y       z     vdW  Elec       q    Type
REMARK                         _______ _______ _______ _____ _____    ______ ____
ROOT
ATOM      1  C   UNL     1       2.868   4.818  20.395  0.00  0.00    +0.000 C 
ENDROOT
BRANCH   1  10
ATOM      2  C   UNL     1       6.103   3.833  13.641  0.00  0.00    +0.000 C 
ATOM      3  C   UNL     1       5.919   4.105  15.104  0.00  0.00    +0.000 A 
ATOM      4  C   UNL     1       7.011   4.438  15.916  0.00  0.00    +0.000 A 
ATOM      5  C   UNL     1       6.820   4.712  17.281  0.00  0.00    +0.000 A 
ATOM      6  C   UNL     1       7.979   5.036  18.168  0.00  0.00    +0.000 C 
ATOM      7  C   UNL     1       5.510   4.653  17.751  0.00  0.00    +0.000 A 
ATOM      8  C   UNL     1       5.000   4.919  19.108  0.00  0.00    +0.000 A 
ATOM      9  O   UNL     1       5.686   5.331  20.032  0.00  0.00    +0.000 OA
ATOM     10  N   UNL     1       3.639   4.684  19.176  0.00  0.00    +0.000 N 
ATOM     11  S   UNL     1       2.907   4.233  17.701  0.00  0.00    +0.000 S 
ATOM     12  C   UNL     1       4.488   4.298  16.882  0.00  0.00    +0.000 A 
ATOM     13  N   UNL     1       4.648   4.023  15.575  0.00  0.00    +0.000 NA
ENDBRANCH   1  10
BRANCH   1  14
ATOM     14  C   UNL     1       1.845   5.940  20.269  0.00  0.00    +0.000 C 
ATOM     15  O   UNL     1       0.650   5.743  20.480  0.00  0.00    +0.000 OA
ATOM     16  N   UNL     1       2.395   7.140  19.834  0.00  0.00    +0.000 N 
ATOM     17  H   UNL     1       3.281   7.062  19.334  0.00  0.00    +0.000 HD
BRANCH  16  18
ATOM     18  C   UNL     1       1.629   8.304  19.619  0.00  0.00    +0.000 A 
ATOM     19  C   UNL     1       1.314   8.716  18.316  0.00  0.00    +0.000 A 
ATOM     20  C   UNL     1       0.550   9.864  18.102  0.00  0.00    +0.000 A 
ATOM     21  C   UNL     1       0.115  10.603  19.192  0.00  0.00    +0.000 A 
ATOM     22  F   UNL     1      -0.597  11.720  18.992  0.00  0.00    +0.000 F 
ATOM     23  C   UNL     1       0.414  10.207  20.492  0.00  0.00    +0.000 A 
ATOM     24  C   UNL     1       1.169   9.046  20.723  0.00  0.00    +0.000 A 
ATOM     25  C   UNL     1       1.520   8.670  22.136  0.00  0.00    +0.000 C 
ENDBRANCH  16  18
ENDBRANCH   1  14
TORSDOF 3
ENDMDL
MODEL 7
REMARK VINA RESULT:      -6.8      2.972      4.404
REMARK  Name = 
REMARK  6 active torsions:
REMARK  status: ('A' for Active; 'I' for Inactive)
REMARK    1  A    between atoms: C_1  and  C_2
REMARK    2  A    between atoms: C_4  and  C_5
REMARK    3  A    between atoms: N_9  and  C_10
REMARK    4  A    between atoms: C_10  and  C_11
REMARK    5  A    between atoms: N_13  and  C_14
REMARK    6  A    between atoms: C_20  and  C_21
REMARK                            x       y       z     vdW  Elec       q    Type
REMARK                         _______ _______ _______ _____ _____    ______ ____
ROOT
ATOM      1  C   UNL     1       1.636   8.567  20.868  0.00  0.00    +0.000 C 
ENDROOT
BRANCH   1  10
ATOM      2  C   UNL     1       3.407   1.805  18.006  0.00  0.00    +0.000 C 
ATOM      3  C   UNL     1       3.315   3.289  18.195  0.00  0.00    +0.000 A 
ATOM      4  C   UNL     1       3.905   4.169  17.278  0.00  0.00    +0.000 A 
ATOM      5  C   UNL     1       3.791   5.558  17.457  0.00  0.00    +0.000 A 
ATOM      6  C   UNL     1       4.442   6.510  16.506  0.00  0.00    +0.000 C 
ATOM      7  C   UNL     1       3.058   5.986  18.562  0.00  0.00    +0.000 A 
ATOM      8  C   UNL     1       2.743   7.361  18.988  0.00  0.00    +0.000 A 
ATOM      9  O   UNL     1       3.026   8.362  18.346  0.00  0.00    +0.000 OA
ATOM     10  N   UNL     1       2.044   7.358  20.182  0.00  0.00    +0.000 N 
ATOM     11  S   UNL     1       1.673   5.811  20.799  0.00  0.00    +0.000 S 
ATOM     12  C   UNL     1       2.523   5.047  19.432  0.00  0.00    +0.000 A 
ATOM     13  N   UNL     1       2.625   3.714  19.286  0.00  0.00    +0.000 NA
ENDBRANCH   1  10
BRANCH   1  14
ATOM     14  C   UNL     1       0.247   9.003  20.418  0.00  0.00    +0.000 C 
ATOM     15  O   UNL     1      -0.768   8.550  20.943  0.00  0.00    +0.000 OA
ATOM     16  N   UNL     1       0.268   9.879  19.340  0.00  0.00    +0.000 N 
ATOM     17  H   UNL     1       1.116   9.858  18.772  0.00  0.00    +0.000 HD
BRANCH  16  18
ATOM     18  C   UNL     1      -0.901  10.389  18.740  0.00  0.00    +0.000 A 
ATOM     19  C   UNL     1      -1.408   9.811  17.566  0.00  0.00    +0.000 A 
ATOM     20  C   UNL     1      -2.569  10.310  16.975  0.00  0.00    +0.000 A 
ATOM     21  C   UNL     1      -3.213  11.394  17.553  0.00  0.00    +0.000 A 
ATOM     22  F   UNL     1      -4.314  11.893  16.976  0.00  0.00    +0.000 F 
ATOM     23  C   UNL     1      -2.728  11.977  18.720  0.00  0.00    +0.000 A 
ATOM     24  C   UNL     1      -1.569  11.476  19.334  0.00  0.00    +0.000 A 
ATOM     25  C   UNL     1      -1.039  12.159  20.565  0.00  0.00    +0.000 C 
ENDBRANCH  16  18
ENDBRANCH   1  14
TORSDOF 3
ENDMDL
MODEL 8
REMARK VINA RESULT:      -6.8      4.055      8.471
REMARK  Name = 
REMARK  6 active torsions:
REMARK  status: ('A' for Active; 'I' for Inactive)
REMARK    1  A    between atoms: C_1  and  C_2
REMARK    2  A    between atoms: C_4  and  C_5
REMARK    3  A    between atoms: N_9  and  C_10
REMARK    4  A    between atoms: C_10  and  C_11
REMARK    5  A    between atoms: N_13  and  C_14
REMARK    6  A    between atoms: C_20  and  C_21
REMARK                            x       y       z     vdW  Elec       q    Type
REMARK                         _______ _______ _______ _____ _____    ______ ____
ROOT
ATOM      1  C   UNL     1       2.104  10.106  18.290  0.00  0.00    +0.000 C 
ENDROOT
BRANCH   1  10
ATOM      2  C   UNL     1      -3.340  13.096  22.589  0.00  0.00    +0.000 C 
ATOM      3  C   UNL     1      -2.189  12.249  22.137  0.00  0.00    +0.000 A 
ATOM      4  C   UNL     1      -1.637  11.276  22.982  0.00  0.00    +0.000 A 
ATOM      5  C   UNL     1      -0.573  10.474  22.537  0.00  0.00    +0.000 A 
ATOM      6  C   UNL     1       0.049   9.456  23.437  0.00  0.00    +0.000 C 
ATOM      7  C   UNL     1      -0.133  10.690  21.233  0.00  0.00    +0.000 A 
ATOM      8  C   UNL     1       0.928   9.991  20.485  0.00  0.00    +0.000 A 
ATOM      9  O   UNL     1       1.540   9.020  20.905  0.00  0.00    +0.000 OA
ATOM     10  N   UNL     1       1.100  10.554  19.234  0.00  0.00    +0.000 N 
ATOM     11  S   UNL     1       0.025  11.826  18.858  0.00  0.00    +0.000 S 
ATOM     12  C   UNL     1      -0.724  11.686  20.469  0.00  0.00    +0.000 A 
ATOM     13  N   UNL     1      -1.737  12.472  20.876  0.00  0.00    +0.000 NA
ENDBRANCH   1  10
BRANCH   1  14
ATOM     14  C   UNL     1       1.898   8.639  17.936  0.00  0.00    +0.000 C 
ATOM     15  O   UNL     1       0.885   8.258  17.351  0.00  0.00    +0.000 OA
ATOM     16  N   UNL     1       2.914   7.812  18.399  0.00  0.00    +0.000 N 
ATOM     17  H   UNL     1       3.461   8.182  19.178  0.00  0.00    +0.000 HD
BRANCH  16  18
ATOM     18  C   UNL     1       2.916   6.416  18.211  0.00  0.00    +0.000 A 
ATOM     19  C   UNL     1       1.984   5.607  18.881  0.00  0.00    +0.000 A 
ATOM     20  C   UNL     1       1.980   4.225  18.690  0.00  0.00    +0.000 A 
ATOM     21  C   UNL     1       2.915   3.654  17.840  0.00  0.00    +0.000 A 
ATOM     22  F   UNL     1       2.932   2.325  17.672  0.00  0.00    +0.000 F 
ATOM     23  C   UNL     1       3.843   4.440  17.163  0.00  0.00    +0.000 A 
ATOM     24  C   UNL     1       3.850   5.834  17.334  0.00  0.00    +0.000 A 
ATOM     25  C   UNL     1       4.897   6.653  16.631  0.00  0.00    +0.000 C 
ENDBRANCH  16  18
ENDBRANCH   1  14
TORSDOF 3
ENDMDL
MODEL 9
REMARK VINA RESULT:      -6.8      4.510      9.098
REMARK  Name = 
REMARK  6 active torsions:
REMARK  status: ('A' for Active; 'I' for Inactive)
REMARK    1  A    between atoms: C_1  and  C_2
REMARK    2  A    between atoms: C_4  and  C_5
REMARK    3  A    between atoms: N_9  and  C_10
REMARK    4  A    between atoms: C_10  and  C_11
REMARK    5  A    between atoms: N_13  and  C_14
REMARK    6  A    between atoms: C_20  and  C_21
REMARK                            x       y       z     vdW  Elec       q    Type
REMARK                         _______ _______ _______ _____ _____    ______ ____
ROOT
ATOM      1  C   UNL     1       1.391   9.363  22.203  0.00  0.00    +0.000 C 
ENDROOT
BRANCH   1  10
ATOM      2  C   UNL     1      -2.181  15.711  20.203  0.00  0.00    +0.000 C 
ATOM      3  C   UNL     1      -1.832  14.441  20.917  0.00  0.00    +0.000 A 
ATOM      4  C   UNL     1      -2.647  13.947  21.945  0.00  0.00    +0.000 A 
ATOM      5  C   UNL     1      -2.320  12.743  22.591  0.00  0.00    +0.000 A 
ATOM      6  C   UNL     1      -3.160  12.219  23.711  0.00  0.00    +0.000 C 
ATOM      7  C   UNL     1      -1.177  12.085  22.140  0.00  0.00    +0.000 A 
ATOM      8  C   UNL     1      -0.606  10.804  22.594  0.00  0.00    +0.000 A 
ATOM      9  O   UNL     1      -1.134  10.067  23.413  0.00  0.00    +0.000 OA
ATOM     10  N   UNL     1       0.579  10.532  21.933  0.00  0.00    +0.000 N 
ATOM     11  S   UNL     1       1.024  11.675  20.746  0.00  0.00    +0.000 S 
ATOM     12  C   UNL     1      -0.416  12.653  21.129  0.00  0.00    +0.000 A 
ATOM     13  N   UNL     1      -0.705  13.808  20.502  0.00  0.00    +0.000 NA
ENDBRANCH   1  10
BRANCH   1  14
ATOM     14  C   UNL     1       0.989   8.204  21.298  0.00  0.00    +0.000 C 
ATOM     15  O   UNL     1      -0.188   7.991  21.016  0.00  0.00    +0.000 OA
ATOM     16  N   UNL     1       2.062   7.411  20.911  0.00  0.00    +0.000 N 
ATOM     17  H   UNL     1       2.886   7.460  21.512  0.00  0.00    +0.000 HD
BRANCH  16  18
ATOM     18  C   UNL     1       1.921   6.269  20.098  0.00  0.00    +0.000 A 
ATOM     19  C   UNL     1       1.441   5.066  20.640  0.00  0.00    +0.000 A 
ATOM     20  C   UNL     1       1.293   3.936  19.835  0.00  0.00    +0.000 A 
ATOM     21  C   UNL     1       1.637   4.009  18.494  0.00  0.00    +0.000 A 
ATOM     22  F   UNL     1       1.521   2.920  17.722  0.00  0.00    +0.000 F 
ATOM     23  C   UNL     1       2.110   5.193  17.937  0.00  0.00    +0.000 A 
ATOM     24  C   UNL     1       2.250   6.343  18.732  0.00  0.00    +0.000 A 
ATOM     25  C   UNL     1       2.812   7.594  18.116  0.00  0.00    +0.000 C 
ENDBRANCH  16  18
ENDBRANCH   1  14
TORSDOF 3
ENDMDL
