MODEL 1
REMARK VINA RESULT:      -8.4      0.000      0.000
REMARK  Name = 
REMARK  10 active torsions:
REMARK  status: ('A' for Active; 'I' for Inactive)
REMARK    1  A    between atoms: C_1  and  C_2
REMARK    2  A    between atoms: C_8  and  C_9
REMARK    3  A    between atoms: C_12  and  C_13
REMARK    4  A    between atoms: C_17  and  N_18
REMARK    5  A    between atoms: C_19  and  C_21
REMARK    6  A    between atoms: C_21  and  C_22
REMARK    7  A    between atoms: C_21  and  C_23
REMARK    8  A    between atoms: C_23  and  N_24
REMARK    9  A    between atoms: N_24  and  C_25
REMARK   10  A    between atoms: N_24  and  C_26
REMARK                            x       y       z     vdW  Elec       q    Type
REMARK                         _______ _______ _______ _____ _____    ______ ____
ROOT
ATOM      1  C   UNL     1      -0.936  11.997  22.011  0.00  0.00    +0.000 A 
ATOM      2  C   UNL     1      -0.201  12.364  20.883  0.00  0.00    +0.000 A 
ATOM      3  C   UNL     1       0.542  11.414  20.178  0.00  0.00    +0.000 A 
ATOM      4  C   UNL     1       0.549  10.060  20.556  0.00  0.00    +0.000 A 
ATOM      5  C   UNL     1      -0.204   9.705  21.689  0.00  0.00    +0.000 A 
ATOM      6  C   UNL     1      -0.929  10.659  22.413  0.00  0.00    +0.000 A 
ENDROOT
BRANCH   1  14
ATOM      7  C   UNL     1      -0.928  16.017  25.946  0.00  0.00    +0.000 C 
ATOM      8  C   UNL     1      -2.135  15.675  25.130  0.00  0.00    +0.000 A 
ATOM      9  C   UNL     1      -3.358  16.351  25.304  0.00  0.00    +0.000 A 
ATOM     10  C   UNL     1      -4.493  16.041  24.547  0.00  0.00    +0.000 A 
ATOM     11  C   UNL     1      -4.454  15.040  23.572  0.00  0.00    +0.000 A 
ATOM     12  C   UNL     1      -3.251  14.349  23.380  0.00  0.00    +0.000 A 
ATOM     13  N   UNL     1      -2.955  13.346  22.491  0.00  0.00    +0.000 NA
ATOM     14  C   UNL     1      -1.700  13.016  22.724  0.00  0.00    +0.000 A 
ATOM     15  N   UNL     1      -1.173  13.805  23.714  0.00  0.00    +0.000 N 
ATOM     16  C   UNL     1      -2.143  14.671  24.153  0.00  0.00    +0.000 A 
ATOM     17  H   UNL     1      -0.218  13.780  24.037  0.00  0.00    +0.000 HD
ENDBRANCH   1  14
BRANCH   4  18
ATOM     18  C   UNL     1       1.313   9.054  19.785  0.00  0.00    +0.000 A 
ATOM     19  C   UNL     1       1.667   9.267  18.442  0.00  0.00    +0.000 A 
ATOM     20  C   UNL     1       2.381   8.311  17.722  0.00  0.00    +0.000 A 
ATOM     21  C   UNL     1       2.739   7.106  18.320  0.00  0.00    +0.000 A 
ATOM     22  C   UNL     1       2.396   6.855  19.645  0.00  0.00    +0.000 A 
ATOM     23  C   UNL     1       1.707   7.835  20.369  0.00  0.00    +0.000 A 
BRANCH  22  24
ATOM     24  N   UNL     1       2.692   5.658  20.316  0.00  0.00    +0.000 N 
ATOM     25  C   UNL     1       1.848   4.599  20.570  0.00  0.00    +0.000 C 
ATOM     26  O   UNL     1       0.654   4.563  20.281  0.00  0.00    +0.000 OA
ATOM     27  H   UNL     1       3.654   5.546  20.645  0.00  0.00    +0.000 HD
BRANCH  25  28
ATOM     28  C   UNL     1       2.490   3.458  21.370  0.00  0.00    +0.000 C 
ATOM     29  C   UNL     1       1.377   2.504  21.827  0.00  0.00    +0.000 C 
BRANCH  28  30
ATOM     30  C   UNL     1       3.559   2.652  20.600  0.00  0.00    +0.000 C 
BRANCH  30  31
ATOM     31  N   UNL     1       3.652   2.944  19.145  0.00  0.00    +0.000 NA
ATOM     32  C   UNL     1       4.935   3.557  18.781  0.00  0.00    +0.000 C 
ATOM     33  C   UNL     1       3.467   1.700  18.385  0.00  0.00    +0.000 C 
ENDBRANCH  30  31
ENDBRANCH  28  30
ENDBRANCH  25  28
ENDBRANCH  22  24
ENDBRANCH   4  18
TORSDOF 6
ENDMDL
MODEL 2
REMARK VINA RESULT:      -7.9      0.993      1.943
REMARK  Name = 
REMARK  10 active torsions:
REMARK  status: ('A' for Active; 'I' for Inactive)
REMARK    1  A    between atoms: C_1  and  C_2
REMARK    2  A    between atoms: C_8  and  C_9
REMARK    3  A    between atoms: C_12  and  C_13
REMARK    4  A    between atoms: C_17  and  N_18
REMARK    5  A    between atoms: C_19  and  C_21
REMARK    6  A    between atoms: C_21  and  C_22
REMARK    7  A    between atoms: C_21  and  C_23
REMARK    8  A    between atoms: C_23  and  N_24
REMARK    9  A    between atoms: N_24  and  C_25
REMARK   10  A    between atoms: N_24  and  C_26
REMARK                            x       y       z     vdW  Elec       q    Type
REMARK                         _______ _______ _______ _____ _____    ______ ____
ROOT
ATOM      1  C   UNL     1      -1.323  11.760  21.396  0.00  0.00    +0.000 A 
ATOM      2  C   UNL     1      -1.492  11.426  20.052  0.00  0.00    +0.000 A 
ATOM      3  C   UNL     1      -0.622  10.530  19.427  0.00  0.00    +0.000 A 
ATOM      4  C   UNL     1       0.424   9.910  20.131  0.00  0.00    +0.000 A 
ATOM      5  C   UNL     1       0.575  10.249  21.487  0.00  0.00    +0.000 A 
ATOM      6  C   UNL     1      -0.279  11.167  22.110  0.00  0.00    +0.000 A 
ENDROOT
BRANCH   1  14
ATOM      7  C   UNL     1      -6.630  13.573  21.835  0.00  0.00    +0.000 C 
ATOM      8  C   UNL     1      -5.499  14.160  22.620  0.00  0.00    +0.000 A 
ATOM      9  C   UNL     1      -5.702  15.216  23.528  0.00  0.00    +0.000 A 
ATOM     10  C   UNL     1      -4.653  15.773  24.267  0.00  0.00    +0.000 A 
ATOM     11  C   UNL     1      -3.348  15.291  24.136  0.00  0.00    +0.000 A 
ATOM     12  C   UNL     1      -3.117  14.241  23.238  0.00  0.00    +0.000 A 
ATOM     13  N   UNL     1      -1.945  13.592  22.941  0.00  0.00    +0.000 NA
ATOM     14  C   UNL     1      -2.250  12.701  22.017  0.00  0.00    +0.000 A 
ATOM     15  N   UNL     1      -3.592  12.739  21.740  0.00  0.00    +0.000 N 
ATOM     16  C   UNL     1      -4.175  13.715  22.509  0.00  0.00    +0.000 A 
ATOM     17  H   UNL     1      -4.077  12.123  21.106  0.00  0.00    +0.000 HD
ENDBRANCH   1  14
BRANCH   4  18
ATOM     18  C   UNL     1       1.321   8.937  19.469  0.00  0.00    +0.000 A 
ATOM     19  C   UNL     1       1.832   9.163  18.181  0.00  0.00    +0.000 A 
ATOM     20  C   UNL     1       2.671   8.237  17.562  0.00  0.00    +0.000 A 
ATOM     21  C   UNL     1       3.000   7.050  18.209  0.00  0.00    +0.000 A 
ATOM     22  C   UNL     1       2.505   6.785  19.482  0.00  0.00    +0.000 A 
ATOM     23  C   UNL     1       1.689   7.736  20.106  0.00  0.00    +0.000 A 
BRANCH  22  24
ATOM     24  N   UNL     1       2.764   5.603  20.192  0.00  0.00    +0.000 N 
ATOM     25  C   UNL     1       1.865   4.632  20.576  0.00  0.00    +0.000 C 
ATOM     26  O   UNL     1       0.651   4.681  20.390  0.00  0.00    +0.000 OA
ATOM     27  H   UNL     1       3.738   5.428  20.445  0.00  0.00    +0.000 HD
BRANCH  25  28
ATOM     28  C   UNL     1       2.483   3.483  21.383  0.00  0.00    +0.000 C 
ATOM     29  C   UNL     1       1.375   2.469  21.704  0.00  0.00    +0.000 C 
BRANCH  28  30
ATOM     30  C   UNL     1       3.646   2.752  20.677  0.00  0.00    +0.000 C 
BRANCH  30  31
ATOM     31  N   UNL     1       3.708   2.927  19.202  0.00  0.00    +0.000 NA
ATOM     32  C   UNL     1       4.961   3.559  18.769  0.00  0.00    +0.000 C 
ATOM     33  C   UNL     1       3.563   1.619  18.548  0.00  0.00    +0.000 C 
ENDBRANCH  30  31
ENDBRANCH  28  30
ENDBRANCH  25  28
ENDBRANCH  22  24
ENDBRANCH   4  18
TORSDOF 6
ENDMDL
MODEL 3
REMARK VINA RESULT:      -7.9      3.719      5.681
REMARK  Name = 
REMARK  10 active torsions:
REMARK  status: ('A' for Active; 'I' for Inactive)
REMARK    1  A    between atoms: C_1  and  C_2
REMARK    2  A    between atoms: C_8  and  C_9
REMARK    3  A    between atoms: C_12  and  C_13
REMARK    4  A    between atoms: C_17  and  N_18
REMARK    5  A    between atoms: C_19  and  C_21
REMARK    6  A    between atoms: C_21  and  C_22
REMARK    7  A    between atoms: C_21  and  C_23
REMARK    8  A    between atoms: C_23  and  N_24
REMARK    9  A    between atoms: N_24  and  C_25
REMARK   10  A    between atoms: N_24  and  C_26
REMARK                            x       y       z     vdW  Elec       q    Type
REMARK                         _______ _______ _______ _____ _____    ______ ____
ROOT
ATOM      1  C   UNL     1       1.017   9.522  19.533  0.00  0.00    +0.000 A 
ATOM      2  C   UNL     1       1.261   8.565  20.518  0.00  0.00    +0.000 A 
ATOM      3  C   UNL     1       1.970   7.399  20.218  0.00  0.00    +0.000 A 
ATOM      4  C   UNL     1       2.490   7.166  18.933  0.00  0.00    +0.000 A 
ATOM      5  C   UNL     1       2.244   8.144  17.954  0.00  0.00    +0.000 A 
ATOM      6  C   UNL     1       1.511   9.301  18.244  0.00  0.00    +0.000 A 
ENDROOT
BRANCH   1  14
ATOM      7  C   UNL     1      -2.535  12.011  23.115  0.00  0.00    +0.000 C 
ATOM      8  C   UNL     1      -1.957  12.706  21.922  0.00  0.00    +0.000 A 
ATOM      9  C   UNL     1      -2.274  14.045  21.624  0.00  0.00    +0.000 A 
ATOM     10  C   UNL     1      -1.740  14.705  20.512  0.00  0.00    +0.000 A 
ATOM     11  C   UNL     1      -0.855  14.056  19.648  0.00  0.00    +0.000 A 
ATOM     12  C   UNL     1      -0.523  12.723  19.920  0.00  0.00    +0.000 A 
ATOM     13  N   UNL     1       0.320  11.879  19.240  0.00  0.00    +0.000 NA
ATOM     14  C   UNL     1       0.271  10.727  19.880  0.00  0.00    +0.000 A 
ATOM     15  N   UNL     1      -0.554  10.820  20.972  0.00  0.00    +0.000 N 
ATOM     16  C   UNL     1      -1.077  12.088  21.024  0.00  0.00    +0.000 A 
ATOM     17  H   UNL     1      -0.718  10.089  21.647  0.00  0.00    +0.000 HD
ENDBRANCH   1  14
BRANCH   4  18
ATOM     18  C   UNL     1       3.267   5.944  18.633  0.00  0.00    +0.000 A 
ATOM     19  C   UNL     1       3.537   4.981  19.618  0.00  0.00    +0.000 A 
ATOM     20  C   UNL     1       4.277   3.835  19.327  0.00  0.00    +0.000 A 
ATOM     21  C   UNL     1       4.786   3.637  18.047  0.00  0.00    +0.000 A 
ATOM     22  C   UNL     1       4.549   4.575  17.047  0.00  0.00    +0.000 A 
ATOM     23  C   UNL     1       3.778   5.705  17.342  0.00  0.00    +0.000 A 
BRANCH  22  24
ATOM     24  N   UNL     1       5.048   4.468  15.740  0.00  0.00    +0.000 N 
ATOM     25  C   UNL     1       6.095   5.162  15.173  0.00  0.00    +0.000 C 
ATOM     26  O   UNL     1       6.740   6.046  15.733  0.00  0.00    +0.000 OA
ATOM     27  H   UNL     1       4.593   3.781  15.133  0.00  0.00    +0.000 HD
BRANCH  25  28
ATOM     28  C   UNL     1       6.350   4.827  13.698  0.00  0.00    +0.000 C 
ATOM     29  C   UNL     1       7.803   5.194  13.365  0.00  0.00    +0.000 C 
BRANCH  28  30
ATOM     30  C   UNL     1       6.103   3.351  13.320  0.00  0.00    +0.000 C 
BRANCH  30  31
ATOM     31  N   UNL     1       5.745   3.108  11.897  0.00  0.00    +0.000 NA
ATOM     32  C   UNL     1       5.972   1.714  11.496  0.00  0.00    +0.000 C 
ATOM     33  C   UNL     1       4.335   3.460  11.682  0.00  0.00    +0.000 C 
ENDBRANCH  30  31
ENDBRANCH  28  30
ENDBRANCH  25  28
ENDBRANCH  22  24
ENDBRANCH   4  18
TORSDOF 6
ENDMDL
MODEL 4
REMARK VINA RESULT:      -7.9      3.223     11.413
REMARK  Name = 
REMARK  10 active torsions:
REMARK  status: ('A' for Active; 'I' for Inactive)
REMARK    1  A    between atoms: C_1  and  C_2
REMARK    2  A    between atoms: C_8  and  C_9
REMARK    3  A    between atoms: C_12  and  C_13
REMARK    4  A    between atoms: C_17  and  N_18
REMARK    5  A    between atoms: C_19  and  C_21
REMARK    6  A    between atoms: C_21  and  C_22
REMARK    7  A    between atoms: C_21  and  C_23
REMARK    8  A    between atoms: C_23  and  N_24
REMARK    9  A    between atoms: N_24  and  C_25
REMARK   10  A    between atoms: N_24  and  C_26
REMARK                            x       y       z     vdW  Elec       q    Type
REMARK                         _______ _______ _______ _____ _____    ______ ____
ROOT
ATOM      1  C   UNL     1       1.915   8.299  18.813  0.00  0.00    +0.000 A 
ATOM      2  C   UNL     1       1.667   8.225  20.185  0.00  0.00    +0.000 A 
ATOM      3  C   UNL     1       0.840   9.162  20.809  0.00  0.00    +0.000 A 
ATOM      4  C   UNL     1       0.205  10.182  20.080  0.00  0.00    +0.000 A 
ATOM      5  C   UNL     1       0.458  10.237  18.698  0.00  0.00    +0.000 A 
ATOM      6  C   UNL     1       1.307   9.316  18.073  0.00  0.00    +0.000 A 
ENDROOT
BRANCH   1  14
ATOM      7  C   UNL     1       2.788   2.871  17.620  0.00  0.00    +0.000 C 
ATOM      8  C   UNL     1       3.728   3.960  17.205  0.00  0.00    +0.000 A 
ATOM      9  C   UNL     1       4.902   3.684  16.479  0.00  0.00    +0.000 A 
ATOM     10  C   UNL     1       5.787   4.693  16.086  0.00  0.00    +0.000 A 
ATOM     11  C   UNL     1       5.533   6.032  16.395  0.00  0.00    +0.000 A 
ATOM     12  C   UNL     1       4.372   6.335  17.117  0.00  0.00    +0.000 A 
ATOM     13  N   UNL     1       3.897   7.555  17.529  0.00  0.00    +0.000 NA
ATOM     14  C   UNL     1       2.786   7.304  18.194  0.00  0.00    +0.000 A 
ATOM     15  N   UNL     1       2.518   5.959  18.189  0.00  0.00    +0.000 N 
ATOM     16  C   UNL     1       3.517   5.312  17.505  0.00  0.00    +0.000 A 
ATOM     17  H   UNL     1       1.702   5.523  18.588  0.00  0.00    +0.000 HD
ENDBRANCH   1  14
BRANCH   4  18
ATOM     18  C   UNL     1      -0.694  11.151  20.744  0.00  0.00    +0.000 A 
ATOM     19  C   UNL     1      -0.482  11.567  22.069  0.00  0.00    +0.000 A 
ATOM     20  C   UNL     1      -1.340  12.475  22.689  0.00  0.00    +0.000 A 
ATOM     21  C   UNL     1      -2.446  12.971  22.006  0.00  0.00    +0.000 A 
ATOM     22  C   UNL     1      -2.696  12.574  20.696  0.00  0.00    +0.000 A 
ATOM     23  C   UNL     1      -1.810  11.687  20.072  0.00  0.00    +0.000 A 
BRANCH  22  24
ATOM     24  N   UNL     1      -3.801  13.002  19.946  0.00  0.00    +0.000 N 
ATOM     25  C   UNL     1      -5.131  12.703  20.149  0.00  0.00    +0.000 C 
ATOM     26  O   UNL     1      -5.558  11.949  21.021  0.00  0.00    +0.000 OA
ATOM     27  H   UNL     1      -3.605  13.626  19.159  0.00  0.00    +0.000 HD
BRANCH  25  28
ATOM     28  C   UNL     1      -6.081  13.309  19.109  0.00  0.00    +0.000 C 
ATOM     29  C   UNL     1      -7.265  12.348  18.920  0.00  0.00    +0.000 C 
BRANCH  28  30
ATOM     30  C   UNL     1      -6.623  14.709  19.469  0.00  0.00    +0.000 C 
BRANCH  30  31
ATOM     31  N   UNL     1      -5.873  15.430  20.531  0.00  0.00    +0.000 NA
ATOM     32  C   UNL     1      -5.166  16.608  20.013  0.00  0.00    +0.000 C 
ATOM     33  C   UNL     1      -6.802  15.841  21.592  0.00  0.00    +0.000 C 
ENDBRANCH  30  31
ENDBRANCH  28  30
ENDBRANCH  25  28
ENDBRANCH  22  24
ENDBRANCH   4  18
TORSDOF 6
ENDMDL
MODEL 5
REMARK VINA RESULT:      -7.9      2.754      4.736
REMARK  Name = 
REMARK  10 active torsions:
REMARK  status: ('A' for Active; 'I' for Inactive)
REMARK    1  A    between atoms: C_1  and  C_2
REMARK    2  A    between atoms: C_8  and  C_9
REMARK    3  A    between atoms: C_12  and  C_13
REMARK    4  A    between atoms: C_17  and  N_18
REMARK    5  A    between atoms: C_19  and  C_21
REMARK    6  A    between atoms: C_21  and  C_22
REMARK    7  A    between atoms: C_21  and  C_23
REMARK    8  A    between atoms: C_23  and  N_24
REMARK    9  A    between atoms: N_24  and  C_25
REMARK   10  A    between atoms: N_24  and  C_26
REMARK                            x       y       z     vdW  Elec       q    Type
REMARK                         _______ _______ _______ _____ _____    ______ ____
ROOT
ATOM      1  C   UNL     1       0.781  10.463  19.816  0.00  0.00    +0.000 A 
ATOM      2  C   UNL     1       0.711   9.744  21.009  0.00  0.00    +0.000 A 
ATOM      3  C   UNL     1       1.136   8.415  21.064  0.00  0.00    +0.000 A 
ATOM      4  C   UNL     1       1.679   7.770  19.938  0.00  0.00    +0.000 A 
ATOM      5  C   UNL     1       1.752   8.512  18.747  0.00  0.00    +0.000 A 
ATOM      6  C   UNL     1       1.302   9.836  18.681  0.00  0.00    +0.000 A 
ENDROOT
BRANCH   1  14
ATOM      7  C   UNL     1      -2.856  14.274  21.789  0.00  0.00    +0.000 C 
ATOM      8  C   UNL     1      -1.779  14.606  20.804  0.00  0.00    +0.000 A 
ATOM      9  C   UNL     1      -1.612  15.913  20.307  0.00  0.00    +0.000 A 
ATOM     10  C   UNL     1      -0.609  16.235  19.386  0.00  0.00    +0.000 A 
ATOM     11  C   UNL     1       0.281  15.262  18.924  0.00  0.00    +0.000 A 
ATOM     12  C   UNL     1       0.136  13.953  19.401  0.00  0.00    +0.000 A 
ATOM     13  N   UNL     1       0.879  12.836  19.114  0.00  0.00    +0.000 NA
ATOM     14  C   UNL     1       0.326  11.850  19.794  0.00  0.00    +0.000 A 
ATOM     15  N   UNL     1      -0.730  12.314  20.536  0.00  0.00    +0.000 N 
ATOM     16  C   UNL     1      -0.875  13.659  20.306  0.00  0.00    +0.000 A 
ATOM     17  H   UNL     1      -1.283  11.765  21.175  0.00  0.00    +0.000 HD
ENDBRANCH   1  14
BRANCH   4  18
ATOM     18  C   UNL     1       2.157   6.372  20.014  0.00  0.00    +0.000 A 
ATOM     19  C   UNL     1       1.555   5.431  20.865  0.00  0.00    +0.000 A 
ATOM     20  C   UNL     1       2.017   4.117  20.935  0.00  0.00    +0.000 A 
ATOM     21  C   UNL     1       3.110   3.719  20.171  0.00  0.00    +0.000 A 
ATOM     22  C   UNL     1       3.740   4.625  19.324  0.00  0.00    +0.000 A 
ATOM     23  C   UNL     1       3.247   5.933  19.238  0.00  0.00    +0.000 A 
BRANCH  22  24
ATOM     24  N   UNL     1       4.863   4.315  18.542  0.00  0.00    +0.000 N 
ATOM     25  C   UNL     1       5.005   4.439  17.177  0.00  0.00    +0.000 C 
ATOM     26  O   UNL     1       4.120   4.807  16.406  0.00  0.00    +0.000 OA
ATOM     27  H   UNL     1       5.685   3.969  19.042  0.00  0.00    +0.000 HD
BRANCH  25  28
ATOM     28  C   UNL     1       6.360   3.966  16.637  0.00  0.00    +0.000 C 
ATOM     29  C   UNL     1       6.341   4.093  15.107  0.00  0.00    +0.000 C 
BRANCH  28  30
ATOM     30  C   UNL     1       7.579   4.735  17.191  0.00  0.00    +0.000 C 
BRANCH  30  31
ATOM     31  N   UNL     1       7.259   5.878  18.086  0.00  0.00    +0.000 NA
ATOM     32  C   UNL     1       7.985   5.808  19.361  0.00  0.00    +0.000 C 
ATOM     33  C   UNL     1       7.583   7.138  17.404  0.00  0.00    +0.000 C 
ENDBRANCH  30  31
ENDBRANCH  28  30
ENDBRANCH  25  28
ENDBRANCH  22  24
ENDBRANCH   4  18
TORSDOF 6
ENDMDL
MODEL 6
REMARK VINA RESULT:      -7.7      3.163     10.632
REMARK  Name = 
REMARK  10 active torsions:
REMARK  status: ('A' for Active; 'I' for Inactive)
REMARK    1  A    between atoms: C_1  and  C_2
REMARK    2  A    between atoms: C_8  and  C_9
REMARK    3  A    between atoms: C_12  and  C_13
REMARK    4  A    between atoms: C_17  and  N_18
REMARK    5  A    between atoms: C_19  and  C_21
REMARK    6  A    between atoms: C_21  and  C_22
REMARK    7  A    between atoms: C_21  and  C_23
REMARK    8  A    between atoms: C_23  and  N_24
REMARK    9  A    between atoms: N_24  and  C_25
REMARK   10  A    between atoms: N_24  and  C_26
REMARK                            x       y       z     vdW  Elec       q    Type
REMARK                         _______ _______ _______ _____ _____    ______ ____
ROOT
ATOM      1  C   UNL     1       1.266   8.567  20.344  0.00  0.00    +0.000 A 
ATOM      2  C   UNL     1       0.740   8.721  21.627  0.00  0.00    +0.000 A 
ATOM      3  C   UNL     1       0.072   9.893  21.987  0.00  0.00    +0.000 A 
ATOM      4  C   UNL     1      -0.126  10.937  21.066  0.00  0.00    +0.000 A 
ATOM      5  C   UNL     1       0.401  10.763  19.775  0.00  0.00    +0.000 A 
ATOM      6  C   UNL     1       1.095   9.600  19.419  0.00  0.00    +0.000 A 
ENDROOT
BRANCH   1  14
ATOM      7  C   UNL     1       2.201   3.168  21.619  0.00  0.00    +0.000 C 
ATOM      8  C   UNL     1       2.825   3.849  20.441  0.00  0.00    +0.000 A 
ATOM      9  C   UNL     1       3.696   3.166  19.571  0.00  0.00    +0.000 A 
ATOM     10  C   UNL     1       4.285   3.792  18.467  0.00  0.00    +0.000 A 
ATOM     11  C   UNL     1       4.023   5.134  18.179  0.00  0.00    +0.000 A 
ATOM     12  C   UNL     1       3.162   5.838  19.029  0.00  0.00    +0.000 A 
ATOM     13  N   UNL     1       2.741   7.143  18.957  0.00  0.00    +0.000 NA
ATOM     14  C   UNL     1       1.961   7.330  20.003  0.00  0.00    +0.000 A 
ATOM     15  N   UNL     1       1.842   6.169  20.725  0.00  0.00    +0.000 N 
ATOM     16  C   UNL     1       2.599   5.195  20.124  0.00  0.00    +0.000 A 
ATOM     17  H   UNL     1       1.262   6.043  21.540  0.00  0.00    +0.000 HD
ENDBRANCH   1  14
BRANCH   4  18
ATOM     18  C   UNL     1      -0.864  12.162  21.446  0.00  0.00    +0.000 A 
ATOM     19  C   UNL     1      -0.221  13.251  22.056  0.00  0.00    +0.000 A 
ATOM     20  C   UNL     1      -0.927  14.399  22.417  0.00  0.00    +0.000 A 
ATOM     21  C   UNL     1      -2.299  14.475  22.196  0.00  0.00    +0.000 A 
ATOM     22  C   UNL     1      -2.972  13.412  21.604  0.00  0.00    +0.000 A 
ATOM     23  C   UNL     1      -2.249  12.278  21.216  0.00  0.00    +0.000 A 
BRANCH  22  24
ATOM     24  N   UNL     1      -4.356  13.394  21.371  0.00  0.00    +0.000 N 
ATOM     25  C   UNL     1      -5.346  12.896  22.190  0.00  0.00    +0.000 C 
ATOM     26  O   UNL     1      -5.154  12.328  23.264  0.00  0.00    +0.000 OA
ATOM     27  H   UNL     1      -4.677  13.815  20.496  0.00  0.00    +0.000 HD
BRANCH  25  28
ATOM     28  C   UNL     1      -6.761  13.000  21.607  0.00  0.00    +0.000 C 
ATOM     29  C   UNL     1      -7.357  14.352  22.027  0.00  0.00    +0.000 C 
BRANCH  28  30
ATOM     30  C   UNL     1      -6.835  12.873  20.070  0.00  0.00    +0.000 C 
BRANCH  30  31
ATOM     31  N   UNL     1      -7.481  11.633  19.563  0.00  0.00    +0.000 NA
ATOM     32  C   UNL     1      -6.674  10.965  18.534  0.00  0.00    +0.000 C 
ATOM     33  C   UNL     1      -7.712  10.710  20.683  0.00  0.00    +0.000 C 
ENDBRANCH  30  31
ENDBRANCH  28  30
ENDBRANCH  25  28
ENDBRANCH  22  24
ENDBRANCH   4  18
TORSDOF 6
ENDMDL
MODEL 7
REMARK VINA RESULT:      -7.7      2.882     10.885
REMARK  Name = 
REMARK  10 active torsions:
REMARK  status: ('A' for Active; 'I' for Inactive)
REMARK    1  A    between atoms: C_1  and  C_2
REMARK    2  A    between atoms: C_8  and  C_9
REMARK    3  A    between atoms: C_12  and  C_13
REMARK    4  A    between atoms: C_17  and  N_18
REMARK    5  A    between atoms: C_19  and  C_21
REMARK    6  A    between atoms: C_21  and  C_22
REMARK    7  A    between atoms: C_21  and  C_23
REMARK    8  A    between atoms: C_23  and  N_24
REMARK    9  A    between atoms: N_24  and  C_25
REMARK   10  A    between atoms: N_24  and  C_26
REMARK                            x       y       z     vdW  Elec       q    Type
REMARK                         _______ _______ _______ _____ _____    ______ ____
ROOT
ATOM      1  C   UNL     1       2.013   7.635  19.254  0.00  0.00    +0.000 A 
ATOM      2  C   UNL     1       2.159   8.419  18.108  0.00  0.00    +0.000 A 
ATOM      3  C   UNL     1       1.691   9.734  18.082  0.00  0.00    +0.000 A 
ATOM      4  C   UNL     1       1.093  10.324  19.209  0.00  0.00    +0.000 A 
ATOM      5  C   UNL     1       0.962   9.525  20.358  0.00  0.00    +0.000 A 
ATOM      6  C   UNL     1       1.406   8.197  20.380  0.00  0.00    +0.000 A 
ENDROOT
BRANCH   1  14
ATOM      7  C   UNL     1       0.795   2.167  18.738  0.00  0.00    +0.000 C 
ATOM      8  C   UNL     1       2.185   2.678  18.955  0.00  0.00    +0.000 A 
ATOM      9  C   UNL     1       3.285   1.804  19.044  0.00  0.00    +0.000 A 
ATOM     10  C   UNL     1       4.589   2.269  19.247  0.00  0.00    +0.000 A 
ATOM     11  C   UNL     1       4.854   3.637  19.364  0.00  0.00    +0.000 A 
ATOM     12  C   UNL     1       3.777   4.528  19.281  0.00  0.00    +0.000 A 
ATOM     13  N   UNL     1       3.775   5.899  19.352  0.00  0.00    +0.000 NA
ATOM     14  C   UNL     1       2.512   6.264  19.245  0.00  0.00    +0.000 A 
ATOM     15  N   UNL     1       1.709   5.165  19.073  0.00  0.00    +0.000 N 
ATOM     16  C   UNL     1       2.492   4.038  19.090  0.00  0.00    +0.000 A 
ATOM     17  H   UNL     1       0.713   5.186  18.920  0.00  0.00    +0.000 HD
ENDBRANCH   1  14
BRANCH   4  18
ATOM     18  C   UNL     1       0.630  11.728  19.183  0.00  0.00    +0.000 A 
ATOM     19  C   UNL     1       1.476  12.777  18.786  0.00  0.00    +0.000 A 
ATOM     20  C   UNL     1       1.032  14.099  18.771  0.00  0.00    +0.000 A 
ATOM     21  C   UNL     1      -0.263  14.407  19.176  0.00  0.00    +0.000 A 
ATOM     22  C   UNL     1      -1.127  13.397  19.586  0.00  0.00    +0.000 A 
ATOM     23  C   UNL     1      -0.682  12.070  19.567  0.00  0.00    +0.000 A 
BRANCH  22  24
ATOM     24  N   UNL     1      -2.437  13.622  20.036  0.00  0.00    +0.000 N 
ATOM     25  C   UNL     1      -2.857  13.890  21.320  0.00  0.00    +0.000 C 
ATOM     26  O   UNL     1      -2.127  13.925  22.309  0.00  0.00    +0.000 OA
ATOM     27  H   UNL     1      -3.173  13.601  19.326  0.00  0.00    +0.000 HD
BRANCH  25  28
ATOM     28  C   UNL     1      -4.376  14.043  21.469  0.00  0.00    +0.000 C 
ATOM     29  C   UNL     1      -5.053  12.874  20.739  0.00  0.00    +0.000 C 
BRANCH  28  30
ATOM     30  C   UNL     1      -4.880  14.085  22.928  0.00  0.00    +0.000 C 
BRANCH  30  31
ATOM     31  N   UNL     1      -5.236  12.767  23.518  0.00  0.00    +0.000 NA
ATOM     32  C   UNL     1      -4.359  12.404  24.639  0.00  0.00    +0.000 C 
ATOM     33  C   UNL     1      -6.632  12.797  23.974  0.00  0.00    +0.000 C 
ENDBRANCH  30  31
ENDBRANCH  28  30
ENDBRANCH  25  28
ENDBRANCH  22  24
ENDBRANCH   4  18
TORSDOF 6
ENDMDL
MODEL 8
REMARK VINA RESULT:      -7.7      3.389     10.620
REMARK  Name = 
REMARK  10 active torsions:
REMARK  status: ('A' for Active; 'I' for Inactive)
REMARK    1  A    between atoms: C_1  and  C_2
REMARK    2  A    between atoms: C_8  and  C_9
REMARK    3  A    between atoms: C_12  and  C_13
REMARK    4  A    between atoms: C_17  and  N_18
REMARK    5  A    between atoms: C_19  and  C_21
REMARK    6  A    between atoms: C_21  and  C_22
REMARK    7  A    between atoms: C_21  and  C_23
REMARK    8  A    between atoms: C_23  and  N_24
REMARK    9  A    between atoms: N_24  and  C_25
REMARK   10  A    between atoms: N_24  and  C_26
REMARK                            x       y       z     vdW  Elec       q    Type
REMARK                         _______ _______ _______ _____ _____    ______ ____
ROOT
ATOM      1  C   UNL     1       1.465   8.745  19.365  0.00  0.00    +0.000 A 
ATOM      2  C   UNL     1       1.087   9.607  18.335  0.00  0.00    +0.000 A 
ATOM      3  C   UNL     1       0.293  10.725  18.599  0.00  0.00    +0.000 A 
ATOM      4  C   UNL     1      -0.121  11.040  19.906  0.00  0.00    +0.000 A 
ATOM      5  C   UNL     1       0.276  10.167  20.933  0.00  0.00    +0.000 A 
ATOM      6  C   UNL     1       1.050   9.031  20.668  0.00  0.00    +0.000 A 
ENDROOT
BRANCH   1  14
ATOM      7  C   UNL     1       5.121   6.369  15.811  0.00  0.00    +0.000 C 
ATOM      8  C   UNL     1       4.659   5.706  17.071  0.00  0.00    +0.000 A 
ATOM      9  C   UNL     1       5.120   4.430  17.444  0.00  0.00    +0.000 A 
ATOM     10  C   UNL     1       4.694   3.801  18.619  0.00  0.00    +0.000 A 
ATOM     11  C   UNL     1       3.790   4.426  19.481  0.00  0.00    +0.000 A 
ATOM     12  C   UNL     1       3.313   5.696  19.133  0.00  0.00    +0.000 A 
ATOM     13  N   UNL     1       2.440   6.513  19.807  0.00  0.00    +0.000 NA
ATOM     14  C   UNL     1       2.294   7.585  19.053  0.00  0.00    +0.000 A 
ATOM     15  N   UNL     1       3.077   7.492  17.931  0.00  0.00    +0.000 N 
ATOM     16  C   UNL     1       3.744   6.292  17.955  0.00  0.00    +0.000 A 
ATOM     17  H   UNL     1       3.177   8.205  17.226  0.00  0.00    +0.000 HD
ENDBRANCH   1  14
BRANCH   4  18
ATOM     18  C   UNL     1      -0.935  12.244  20.181  0.00  0.00    +0.000 A 
ATOM     19  C   UNL     1      -0.355  13.519  20.283  0.00  0.00    +0.000 A 
ATOM     20  C   UNL     1      -1.130  14.648  20.550  0.00  0.00    +0.000 A 
ATOM     21  C   UNL     1      -2.502  14.524  20.745  0.00  0.00    +0.000 A 
ATOM     22  C   UNL     1      -3.112  13.276  20.662  0.00  0.00    +0.000 A 
ATOM     23  C   UNL     1      -2.329  12.155  20.362  0.00  0.00    +0.000 A 
BRANCH  22  24
ATOM     24  N   UNL     1      -4.482  13.059  20.872  0.00  0.00    +0.000 N 
ATOM     25  C   UNL     1      -5.118  12.744  22.053  0.00  0.00    +0.000 C 
ATOM     26  O   UNL     1      -4.554  12.550  23.128  0.00  0.00    +0.000 OA
ATOM     27  H   UNL     1      -5.090  13.161  20.057  0.00  0.00    +0.000 HD
BRANCH  25  28
ATOM     28  C   UNL     1      -6.631  12.532  21.919  0.00  0.00    +0.000 C 
ATOM     29  C   UNL     1      -7.333  13.864  22.219  0.00  0.00    +0.000 C 
BRANCH  28  30
ATOM     30  C   UNL     1      -7.090  12.020  20.536  0.00  0.00    +0.000 C 
BRANCH  30  31
ATOM     31  N   UNL     1      -6.794  10.591  20.255  0.00  0.00    +0.000 NA
ATOM     32  C   UNL     1      -7.820   9.692  20.798  0.00  0.00    +0.000 C 
ATOM     33  C   UNL     1      -6.684  10.392  18.803  0.00  0.00    +0.000 C 
ENDBRANCH  30  31
ENDBRANCH  28  30
ENDBRANCH  25  28
ENDBRANCH  22  24
ENDBRANCH   4  18
TORSDOF 6
ENDMDL
MODEL 9
REMARK VINA RESULT:      -7.6      2.703     10.685
REMARK  Name = 
REMARK  10 active torsions:
REMARK  status: ('A' for Active; 'I' for Inactive)
REMARK    1  A    between atoms: C_1  and  C_2
REMARK    2  A    between atoms: C_8  and  C_9
REMARK    3  A    between atoms: C_12  and  C_13
REMARK    4  A    between atoms: C_17  and  N_18
REMARK    5  A    between atoms: C_19  and  C_21
REMARK    6  A    between atoms: C_21  and  C_22
REMARK    7  A    between atoms: C_21  and  C_23
REMARK    8  A    between atoms: C_23  and  N_24
REMARK    9  A    between atoms: N_24  and  C_25
REMARK   10  A    between atoms: N_24  and  C_26
REMARK                            x       y       z     vdW  Elec       q    Type
REMARK                         _______ _______ _______ _____ _____    ______ ____
ROOT
ATOM      1  C   UNL     1       1.962   7.874  19.057  0.00  0.00    +0.000 A 
ATOM      2  C   UNL     1       1.446   8.347  20.264  0.00  0.00    +0.000 A 
ATOM      3  C   UNL     1       0.949   9.648  20.364  0.00  0.00    +0.000 A 
ATOM      4  C   UNL     1       0.918  10.509  19.253  0.00  0.00    +0.000 A 
ATOM      5  C   UNL     1       1.432  10.015  18.042  0.00  0.00    +0.000 A 
ATOM      6  C   UNL     1       1.955   8.720  17.945  0.00  0.00    +0.000 A 
ENDROOT
BRANCH   1  14
ATOM      7  C   UNL     1       2.347   2.841  21.541  0.00  0.00    +0.000 C 
ATOM      8  C   UNL     1       2.952   3.141  20.205  0.00  0.00    +0.000 A 
ATOM      9  C   UNL     1       3.662   2.164  19.482  0.00  0.00    +0.000 A 
ATOM     10  C   UNL     1       4.232   2.433  18.232  0.00  0.00    +0.000 A 
ATOM     11  C   UNL     1       4.109   3.694  17.643  0.00  0.00    +0.000 A 
ATOM     12  C   UNL     1       3.408   4.685  18.342  0.00  0.00    +0.000 A 
ATOM     13  N   UNL     1       3.142   5.982  17.980  0.00  0.00    +0.000 NA
ATOM     14  C   UNL     1       2.475   6.509  18.989  0.00  0.00    +0.000 A 
ATOM     15  N   UNL     1       2.278   5.574  19.973  0.00  0.00    +0.000 N 
ATOM     16  C   UNL     1       2.863   4.395  19.586  0.00  0.00    +0.000 A 
ATOM     17  H   UNL     1       1.754   5.719  20.821  0.00  0.00    +0.000 HD
ENDBRANCH   1  14
BRANCH   4  18
ATOM     18  C   UNL     1       0.359  11.875  19.360  0.00  0.00    +0.000 A 
ATOM     19  C   UNL     1       1.123  13.011  19.046  0.00  0.00    +0.000 A 
ATOM     20  C   UNL     1       0.590  14.295  19.156  0.00  0.00    +0.000 A 
ATOM     21  C   UNL     1      -0.714  14.475  19.608  0.00  0.00    +0.000 A 
ATOM     22  C   UNL     1      -1.498  13.374  19.939  0.00  0.00    +0.000 A 
ATOM     23  C   UNL     1      -0.964  12.089  19.794  0.00  0.00    +0.000 A 
BRANCH  22  24
ATOM     24  N   UNL     1      -2.810  13.467  20.428  0.00  0.00    +0.000 N 
ATOM     25  C   UNL     1      -3.934  12.819  19.965  0.00  0.00    +0.000 C 
ATOM     26  O   UNL     1      -3.966  12.072  18.988  0.00  0.00    +0.000 OA
ATOM     27  H   UNL     1      -2.953  14.078  21.235  0.00  0.00    +0.000 HD
BRANCH  25  28
ATOM     28  C   UNL     1      -5.225  13.184  20.707  0.00  0.00    +0.000 C 
ATOM     29  C   UNL     1      -6.148  11.956  20.703  0.00  0.00    +0.000 C 
BRANCH  28  30
ATOM     30  C   UNL     1      -5.020  13.655  22.164  0.00  0.00    +0.000 C 
BRANCH  30  31
ATOM     31  N   UNL     1      -5.048  12.580  23.191  0.00  0.00    +0.000 NA
ATOM     32  C   UNL     1      -3.809  12.528  23.977  0.00  0.00    +0.000 C 
ATOM     33  C   UNL     1      -6.192  12.792  24.089  0.00  0.00    +0.000 C 
ENDBRANCH  30  31
ENDBRANCH  28  30
ENDBRANCH  25  28
ENDBRANCH  22  24
ENDBRANCH   4  18
TORSDOF 6
ENDMDL
