MODEL 1
REMARK VINA RESULT:      -4.8      0.000      0.000
REMARK  Name = 
REMARK  5 active torsions:
REMARK  status: ('A' for Active; 'I' for Inactive)
REMARK    1  A    between atoms: C_2  and  O_3
REMARK    2  A    between atoms: C_2  and  C_4
REMARK    3  A    between atoms: C_4  and  C_6
REMARK    4  A    between atoms: C_6  and  C_8
REMARK    5  A    between atoms: C_8  and  O_10
REMARK                            x       y       z     vdW  Elec       q    Type
REMARK                         _______ _______ _______ _____ _____    ______ ____
ROOT
ATOM      1  C   UNL     1       6.037   4.100  16.533  0.00  0.00    +0.000 C 
ATOM      2 BR   UNL     1       5.713   4.664  14.674  0.00  0.00    +0.000 Br
ENDROOT
BRANCH   1   4
ATOM      3  O   UNL     1       7.587   5.957  16.652  0.00  0.00    +0.000 OA
ATOM      4  C   UNL     1       7.324   4.797  16.928  0.00  0.00    +0.000 C 
BRANCH   4   5
ATOM      5  O   UNL     1       8.163   4.033  17.665  0.00  0.00    +0.000 OA
ATOM      6  H   UNL     1       8.009   4.016  18.630  0.00  0.00    +0.000 HD
ENDBRANCH   4   5
ENDBRANCH   1   4
BRANCH   1   7
ATOM      7  C   UNL     1       4.893   4.541  17.426  0.00  0.00    +0.000 C 
ATOM      8 BR   UNL     1       4.516   6.451  17.160  0.00  0.00    +0.000 Br
BRANCH   7   9
ATOM      9  C   UNL     1       5.261   4.435  18.895  0.00  0.00    +0.000 C 
ATOM     10  O   UNL     1       5.291   5.390  19.658  0.00  0.00    +0.000 OA
BRANCH   9  11
ATOM     11  O   UNL     1       5.520   3.173  19.313  0.00  0.00    +0.000 OA
ATOM     12  H   UNL     1       4.942   2.827  20.022  0.00  0.00    +0.000 HD
ENDBRANCH   9  11
ENDBRANCH   7   9
ENDBRANCH   1   7
TORSDOF 5
ENDMDL
MODEL 2
REMARK VINA RESULT:      -4.7      3.894      5.524
REMARK  Name = 
REMARK  5 active torsions:
REMARK  status: ('A' for Active; 'I' for Inactive)
REMARK    1  A    between atoms: C_2  and  O_3
REMARK    2  A    between atoms: C_2  and  C_4
REMARK    3  A    between atoms: C_4  and  C_6
REMARK    4  A    between atoms: C_6  and  C_8
REMARK    5  A    between atoms: C_8  and  O_10
REMARK                            x       y       z     vdW  Elec       q    Type
REMARK                         _______ _______ _______ _____ _____    ______ ____
ROOT
ATOM      1  C   UNL     1       2.330   2.547  19.779  0.00  0.00    +0.000 C 
ATOM      2 BR   UNL     1       2.303   2.725  21.741  0.00  0.00    +0.000 Br
ENDROOT
BRANCH   1   4
ATOM      3  O   UNL     1       0.327   2.116  18.490  0.00  0.00    +0.000 OA
ATOM      4  C   UNL     1       0.893   2.770  19.352  0.00  0.00    +0.000 C 
BRANCH   4   5
ATOM      5  O   UNL     1       0.253   3.741  20.044  0.00  0.00    +0.000 OA
ATOM      6  H   UNL     1      -0.226   3.464  20.848  0.00  0.00    +0.000 HD
ENDBRANCH   4   5
ENDBRANCH   1   4
BRANCH   1   7
ATOM      7  C   UNL     1       3.240   3.594  19.166  0.00  0.00    +0.000 C 
ATOM      8 BR   UNL     1       3.042   3.609  17.211  0.00  0.00    +0.000 Br
BRANCH   7   9
ATOM      9  C   UNL     1       4.703   3.260  19.391  0.00  0.00    +0.000 C 
ATOM     10  O   UNL     1       5.601   4.091  19.362  0.00  0.00    +0.000 OA
BRANCH   9  11
ATOM     11  O   UNL     1       4.940   1.957  19.669  0.00  0.00    +0.000 OA
ATOM     12  H   UNL     1       4.856   1.334  18.920  0.00  0.00    +0.000 HD
ENDBRANCH   9  11
ENDBRANCH   7   9
ENDBRANCH   1   7
TORSDOF 5
ENDMDL
MODEL 3
REMARK VINA RESULT:      -4.7      0.395      1.020
REMARK  Name = 
REMARK  5 active torsions:
REMARK  status: ('A' for Active; 'I' for Inactive)
REMARK    1  A    between atoms: C_2  and  O_3
REMARK    2  A    between atoms: C_2  and  C_4
REMARK    3  A    between atoms: C_4  and  C_6
REMARK    4  A    between atoms: C_6  and  C_8
REMARK    5  A    between atoms: C_8  and  O_10
REMARK                            x       y       z     vdW  Elec       q    Type
REMARK                         _______ _______ _______ _____ _____    ______ ____
ROOT
ATOM      1  C   UNL     1       5.911   4.023  16.478  0.00  0.00    +0.000 C 
ATOM      2 BR   UNL     1       5.708   4.394  14.554  0.00  0.00    +0.000 Br
ENDROOT
BRANCH   1   4
ATOM      3  O   UNL     1       7.864   4.420  17.854  0.00  0.00    +0.000 OA
ATOM      4  C   UNL     1       7.206   4.711  16.868  0.00  0.00    +0.000 C 
BRANCH   4   5
ATOM      5  O   UNL     1       7.610   5.664  15.997  0.00  0.00    +0.000 OA
ATOM      6  H   UNL     1       6.909   6.178  15.552  0.00  0.00    +0.000 HD
ENDBRANCH   4   5
ENDBRANCH   1   4
BRANCH   1   7
ATOM      7  C   UNL     1       4.744   4.599  17.254  0.00  0.00    +0.000 C 
ATOM      8 BR   UNL     1       4.644   6.545  16.993  0.00  0.00    +0.000 Br
BRANCH   7   9
ATOM      9  C   UNL     1       4.933   4.432  18.750  0.00  0.00    +0.000 C 
ATOM     10  O   UNL     1       4.743   5.328  19.563  0.00  0.00    +0.000 OA
BRANCH   9  11
ATOM     11  O   UNL     1       5.296   3.184  19.129  0.00  0.00    +0.000 OA
ATOM     12  H   UNL     1       5.662   2.610  18.427  0.00  0.00    +0.000 HD
ENDBRANCH   9  11
ENDBRANCH   7   9
ENDBRANCH   1   7
TORSDOF 5
ENDMDL
MODEL 4
REMARK VINA RESULT:      -4.7      1.426      3.317
REMARK  Name = 
REMARK  5 active torsions:
REMARK  status: ('A' for Active; 'I' for Inactive)
REMARK    1  A    between atoms: C_2  and  O_3
REMARK    2  A    between atoms: C_2  and  C_4
REMARK    3  A    between atoms: C_4  and  C_6
REMARK    4  A    between atoms: C_6  and  C_8
REMARK    5  A    between atoms: C_8  and  O_10
REMARK                            x       y       z     vdW  Elec       q    Type
REMARK                         _______ _______ _______ _____ _____    ______ ____
ROOT
ATOM      1  C   UNL     1       5.028   5.297  18.603  0.00  0.00    +0.000 C 
ATOM      2 BR   UNL     1       3.411   6.295  18.085  0.00  0.00    +0.000 Br
ENDROOT
BRANCH   1   4
ATOM      3  O   UNL     1       3.512   3.433  18.307  0.00  0.00    +0.000 OA
ATOM      4  C   UNL     1       4.563   3.862  18.756  0.00  0.00    +0.000 C 
BRANCH   4   5
ATOM      5  O   UNL     1       5.440   3.063  19.406  0.00  0.00    +0.000 OA
ATOM      6  H   UNL     1       5.265   2.102  19.375  0.00  0.00    +0.000 HD
ENDBRANCH   4   5
ENDBRANCH   1   4
BRANCH   1   7
ATOM      7  C   UNL     1       6.085   5.405  17.521  0.00  0.00    +0.000 C 
ATOM      8 BR   UNL     1       5.620   4.256  15.996  0.00  0.00    +0.000 Br
BRANCH   7   9
ATOM      9  C   UNL     1       7.424   4.872  17.995  0.00  0.00    +0.000 C 
ATOM     10  O   UNL     1       7.871   5.061  19.118  0.00  0.00    +0.000 OA
BRANCH   9  11
ATOM     11  O   UNL     1       8.082   4.125  17.077  0.00  0.00    +0.000 OA
ATOM     12  H   UNL     1       8.384   3.244  17.376  0.00  0.00    +0.000 HD
ENDBRANCH   9  11
ENDBRANCH   7   9
ENDBRANCH   1   7
TORSDOF 5
ENDMDL
MODEL 5
REMARK VINA RESULT:      -4.7      3.225      4.774
REMARK  Name = 
REMARK  5 active torsions:
REMARK  status: ('A' for Active; 'I' for Inactive)
REMARK    1  A    between atoms: C_2  and  O_3
REMARK    2  A    between atoms: C_2  and  C_4
REMARK    3  A    between atoms: C_4  and  C_6
REMARK    4  A    between atoms: C_6  and  C_8
REMARK    5  A    between atoms: C_8  and  O_10
REMARK                            x       y       z     vdW  Elec       q    Type
REMARK                         _______ _______ _______ _____ _____    ______ ____
ROOT
ATOM      1  C   UNL     1       3.047   2.878  19.925  0.00  0.00    +0.000 C 
ATOM      2 BR   UNL     1       1.382   2.980  20.974  0.00  0.00    +0.000 Br
ENDROOT
BRANCH   1   4
ATOM      3  O   UNL     1       3.576   1.437  18.053  0.00  0.00    +0.000 OA
ATOM      4  C   UNL     1       2.735   1.908  18.802  0.00  0.00    +0.000 C 
BRANCH   4   5
ATOM      5  O   UNL     1       1.430   1.560  18.717  0.00  0.00    +0.000 OA
ATOM      6  H   UNL     1       1.234   0.678  18.345  0.00  0.00    +0.000 HD
ENDBRANCH   4   5
ENDBRANCH   1   4
BRANCH   1   7
ATOM      7  C   UNL     1       3.407   4.242  19.371  0.00  0.00    +0.000 C 
ATOM      8 BR   UNL     1       2.092   4.798  18.020  0.00  0.00    +0.000 Br
BRANCH   7   9
ATOM      9  C   UNL     1       4.724   4.207  18.618  0.00  0.00    +0.000 C 
ATOM     10  O   UNL     1       4.931   4.827  17.584  0.00  0.00    +0.000 OA
BRANCH   9  11
ATOM     11  O   UNL     1       5.682   3.454  19.208  0.00  0.00    +0.000 OA
ATOM     12  H   UNL     1       6.123   3.850  19.985  0.00  0.00    +0.000 HD
ENDBRANCH   9  11
ENDBRANCH   7   9
ENDBRANCH   1   7
TORSDOF 5
ENDMDL
MODEL 6
REMARK VINA RESULT:      -4.6      3.470      5.046
REMARK  Name = 
REMARK  5 active torsions:
REMARK  status: ('A' for Active; 'I' for Inactive)
REMARK    1  A    between atoms: C_2  and  O_3
REMARK    2  A    between atoms: C_2  and  C_4
REMARK    3  A    between atoms: C_4  and  C_6
REMARK    4  A    between atoms: C_6  and  C_8
REMARK    5  A    between atoms: C_8  and  O_10
REMARK                            x       y       z     vdW  Elec       q    Type
REMARK                         _______ _______ _______ _____ _____    ______ ____
ROOT
ATOM      1  C   UNL     1       2.867   2.772  19.766  0.00  0.00    +0.000 C 
ATOM      2 BR   UNL     1       1.826   3.091  21.408  0.00  0.00    +0.000 Br
ENDROOT
BRANCH   1   4
ATOM      3  O   UNL     1       0.647   2.382  18.881  0.00  0.00    +0.000 OA
ATOM      4  C   UNL     1       1.856   2.251  18.764  0.00  0.00    +0.000 C 
BRANCH   4   5
ATOM      5  O   UNL     1       2.405   1.656  17.681  0.00  0.00    +0.000 OA
ATOM      6  H   UNL     1       3.133   1.025  17.847  0.00  0.00    +0.000 HD
ENDBRANCH   4   5
ENDBRANCH   1   4
BRANCH   1   7
ATOM      7  C   UNL     1       3.492   4.063  19.277  0.00  0.00    +0.000 C 
ATOM      8 BR   UNL     1       2.218   5.055  18.155  0.00  0.00    +0.000 Br
BRANCH   7   9
ATOM      9  C   UNL     1       4.670   3.799  18.359  0.00  0.00    +0.000 C 
ATOM     10  O   UNL     1       4.581   3.734  17.140  0.00  0.00    +0.000 OA
BRANCH   9  11
ATOM     11  O   UNL     1       5.857   3.676  18.998  0.00  0.00    +0.000 OA
ATOM     12  H   UNL     1       6.053   2.797  19.380  0.00  0.00    +0.000 HD
ENDBRANCH   9  11
ENDBRANCH   7   9
ENDBRANCH   1   7
TORSDOF 5
ENDMDL
MODEL 7
REMARK VINA RESULT:      -4.6      1.095      1.436
REMARK  Name = 
REMARK  5 active torsions:
REMARK  status: ('A' for Active; 'I' for Inactive)
REMARK    1  A    between atoms: C_2  and  O_3
REMARK    2  A    between atoms: C_2  and  C_4
REMARK    3  A    between atoms: C_4  and  C_6
REMARK    4  A    between atoms: C_6  and  C_8
REMARK    5  A    between atoms: C_8  and  O_10
REMARK                            x       y       z     vdW  Elec       q    Type
REMARK                         _______ _______ _______ _____ _____    ______ ____
ROOT
ATOM      1  C   UNL     1       6.001   3.857  16.131  0.00  0.00    +0.000 C 
ATOM      2 BR   UNL     1       5.937   4.209  14.194  0.00  0.00    +0.000 Br
ENDROOT
BRANCH   1   4
ATOM      3  O   UNL     1       7.504   5.755  16.108  0.00  0.00    +0.000 OA
ATOM      4  C   UNL     1       7.138   4.719  16.642  0.00  0.00    +0.000 C 
BRANCH   4   5
ATOM      5  O   UNL     1       7.704   4.270  17.785  0.00  0.00    +0.000 OA
ATOM      6  H   UNL     1       8.125   4.938  18.360  0.00  0.00    +0.000 HD
ENDBRANCH   4   5
ENDBRANCH   1   4
BRANCH   1   7
ATOM      7  C   UNL     1       4.692   4.254  16.784  0.00  0.00    +0.000 C 
ATOM      8 BR   UNL     1       4.868   6.007  17.655  0.00  0.00    +0.000 Br
BRANCH   7   9
ATOM      9  C   UNL     1       4.325   3.311  17.915  0.00  0.00    +0.000 C 
ATOM     10  O   UNL     1       3.332   2.595  17.907  0.00  0.00    +0.000 OA
BRANCH   9  11
ATOM     11  O   UNL     1       5.215   3.292  18.934  0.00  0.00    +0.000 OA
ATOM     12  H   UNL     1       6.019   2.752  18.795  0.00  0.00    +0.000 HD
ENDBRANCH   9  11
ENDBRANCH   7   9
ENDBRANCH   1   7
TORSDOF 5
ENDMDL
MODEL 8
REMARK VINA RESULT:      -4.5      3.470      4.500
REMARK  Name = 
REMARK  5 active torsions:
REMARK  status: ('A' for Active; 'I' for Inactive)
REMARK    1  A    between atoms: C_2  and  O_3
REMARK    2  A    between atoms: C_2  and  C_4
REMARK    3  A    between atoms: C_4  and  C_6
REMARK    4  A    between atoms: C_6  and  C_8
REMARK    5  A    between atoms: C_8  and  O_10
REMARK                            x       y       z     vdW  Elec       q    Type
REMARK                         _______ _______ _______ _____ _____    ______ ____
ROOT
ATOM      1  C   UNL     1       3.197   3.161  18.204  0.00  0.00    +0.000 C 
ATOM      2 BR   UNL     1       4.326   4.259  17.022  0.00  0.00    +0.000 Br
ENDROOT
BRANCH   1   4
ATOM      3  O   UNL     1       3.665   2.316  20.425  0.00  0.00    +0.000 OA
ATOM      4  C   UNL     1       4.052   2.911  19.431  0.00  0.00    +0.000 C 
BRANCH   4   5
ATOM      5  O   UNL     1       5.321   3.367  19.323  0.00  0.00    +0.000 OA
ATOM      6  H   UNL     1       6.031   2.696  19.317  0.00  0.00    +0.000 HD
ENDBRANCH   4   5
ENDBRANCH   1   4
BRANCH   1   7
ATOM      7  C   UNL     1       1.934   3.912  18.575  0.00  0.00    +0.000 C 
ATOM      8 BR   UNL     1       2.298   5.184  20.029  0.00  0.00    +0.000 Br
BRANCH   7   9
ATOM      9  C   UNL     1       0.881   2.982  19.149  0.00  0.00    +0.000 C 
ATOM     10  O   UNL     1       0.300   2.128  18.493  0.00  0.00    +0.000 OA
BRANCH   9  11
ATOM     11  O   UNL     1       0.656   3.146  20.474  0.00  0.00    +0.000 OA
ATOM     12  H   UNL     1       0.399   4.045  20.760  0.00  0.00    +0.000 HD
ENDBRANCH   9  11
ENDBRANCH   7   9
ENDBRANCH   1   7
TORSDOF 5
ENDMDL
MODEL 9
REMARK VINA RESULT:      -4.5      1.476      1.722
REMARK  Name = 
REMARK  5 active torsions:
REMARK  status: ('A' for Active; 'I' for Inactive)
REMARK    1  A    between atoms: C_2  and  O_3
REMARK    2  A    between atoms: C_2  and  C_4
REMARK    3  A    between atoms: C_4  and  C_6
REMARK    4  A    between atoms: C_6  and  C_8
REMARK    5  A    between atoms: C_8  and  O_10
REMARK                            x       y       z     vdW  Elec       q    Type
REMARK                         _______ _______ _______ _____ _____    ______ ____
ROOT
ATOM      1  C   UNL     1       5.782   5.523  16.520  0.00  0.00    +0.000 C 
ATOM      2 BR   UNL     1       6.912   6.917  17.331  0.00  0.00    +0.000 Br
ENDROOT
BRANCH   1   4
ATOM      3  O   UNL     1       7.936   4.422  16.419  0.00  0.00    +0.000 OA
ATOM      4  C   UNL     1       6.728   4.370  16.247  0.00  0.00    +0.000 C 
BRANCH   4   5
ATOM      5  O   UNL     1       6.116   3.238  15.830  0.00  0.00    +0.000 OA
ATOM      6  H   UNL     1       6.692   2.528  15.486  0.00  0.00    +0.000 HD
ENDBRANCH   4   5
ENDBRANCH   1   4
BRANCH   1   7
ATOM      7  C   UNL     1       4.688   5.103  17.482  0.00  0.00    +0.000 C 
ATOM      8 BR   UNL     1       3.580   6.650  17.973  0.00  0.00    +0.000 Br
BRANCH   7   9
ATOM      9  C   UNL     1       5.263   4.622  18.801  0.00  0.00    +0.000 C 
ATOM     10  O   UNL     1       5.589   5.370  19.713  0.00  0.00    +0.000 OA
BRANCH   9  11
ATOM     11  O   UNL     1       5.352   3.276  18.911  0.00  0.00    +0.000 OA
ATOM     12  H   UNL     1       5.850   2.818  18.205  0.00  0.00    +0.000 HD
ENDBRANCH   9  11
ENDBRANCH   7   9
ENDBRANCH   1   7
TORSDOF 5
ENDMDL
