MODEL 1
REMARK VINA RESULT:      -7.8      0.000      0.000
REMARK  Name = 
REMARK  10 active torsions:
REMARK  status: ('A' for Active; 'I' for Inactive)
REMARK    1  A    between atoms: C_1  and  N_2
REMARK    2  A    between atoms: N_2  and  C_3
REMARK    3  A    between atoms: C_3  and  C_4
REMARK    4  A    between atoms: C_3  and  C_5
REMARK    5  A    between atoms: N_7  and  C_8
REMARK    6  A    between atoms: C_8  and  C_9
REMARK    7  A    between atoms: C_8  and  C_30
REMARK    8  A    between atoms: C_15  and  C_16
REMARK    9  A    between atoms: N_18  and  C_19
REMARK   10  A    between atoms: C_23  and  C_24
REMARK                            x       y       z     vdW  Elec       q    Type
REMARK                         _______ _______ _______ _____ _____    ______ ____
ROOT
ATOM      1  C   UNL     1       0.007  10.607  19.265  0.00  0.00    +0.000 C 
ATOM      2  O   UNL     1       0.881  11.150  18.580  0.00  0.00    +0.000 OA
ATOM      3  N   UNL     1       0.341   9.547  20.085  0.00  0.00    +0.000 N 
ATOM      4  C   UNL     1      -0.440   8.857  21.097  0.00  0.00    +0.000 C 
ATOM      5  C   UNL     1       0.577   8.677  22.210  0.00  0.00    +0.000 C 
ATOM      6  C   UNL     1       1.869   8.353  21.459  0.00  0.00    +0.000 C 
ATOM      7  C   UNL     1       1.714   9.021  20.082  0.00  0.00    +0.000 C 
ENDROOT
BRANCH   7   8
ATOM      8  C   UNL     1       1.901   7.951  18.979  0.00  0.00    +0.000 C 
ATOM      9  O   UNL     1       1.654   8.192  17.799  0.00  0.00    +0.000 OA
ATOM     10  N   UNL     1       2.486   6.777  19.450  0.00  0.00    +0.000 N 
ATOM     11  H   UNL     1       2.078   6.483  20.338  0.00  0.00    +0.000 HD
BRANCH  10  12
ATOM     12  C   UNL     1       2.696   5.752  18.561  0.00  0.00    +0.000 A 
ATOM     13  S   UNL     1       1.395   4.692  18.273  0.00  0.00    +0.000 S 
ATOM     14  N   UNL     1       2.282   3.761  17.203  0.00  0.00    +0.000 NA
ATOM     15  N   UNL     1       3.538   4.170  17.085  0.00  0.00    +0.000 NA
ATOM     16  C   UNL     1       3.805   5.289  17.878  0.00  0.00    +0.000 A 
BRANCH  16  17
ATOM     17  C   UNL     1       5.169   5.802  18.002  0.00  0.00    +0.000 A 
ATOM     18  C   UNL     1       6.017   5.281  18.988  0.00  0.00    +0.000 A 
ATOM     19  C   UNL     1       7.322   5.762  19.138  0.00  0.00    +0.000 A 
ATOM     20  C   UNL     1       7.794   6.776  18.309  0.00  0.00    +0.000 A 
ATOM     21  C   UNL     1       6.956   7.325  17.342  0.00  0.00    +0.000 A 
ATOM     22  C   UNL     1       5.649   6.848  17.198  0.00  0.00    +0.000 A 
ENDBRANCH  16  17
ENDBRANCH  10  12
ENDBRANCH   7   8
BRANCH   1  23
ATOM     23  C   UNL     1      -1.450  11.166  19.239  0.00  0.00    +0.000 C 
BRANCH  23  24
ATOM     24  C   UNL     1      -2.111  10.873  17.896  0.00  0.00    +0.000 A 
ATOM     25  C   UNL     1      -3.279  11.559  17.533  0.00  0.00    +0.000 A 
ATOM     26  C   UNL     1      -3.995  11.196  16.388  0.00  0.00    +0.000 A 
ATOM     27  C   UNL     1      -3.548  10.152  15.581  0.00  0.00    +0.000 A 
ATOM     28  C   UNL     1      -2.367   9.495  15.898  0.00  0.00    +0.000 A 
ATOM     29  C   UNL     1      -1.654   9.861  17.038  0.00  0.00    +0.000 A 
ENDBRANCH  23  24
BRANCH  23  32
ATOM     30  C   UNL     1      -2.068  12.806  20.945  0.00  0.00    +0.000 C 
ATOM     31  O   UNL     1      -2.087  11.933  21.816  0.00  0.00    +0.000 OA
ATOM     32  N   UNL     1      -1.594  12.550  19.673  0.00  0.00    +0.000 N 
ATOM     33  H   UNL     1      -1.729  13.274  18.977  0.00  0.00    +0.000 HD
BRANCH  30  34
ATOM     34  C   UNL     1      -2.506  14.264  21.243  0.00  0.00    +0.000 C 
ATOM     35  C   UNL     1      -2.825  14.431  22.728  0.00  0.00    +0.000 C 
BRANCH  34  37
ATOM     36  C   UNL     1      -4.805  13.740  20.605  0.00  0.00    +0.000 C 
ATOM     37  N   UNL     1      -3.645  14.597  20.358  0.00  0.00    +0.000 NA
ATOM     38  H   UNL     1      -3.926  15.556  20.570  0.00  0.00    +0.000 HD
ENDBRANCH  34  37
ENDBRANCH  30  34
ENDBRANCH  23  32
ENDBRANCH   1  23
TORSDOF 8
ENDMDL
MODEL 2
REMARK VINA RESULT:      -7.7      4.793      8.916
REMARK  Name = 
REMARK  10 active torsions:
REMARK  status: ('A' for Active; 'I' for Inactive)
REMARK    1  A    between atoms: C_1  and  N_2
REMARK    2  A    between atoms: N_2  and  C_3
REMARK    3  A    between atoms: C_3  and  C_4
REMARK    4  A    between atoms: C_3  and  C_5
REMARK    5  A    between atoms: N_7  and  C_8
REMARK    6  A    between atoms: C_8  and  C_9
REMARK    7  A    between atoms: C_8  and  C_30
REMARK    8  A    between atoms: C_15  and  C_16
REMARK    9  A    between atoms: N_18  and  C_19
REMARK   10  A    between atoms: C_23  and  C_24
REMARK                            x       y       z     vdW  Elec       q    Type
REMARK                         _______ _______ _______ _____ _____    ______ ____
ROOT
ATOM      1  C   UNL     1      -1.364  12.148  18.559  0.00  0.00    +0.000 C 
ATOM      2  O   UNL     1      -1.803  13.291  18.740  0.00  0.00    +0.000 OA
ATOM      3  N   UNL     1      -2.103  11.241  17.827  0.00  0.00    +0.000 N 
ATOM      4  C   UNL     1      -1.751   9.920  17.334  0.00  0.00    +0.000 C 
ATOM      5  C   UNL     1      -2.341   9.939  15.936  0.00  0.00    +0.000 C 
ATOM      6  C   UNL     1      -3.661  10.689  16.120  0.00  0.00    +0.000 C 
ATOM      7  C   UNL     1      -3.437  11.608  17.332  0.00  0.00    +0.000 C 
ENDROOT
BRANCH   7   8
ATOM      8  C   UNL     1      -4.528  11.319  18.392  0.00  0.00    +0.000 C 
ATOM      9  O   UNL     1      -5.015  10.199  18.528  0.00  0.00    +0.000 OA
ATOM     10  N   UNL     1      -4.779  12.407  19.227  0.00  0.00    +0.000 N 
ATOM     11  H   UNL     1      -4.841  13.280  18.701  0.00  0.00    +0.000 HD
BRANCH  10  12
ATOM     12  C   UNL     1      -5.733  12.270  20.205  0.00  0.00    +0.000 A 
ATOM     13  S   UNL     1      -7.305  11.848  19.705  0.00  0.00    +0.000 S 
ATOM     14  N   UNL     1      -7.899  11.873  21.269  0.00  0.00    +0.000 NA
ATOM     15  N   UNL     1      -6.987  12.239  22.159  0.00  0.00    +0.000 NA
ATOM     16  C   UNL     1      -5.748  12.502  21.567  0.00  0.00    +0.000 A 
BRANCH  16  17
ATOM     17  C   UNL     1      -4.652  13.061  22.358  0.00  0.00    +0.000 A 
ATOM     18  C   UNL     1      -4.495  12.670  23.695  0.00  0.00    +0.000 A 
ATOM     19  C   UNL     1      -3.464  13.198  24.478  0.00  0.00    +0.000 A 
ATOM     20  C   UNL     1      -2.581  14.130  23.939  0.00  0.00    +0.000 A 
ATOM     21  C   UNL     1      -2.739  14.551  22.622  0.00  0.00    +0.000 A 
ATOM     22  C   UNL     1      -3.775  14.027  21.841  0.00  0.00    +0.000 A 
ENDBRANCH  16  17
ENDBRANCH  10  12
ENDBRANCH   7   8
BRANCH   1  23
ATOM     23  C   UNL     1       0.045  11.768  19.112  0.00  0.00    +0.000 C 
BRANCH  23  24
ATOM     24  C   UNL     1      -0.080  11.070  20.461  0.00  0.00    +0.000 A 
ATOM     25  C   UNL     1       0.259   9.713  20.574  0.00  0.00    +0.000 A 
ATOM     26  C   UNL     1      -0.001   9.007  21.753  0.00  0.00    +0.000 A 
ATOM     27  C   UNL     1      -0.590   9.648  22.841  0.00  0.00    +0.000 A 
ATOM     28  C   UNL     1      -0.885  11.001  22.764  0.00  0.00    +0.000 A 
ATOM     29  C   UNL     1      -0.623  11.704  21.589  0.00  0.00    +0.000 A 
ENDBRANCH  23  24
BRANCH  23  32
ATOM     30  C   UNL     1       2.290  12.590  18.593  0.00  0.00    +0.000 C 
ATOM     31  O   UNL     1       2.519  11.603  17.891  0.00  0.00    +0.000 OA
ATOM     32  N   UNL     1       1.029  12.844  19.099  0.00  0.00    +0.000 N 
ATOM     33  H   UNL     1       0.946  13.598  19.771  0.00  0.00    +0.000 HD
BRANCH  30  34
ATOM     34  C   UNL     1       3.384  13.648  18.894  0.00  0.00    +0.000 C 
ATOM     35  C   UNL     1       2.889  14.645  19.940  0.00  0.00    +0.000 C 
BRANCH  34  37
ATOM     36  C   UNL     1       3.382  15.694  17.559  0.00  0.00    +0.000 C 
ATOM     37  N   UNL     1       3.777  14.287  17.616  0.00  0.00    +0.000 NA
ATOM     38  H   UNL     1       4.796  14.255  17.561  0.00  0.00    +0.000 HD
ENDBRANCH  34  37
ENDBRANCH  30  34
ENDBRANCH  23  32
ENDBRANCH   1  23
TORSDOF 8
ENDMDL
MODEL 3
REMARK VINA RESULT:      -7.6      1.770      2.104
REMARK  Name = 
REMARK  10 active torsions:
REMARK  status: ('A' for Active; 'I' for Inactive)
REMARK    1  A    between atoms: C_1  and  N_2
REMARK    2  A    between atoms: N_2  and  C_3
REMARK    3  A    between atoms: C_3  and  C_4
REMARK    4  A    between atoms: C_3  and  C_5
REMARK    5  A    between atoms: N_7  and  C_8
REMARK    6  A    between atoms: C_8  and  C_9
REMARK    7  A    between atoms: C_8  and  C_30
REMARK    8  A    between atoms: C_15  and  C_16
REMARK    9  A    between atoms: N_18  and  C_19
REMARK   10  A    between atoms: C_23  and  C_24
REMARK                            x       y       z     vdW  Elec       q    Type
REMARK                         _______ _______ _______ _____ _____    ______ ____
ROOT
ATOM      1  C   UNL     1       0.818  11.034  19.368  0.00  0.00    +0.000 C 
ATOM      2  O   UNL     1       1.928  11.334  18.913  0.00  0.00    +0.000 OA
ATOM      3  N   UNL     1       0.682   9.901  20.145  0.00  0.00    +0.000 N 
ATOM      4  C   UNL     1      -0.448   9.425  20.925  0.00  0.00    +0.000 C 
ATOM      5  C   UNL     1       0.229   8.941  22.195  0.00  0.00    +0.000 C 
ATOM      6  C   UNL     1       1.517   8.295  21.685  0.00  0.00    +0.000 C 
ATOM      7  C   UNL     1       1.836   9.017  20.365  0.00  0.00    +0.000 C 
ENDROOT
BRANCH   7   8
ATOM      8  C   UNL     1       1.961   7.968  19.233  0.00  0.00    +0.000 C 
ATOM      9  O   UNL     1       1.662   8.234  18.071  0.00  0.00    +0.000 OA
ATOM     10  N   UNL     1       2.557   6.780  19.654  0.00  0.00    +0.000 N 
ATOM     11  H   UNL     1       2.189   6.472  20.554  0.00  0.00    +0.000 HD
BRANCH  10  12
ATOM     12  C   UNL     1       2.717   5.772  18.736  0.00  0.00    +0.000 A 
ATOM     13  S   UNL     1       1.392   4.733  18.483  0.00  0.00    +0.000 S 
ATOM     14  N   UNL     1       2.220   3.814  17.357  0.00  0.00    +0.000 NA
ATOM     15  N   UNL     1       3.474   4.211  17.193  0.00  0.00    +0.000 NA
ATOM     16  C   UNL     1       3.789   5.311  17.996  0.00  0.00    +0.000 A 
BRANCH  16  17
ATOM     17  C   UNL     1       5.163   5.806  18.071  0.00  0.00    +0.000 A 
ATOM     18  C   UNL     1       6.025   5.310  19.059  0.00  0.00    +0.000 A 
ATOM     19  C   UNL     1       7.339   5.775  19.161  0.00  0.00    +0.000 A 
ATOM     20  C   UNL     1       7.809   6.748  18.283  0.00  0.00    +0.000 A 
ATOM     21  C   UNL     1       6.959   7.272  17.314  0.00  0.00    +0.000 A 
ATOM     22  C   UNL     1       5.642   6.812  17.216  0.00  0.00    +0.000 A 
ENDBRANCH  16  17
ENDBRANCH  10  12
ENDBRANCH   7   8
BRANCH   1  23
ATOM     23  C   UNL     1      -0.401  11.972  19.106  0.00  0.00    +0.000 C 
BRANCH  23  24
ATOM     24  C   UNL     1      -1.492  11.231  18.343  0.00  0.00    +0.000 A 
ATOM     25  C   UNL     1      -1.141  10.254  17.400  0.00  0.00    +0.000 A 
ATOM     26  C   UNL     1      -2.109   9.678  16.571  0.00  0.00    +0.000 A 
ATOM     27  C   UNL     1      -3.444  10.058  16.681  0.00  0.00    +0.000 A 
ATOM     28  C   UNL     1      -3.818  10.986  17.643  0.00  0.00    +0.000 A 
ATOM     29  C   UNL     1      -2.852  11.556  18.470  0.00  0.00    +0.000 A 
ENDBRANCH  23  24
BRANCH  23  32
ATOM     30  C   UNL     1       0.296  14.300  19.389  0.00  0.00    +0.000 C 
ATOM     31  O   UNL     1       0.644  14.083  20.552  0.00  0.00    +0.000 OA
ATOM     32  N   UNL     1      -0.072  13.275  18.539  0.00  0.00    +0.000 N 
ATOM     33  H   UNL     1      -0.469  13.538  17.645  0.00  0.00    +0.000 HD
BRANCH  30  34
ATOM     34  C   UNL     1       0.318  15.729  18.785  0.00  0.00    +0.000 C 
ATOM     35  C   UNL     1       1.291  16.619  19.557  0.00  0.00    +0.000 C 
BRANCH  34  37
ATOM     36  C   UNL     1      -1.134  17.632  18.297  0.00  0.00    +0.000 C 
ATOM     37  N   UNL     1      -1.068  16.250  18.771  0.00  0.00    +0.000 NA
ATOM     38  H   UNL     1      -1.602  15.677  18.115  0.00  0.00    +0.000 HD
ENDBRANCH  34  37
ENDBRANCH  30  34
ENDBRANCH  23  32
ENDBRANCH   1  23
TORSDOF 8
ENDMDL
MODEL 4
REMARK VINA RESULT:      -7.5      0.770      1.139
REMARK  Name = 
REMARK  10 active torsions:
REMARK  status: ('A' for Active; 'I' for Inactive)
REMARK    1  A    between atoms: C_1  and  N_2
REMARK    2  A    between atoms: N_2  and  C_3
REMARK    3  A    between atoms: C_3  and  C_4
REMARK    4  A    between atoms: C_3  and  C_5
REMARK    5  A    between atoms: N_7  and  C_8
REMARK    6  A    between atoms: C_8  and  C_9
REMARK    7  A    between atoms: C_8  and  C_30
REMARK    8  A    between atoms: C_15  and  C_16
REMARK    9  A    between atoms: N_18  and  C_19
REMARK   10  A    between atoms: C_23  and  C_24
REMARK                            x       y       z     vdW  Elec       q    Type
REMARK                         _______ _______ _______ _____ _____    ______ ____
ROOT
ATOM      1  C   UNL     1       0.024  10.600  19.523  0.00  0.00    +0.000 C 
ATOM      2  O   UNL     1       0.889  10.937  18.706  0.00  0.00    +0.000 OA
ATOM      3  N   UNL     1       0.345   9.712  20.530  0.00  0.00    +0.000 N 
ATOM      4  C   UNL     1      -0.418   9.292  21.694  0.00  0.00    +0.000 C 
ATOM      5  C   UNL     1       0.644   9.281  22.778  0.00  0.00    +0.000 C 
ATOM      6  C   UNL     1       1.877   8.731  22.059  0.00  0.00    +0.000 C 
ATOM      7  C   UNL     1       1.686   9.112  20.582  0.00  0.00    +0.000 C 
ENDROOT
BRANCH   7   8
ATOM      8  C   UNL     1       1.760   7.830  19.717  0.00  0.00    +0.000 C 
ATOM      9  O   UNL     1       1.542   7.855  18.507  0.00  0.00    +0.000 OA
ATOM     10  N   UNL     1       2.215   6.719  20.425  0.00  0.00    +0.000 N 
ATOM     11  H   UNL     1       1.777   6.652  21.344  0.00  0.00    +0.000 HD
BRANCH  10  12
ATOM     12  C   UNL     1       2.317   5.521  19.762  0.00  0.00    +0.000 A 
ATOM     13  S   UNL     1       1.115   4.356  20.072  0.00  0.00    +0.000 S 
ATOM     14  N   UNL     1       1.812   3.240  19.038  0.00  0.00    +0.000 NA
ATOM     15  N   UNL     1       2.945   3.674  18.504  0.00  0.00    +0.000 NA
ATOM     16  C   UNL     1       3.269   4.965  18.929  0.00  0.00    +0.000 A 
BRANCH  16  17
ATOM     17  C   UNL     1       4.554   5.564  18.569  0.00  0.00    +0.000 A 
ATOM     18  C   UNL     1       4.622   6.457  17.490  0.00  0.00    +0.000 A 
ATOM     19  C   UNL     1       5.839   7.035  17.115  0.00  0.00    +0.000 A 
ATOM     20  C   UNL     1       7.006   6.722  17.807  0.00  0.00    +0.000 A 
ATOM     21  C   UNL     1       6.962   5.816  18.863  0.00  0.00    +0.000 A 
ATOM     22  C   UNL     1       5.745   5.234  19.233  0.00  0.00    +0.000 A 
ENDBRANCH  16  17
ENDBRANCH  10  12
ENDBRANCH   7   8
BRANCH   1  23
ATOM     23  C   UNL     1      -1.401  11.230  19.440  0.00  0.00    +0.000 C 
BRANCH  23  24
ATOM     24  C   UNL     1      -2.043  10.923  18.092  0.00  0.00    +0.000 A 
ATOM     25  C   UNL     1      -3.197  11.618  17.698  0.00  0.00    +0.000 A 
ATOM     26  C   UNL     1      -3.899  11.244  16.548  0.00  0.00    +0.000 A 
ATOM     27  C   UNL     1      -3.453  10.180  15.766  0.00  0.00    +0.000 A 
ATOM     28  C   UNL     1      -2.286   9.514  16.113  0.00  0.00    +0.000 A 
ATOM     29  C   UNL     1      -1.586   9.891  17.259  0.00  0.00    +0.000 A 
ENDBRANCH  23  24
BRANCH  23  32
ATOM     30  C   UNL     1      -2.101  12.969  21.011  0.00  0.00    +0.000 C 
ATOM     31  O   UNL     1      -2.312  12.129  21.889  0.00  0.00    +0.000 OA
ATOM     32  N   UNL     1      -1.483  12.635  19.821  0.00  0.00    +0.000 N 
ATOM     33  H   UNL     1      -1.462  13.345  19.099  0.00  0.00    +0.000 HD
BRANCH  30  34
ATOM     34  C   UNL     1      -2.450  14.467  21.216  0.00  0.00    +0.000 C 
ATOM     35  C   UNL     1      -2.702  14.758  22.694  0.00  0.00    +0.000 C 
BRANCH  34  37
ATOM     36  C   UNL     1      -4.878  14.420  20.957  0.00  0.00    +0.000 C 
ATOM     37  N   UNL     1      -3.604  14.798  20.348  0.00  0.00    +0.000 NA
ATOM     38  H   UNL     1      -3.613  15.813  20.229  0.00  0.00    +0.000 HD
ENDBRANCH  34  37
ENDBRANCH  30  34
ENDBRANCH  23  32
ENDBRANCH   1  23
TORSDOF 8
ENDMDL
MODEL 5
REMARK VINA RESULT:      -7.4      1.562      3.528
REMARK  Name = 
REMARK  10 active torsions:
REMARK  status: ('A' for Active; 'I' for Inactive)
REMARK    1  A    between atoms: C_1  and  N_2
REMARK    2  A    between atoms: N_2  and  C_3
REMARK    3  A    between atoms: C_3  and  C_4
REMARK    4  A    between atoms: C_3  and  C_5
REMARK    5  A    between atoms: N_7  and  C_8
REMARK    6  A    between atoms: C_8  and  C_9
REMARK    7  A    between atoms: C_8  and  C_30
REMARK    8  A    between atoms: C_15  and  C_16
REMARK    9  A    between atoms: N_18  and  C_19
REMARK   10  A    between atoms: C_23  and  C_24
REMARK                            x       y       z     vdW  Elec       q    Type
REMARK                         _______ _______ _______ _____ _____    ______ ____
ROOT
ATOM      1  C   UNL     1       0.634  10.607  19.035  0.00  0.00    +0.000 C 
ATOM      2  O   UNL     1       1.707  10.935  18.513  0.00  0.00    +0.000 OA
ATOM      3  N   UNL     1       0.614   9.601  19.980  0.00  0.00    +0.000 N 
ATOM      4  C   UNL     1      -0.457   9.148  20.851  0.00  0.00    +0.000 C 
ATOM      5  C   UNL     1       0.274   8.934  22.163  0.00  0.00    +0.000 C 
ATOM      6  C   UNL     1       1.613   8.339  21.729  0.00  0.00    +0.000 C 
ATOM      7  C   UNL     1       1.850   8.874  20.306  0.00  0.00    +0.000 C 
ENDROOT
BRANCH   7   8
ATOM      8  C   UNL     1       2.066   7.678  19.347  0.00  0.00    +0.000 C 
ATOM      9  O   UNL     1       1.939   7.796  18.130  0.00  0.00    +0.000 OA
ATOM     10  N   UNL     1       2.533   6.536  19.995  0.00  0.00    +0.000 N 
ATOM     11  H   UNL     1       2.031   6.366  20.868  0.00  0.00    +0.000 HD
BRANCH  10  12
ATOM     12  C   UNL     1       2.756   5.407  19.246  0.00  0.00    +0.000 A 
ATOM     13  S   UNL     1       1.555   4.201  19.278  0.00  0.00    +0.000 S 
ATOM     14  N   UNL     1       2.416   3.198  18.254  0.00  0.00    +0.000 NA
ATOM     15  N   UNL     1       3.599   3.696  17.922  0.00  0.00    +0.000 NA
ATOM     16  C   UNL     1       3.828   4.946  18.505  0.00  0.00    +0.000 A 
BRANCH  16  17
ATOM     17  C   UNL     1       5.132   5.595  18.382  0.00  0.00    +0.000 A 
ATOM     18  C   UNL     1       5.328   6.573  17.397  0.00  0.00    +0.000 A 
ATOM     19  C   UNL     1       6.569   7.200  17.247  0.00  0.00    +0.000 A 
ATOM     20  C   UNL     1       7.633   6.853  18.075  0.00  0.00    +0.000 A 
ATOM     21  C   UNL     1       7.465   5.865  19.040  0.00  0.00    +0.000 A 
ATOM     22  C   UNL     1       6.226   5.233  19.184  0.00  0.00    +0.000 A 
ENDBRANCH  16  17
ENDBRANCH  10  12
ENDBRANCH   7   8
BRANCH   1  23
ATOM     23  C   UNL     1      -0.671  11.375  18.660  0.00  0.00    +0.000 C 
BRANCH  23  24
ATOM     24  C   UNL     1      -1.177  12.183  19.849  0.00  0.00    +0.000 A 
ATOM     25  C   UNL     1      -0.261  12.842  20.682  0.00  0.00    +0.000 A 
ATOM     26  C   UNL     1      -0.682  13.450  21.869  0.00  0.00    +0.000 A 
ATOM     27  C   UNL     1      -2.025  13.422  22.235  0.00  0.00    +0.000 A 
ATOM     28  C   UNL     1      -2.953  12.818  21.399  0.00  0.00    +0.000 A 
ATOM     29  C   UNL     1      -2.532  12.215  20.215  0.00  0.00    +0.000 A 
ENDBRANCH  23  24
BRANCH  23  32
ATOM     30  C   UNL     1      -2.381  11.095  16.933  0.00  0.00    +0.000 C 
ATOM     31  O   UNL     1      -1.953  12.070  16.312  0.00  0.00    +0.000 OA
ATOM     32  N   UNL     1      -1.704  10.570  18.017  0.00  0.00    +0.000 N 
ATOM     33  H   UNL     1      -2.178   9.856  18.554  0.00  0.00    +0.000 HD
BRANCH  30  34
ATOM     34  C   UNL     1      -3.670  10.351  16.493  0.00  0.00    +0.000 C 
ATOM     35  C   UNL     1      -3.549   9.888  15.043  0.00  0.00    +0.000 C 
BRANCH  34  37
ATOM     36  C   UNL     1      -5.396  11.073  18.064  0.00  0.00    +0.000 C 
ATOM     37  N   UNL     1      -4.826  11.246  16.728  0.00  0.00    +0.000 NA
ATOM     38  H   UNL     1      -4.485  12.207  16.665  0.00  0.00    +0.000 HD
ENDBRANCH  34  37
ENDBRANCH  30  34
ENDBRANCH  23  32
ENDBRANCH   1  23
TORSDOF 8
ENDMDL
MODEL 6
REMARK VINA RESULT:      -7.4      1.405      3.381
REMARK  Name = 
REMARK  10 active torsions:
REMARK  status: ('A' for Active; 'I' for Inactive)
REMARK    1  A    between atoms: C_1  and  N_2
REMARK    2  A    between atoms: N_2  and  C_3
REMARK    3  A    between atoms: C_3  and  C_4
REMARK    4  A    between atoms: C_3  and  C_5
REMARK    5  A    between atoms: N_7  and  C_8
REMARK    6  A    between atoms: C_8  and  C_9
REMARK    7  A    between atoms: C_8  and  C_30
REMARK    8  A    between atoms: C_15  and  C_16
REMARK    9  A    between atoms: N_18  and  C_19
REMARK   10  A    between atoms: C_23  and  C_24
REMARK                            x       y       z     vdW  Elec       q    Type
REMARK                         _______ _______ _______ _____ _____    ______ ____
ROOT
ATOM      1  C   UNL     1       0.557  10.679  19.227  0.00  0.00    +0.000 C 
ATOM      2  O   UNL     1       1.609  11.121  18.749  0.00  0.00    +0.000 OA
ATOM      3  N   UNL     1       0.585   9.534  19.998  0.00  0.00    +0.000 N 
ATOM      4  C   UNL     1      -0.456   8.913  20.799  0.00  0.00    +0.000 C 
ATOM      5  C   UNL     1       0.306   8.513  22.049  0.00  0.00    +0.000 C 
ATOM      6  C   UNL     1       1.654   8.039  21.504  0.00  0.00    +0.000 C 
ATOM      7  C   UNL     1       1.847   8.804  20.184  0.00  0.00    +0.000 C 
ENDROOT
BRANCH   7   8
ATOM      8  C   UNL     1       2.079   7.785  19.041  0.00  0.00    +0.000 C 
ATOM      9  O   UNL     1       1.965   8.105  17.859  0.00  0.00    +0.000 OA
ATOM     10  N   UNL     1       2.544   6.552  19.494  0.00  0.00    +0.000 N 
ATOM     11  H   UNL     1       2.034   6.237  20.321  0.00  0.00    +0.000 HD
BRANCH  10  12
ATOM     12  C   UNL     1       2.781   5.565  18.570  0.00  0.00    +0.000 A 
ATOM     13  S   UNL     1       1.514   4.472  18.257  0.00  0.00    +0.000 S 
ATOM     14  N   UNL     1       2.421   3.607  17.149  0.00  0.00    +0.000 NA
ATOM     15  N   UNL     1       3.661   4.063  17.034  0.00  0.00    +0.000 NA
ATOM     16  C   UNL     1       3.898   5.164  17.862  0.00  0.00    +0.000 A 
BRANCH  16  17
ATOM     17  C   UNL     1       5.244   5.719  17.991  0.00  0.00    +0.000 A 
ATOM     18  C   UNL     1       6.100   5.233  18.990  0.00  0.00    +0.000 A 
ATOM     19  C   UNL     1       7.388   5.755  19.145  0.00  0.00    +0.000 A 
ATOM     20  C   UNL     1       7.836   6.774  18.309  0.00  0.00    +0.000 A 
ATOM     21  C   UNL     1       6.991   7.288  17.330  0.00  0.00    +0.000 A 
ATOM     22  C   UNL     1       5.700   6.770  17.181  0.00  0.00    +0.000 A 
ENDBRANCH  16  17
ENDBRANCH  10  12
ENDBRANCH   7   8
BRANCH   1  23
ATOM     23  C   UNL     1      -0.778  11.455  19.000  0.00  0.00    +0.000 C 
BRANCH  23  24
ATOM     24  C   UNL     1      -1.234  12.124  20.291  0.00  0.00    +0.000 A 
ATOM     25  C   UNL     1      -2.590  12.432  20.473  0.00  0.00    +0.000 A 
ATOM     26  C   UNL     1      -3.011  13.191  21.570  0.00  0.00    +0.000 A 
ATOM     27  C   UNL     1      -2.086  13.642  22.508  0.00  0.00    +0.000 A 
ATOM     28  C   UNL     1      -0.747  13.305  22.372  0.00  0.00    +0.000 A 
ATOM     29  C   UNL     1      -0.331  12.546  21.279  0.00  0.00    +0.000 A 
ENDBRANCH  23  24
BRANCH  23  32
ATOM     30  C   UNL     1      -2.363  11.198  17.154  0.00  0.00    +0.000 C 
ATOM     31  O   UNL     1      -1.791  12.077  16.505  0.00  0.00    +0.000 OA
ATOM     32  N   UNL     1      -1.830  10.701  18.328  0.00  0.00    +0.000 N 
ATOM     33  H   UNL     1      -2.415  10.079  18.872  0.00  0.00    +0.000 HD
BRANCH  30  34
ATOM     34  C   UNL     1      -3.679  10.544  16.658  0.00  0.00    +0.000 C 
ATOM     35  C   UNL     1      -3.556  10.148  15.188  0.00  0.00    +0.000 C 
BRANCH  34  37
ATOM     36  C   UNL     1      -5.599  11.080  18.070  0.00  0.00    +0.000 C 
ATOM     37  N   UNL     1      -4.793  11.485  16.919  0.00  0.00    +0.000 NA
ATOM     38  H   UNL     1      -4.378  12.392  17.143  0.00  0.00    +0.000 HD
ENDBRANCH  34  37
ENDBRANCH  30  34
ENDBRANCH  23  32
ENDBRANCH   1  23
TORSDOF 8
ENDMDL
MODEL 7
REMARK VINA RESULT:      -7.4      1.441      1.862
REMARK  Name = 
REMARK  10 active torsions:
REMARK  status: ('A' for Active; 'I' for Inactive)
REMARK    1  A    between atoms: C_1  and  N_2
REMARK    2  A    between atoms: N_2  and  C_3
REMARK    3  A    between atoms: C_3  and  C_4
REMARK    4  A    between atoms: C_3  and  C_5
REMARK    5  A    between atoms: N_7  and  C_8
REMARK    6  A    between atoms: C_8  and  C_9
REMARK    7  A    between atoms: C_8  and  C_30
REMARK    8  A    between atoms: C_15  and  C_16
REMARK    9  A    between atoms: N_18  and  C_19
REMARK   10  A    between atoms: C_23  and  C_24
REMARK                            x       y       z     vdW  Elec       q    Type
REMARK                         _______ _______ _______ _____ _____    ______ ____
ROOT
ATOM      1  C   UNL     1       0.375  10.868  19.644  0.00  0.00    +0.000 C 
ATOM      2  O   UNL     1       1.333  11.110  18.900  0.00  0.00    +0.000 OA
ATOM      3  N   UNL     1       0.510   9.926  20.645  0.00  0.00    +0.000 N 
ATOM      4  C   UNL     1      -0.382   9.582  21.739  0.00  0.00    +0.000 C 
ATOM      5  C   UNL     1       0.587   9.417  22.895  0.00  0.00    +0.000 C 
ATOM      6  C   UNL     1       1.793   8.733  22.251  0.00  0.00    +0.000 C 
ATOM      7  C   UNL     1       1.760   9.164  20.775  0.00  0.00    +0.000 C 
ENDROOT
BRANCH   7   8
ATOM      8  C   UNL     1       1.741   7.900  19.881  0.00  0.00    +0.000 C 
ATOM      9  O   UNL     1       1.449   7.958  18.688  0.00  0.00    +0.000 OA
ATOM     10  N   UNL     1       2.206   6.761  20.536  0.00  0.00    +0.000 N 
ATOM     11  H   UNL     1       1.824   6.687  21.479  0.00  0.00    +0.000 HD
BRANCH  10  12
ATOM     12  C   UNL     1       2.229   5.576  19.843  0.00  0.00    +0.000 A 
ATOM     13  S   UNL     1       0.996   4.452  20.182  0.00  0.00    +0.000 S 
ATOM     14  N   UNL     1       1.601   3.334  19.095  0.00  0.00    +0.000 NA
ATOM     15  N   UNL     1       2.726   3.735  18.518  0.00  0.00    +0.000 NA
ATOM     16  C   UNL     1       3.121   5.003  18.956  0.00  0.00    +0.000 A 
BRANCH  16  17
ATOM     17  C   UNL     1       4.410   5.559  18.551  0.00  0.00    +0.000 A 
ATOM     18  C   UNL     1       5.572   5.186  19.240  0.00  0.00    +0.000 A 
ATOM     19  C   UNL     1       6.817   5.712  18.883  0.00  0.00    +0.000 A 
ATOM     20  C   UNL     1       6.918   6.625  17.837  0.00  0.00    +0.000 A 
ATOM     21  C   UNL     1       5.771   7.029  17.159  0.00  0.00    +0.000 A 
ATOM     22  C   UNL     1       4.525   6.507  17.522  0.00  0.00    +0.000 A 
ENDBRANCH  16  17
ENDBRANCH  10  12
ENDBRANCH   7   8
BRANCH   1  23
ATOM     23  C   UNL     1      -0.952  11.671  19.478  0.00  0.00    +0.000 C 
BRANCH  23  24
ATOM     24  C   UNL     1      -1.816  11.055  18.383  0.00  0.00    +0.000 A 
ATOM     25  C   UNL     1      -1.307  10.005  17.604  0.00  0.00    +0.000 A 
ATOM     26  C   UNL     1      -2.011   9.534  16.491  0.00  0.00    +0.000 A 
ATOM     27  C   UNL     1      -3.238  10.095  16.146  0.00  0.00    +0.000 A 
ATOM     28  C   UNL     1      -3.780  11.101  16.934  0.00  0.00    +0.000 A 
ATOM     29  C   UNL     1      -3.079  11.566  18.045  0.00  0.00    +0.000 A 
ENDBRANCH  23  24
BRANCH  23  32
ATOM     30  C   UNL     1      -0.949  13.901  20.482  0.00  0.00    +0.000 C 
ATOM     31  O   UNL     1      -0.917  13.420  21.617  0.00  0.00    +0.000 OA
ATOM     32  N   UNL     1      -0.794  13.115  19.356  0.00  0.00    +0.000 N 
ATOM     33  H   UNL     1      -0.962  13.556  18.460  0.00  0.00    +0.000 HD
BRANCH  30  34
ATOM     34  C   UNL     1      -1.094  15.428  20.248  0.00  0.00    +0.000 C 
ATOM     35  C   UNL     1      -2.469  15.909  20.708  0.00  0.00    +0.000 C 
BRANCH  34  37
ATOM     36  C   UNL     1       0.319  16.601  18.637  0.00  0.00    +0.000 C 
ATOM     37  N   UNL     1      -0.824  15.707  18.819  0.00  0.00    +0.000 NA
ATOM     38  H   UNL     1      -0.587  14.817  18.375  0.00  0.00    +0.000 HD
ENDBRANCH  34  37
ENDBRANCH  30  34
ENDBRANCH  23  32
ENDBRANCH   1  23
TORSDOF 8
ENDMDL
MODEL 8
REMARK VINA RESULT:      -7.4      1.927      2.129
REMARK  Name = 
REMARK  10 active torsions:
REMARK  status: ('A' for Active; 'I' for Inactive)
REMARK    1  A    between atoms: C_1  and  N_2
REMARK    2  A    between atoms: N_2  and  C_3
REMARK    3  A    between atoms: C_3  and  C_4
REMARK    4  A    between atoms: C_3  and  C_5
REMARK    5  A    between atoms: N_7  and  C_8
REMARK    6  A    between atoms: C_8  and  C_9
REMARK    7  A    between atoms: C_8  and  C_30
REMARK    8  A    between atoms: C_15  and  C_16
REMARK    9  A    between atoms: N_18  and  C_19
REMARK   10  A    between atoms: C_23  and  C_24
REMARK                            x       y       z     vdW  Elec       q    Type
REMARK                         _______ _______ _______ _____ _____    ______ ____
ROOT
ATOM      1  C   UNL     1       0.824  11.107  19.529  0.00  0.00    +0.000 C 
ATOM      2  O   UNL     1       1.906  11.216  18.939  0.00  0.00    +0.000 OA
ATOM      3  N   UNL     1       0.681  10.158  20.521  0.00  0.00    +0.000 N 
ATOM      4  C   UNL     1      -0.402   9.940  21.465  0.00  0.00    +0.000 C 
ATOM      5  C   UNL     1       0.353   9.647  22.748  0.00  0.00    +0.000 C 
ATOM      6  C   UNL     1       1.539   8.805  22.276  0.00  0.00    +0.000 C 
ATOM      7  C   UNL     1       1.784   9.234  20.820  0.00  0.00    +0.000 C 
ENDROOT
BRANCH   7   8
ATOM      8  C   UNL     1       1.727   7.983  19.909  0.00  0.00    +0.000 C 
ATOM      9  O   UNL     1       1.336   8.048  18.746  0.00  0.00    +0.000 OA
ATOM     10  N   UNL     1       2.278   6.849  20.505  0.00  0.00    +0.000 N 
ATOM     11  H   UNL     1       1.978   6.749  21.475  0.00  0.00    +0.000 HD
BRANCH  10  12
ATOM     12  C   UNL     1       2.279   5.675  19.793  0.00  0.00    +0.000 A 
ATOM     13  S   UNL     1       1.034   4.562  20.126  0.00  0.00    +0.000 S 
ATOM     14  N   UNL     1       1.613   3.454  19.014  0.00  0.00    +0.000 NA
ATOM     15  N   UNL     1       2.737   3.849  18.433  0.00  0.00    +0.000 NA
ATOM     16  C   UNL     1       3.153   5.104  18.888  0.00  0.00    +0.000 A 
BRANCH  16  17
ATOM     17  C   UNL     1       4.447   5.649  18.479  0.00  0.00    +0.000 A 
ATOM     18  C   UNL     1       5.607   5.266  19.165  0.00  0.00    +0.000 A 
ATOM     19  C   UNL     1       6.856   5.781  18.804  0.00  0.00    +0.000 A 
ATOM     20  C   UNL     1       6.961   6.694  17.758  0.00  0.00    +0.000 A 
ATOM     21  C   UNL     1       5.816   7.108  17.084  0.00  0.00    +0.000 A 
ATOM     22  C   UNL     1       4.566   6.597  17.450  0.00  0.00    +0.000 A 
ENDBRANCH  16  17
ENDBRANCH  10  12
ENDBRANCH   7   8
BRANCH   1  23
ATOM     23  C   UNL     1      -0.343  12.083  19.183  0.00  0.00    +0.000 C 
BRANCH  23  24
ATOM     24  C   UNL     1      -1.415  11.368  18.370  0.00  0.00    +0.000 A 
ATOM     25  C   UNL     1      -2.765  11.708  18.548  0.00  0.00    +0.000 A 
ATOM     26  C   UNL     1      -3.777  10.959  17.940  0.00  0.00    +0.000 A 
ATOM     27  C   UNL     1      -3.458   9.868  17.136  0.00  0.00    +0.000 A 
ATOM     28  C   UNL     1      -2.128   9.547  16.908  0.00  0.00    +0.000 A 
ATOM     29  C   UNL     1      -1.120  10.297  17.512  0.00  0.00    +0.000 A 
ENDBRANCH  23  24
BRANCH  23  32
ATOM     30  C   UNL     1       0.189  14.455  19.456  0.00  0.00    +0.000 C 
ATOM     31  O   UNL     1       0.265  14.325  20.680  0.00  0.00    +0.000 OA
ATOM     32  N   UNL     1       0.063  13.364  18.618  0.00  0.00    +0.000 N 
ATOM     33  H   UNL     1      -0.124  13.554  17.641  0.00  0.00    +0.000 HD
BRANCH  30  34
ATOM     34  C   UNL     1       0.303  15.845  18.775  0.00  0.00    +0.000 C 
ATOM     35  C   UNL     1       1.315  16.718  19.513  0.00  0.00    +0.000 C 
BRANCH  34  37
ATOM     36  C   UNL     1      -1.145  17.678  19.490  0.00  0.00    +0.000 C 
ATOM     37  N   UNL     1      -1.050  16.443  18.712  0.00  0.00    +0.000 NA
ATOM     38  H   UNL     1      -1.231  16.685  17.735  0.00  0.00    +0.000 HD
ENDBRANCH  34  37
ENDBRANCH  30  34
ENDBRANCH  23  32
ENDBRANCH   1  23
TORSDOF 8
ENDMDL
MODEL 9
REMARK VINA RESULT:      -7.4      1.572      1.960
REMARK  Name = 
REMARK  10 active torsions:
REMARK  status: ('A' for Active; 'I' for Inactive)
REMARK    1  A    between atoms: C_1  and  N_2
REMARK    2  A    between atoms: N_2  and  C_3
REMARK    3  A    between atoms: C_3  and  C_4
REMARK    4  A    between atoms: C_3  and  C_5
REMARK    5  A    between atoms: N_7  and  C_8
REMARK    6  A    between atoms: C_8  and  C_9
REMARK    7  A    between atoms: C_8  and  C_30
REMARK    8  A    between atoms: C_15  and  C_16
REMARK    9  A    between atoms: N_18  and  C_19
REMARK   10  A    between atoms: C_23  and  C_24
REMARK                            x       y       z     vdW  Elec       q    Type
REMARK                         _______ _______ _______ _____ _____    ______ ____
ROOT
ATOM      1  C   UNL     1       0.524  10.988  19.735  0.00  0.00    +0.000 C 
ATOM      2  O   UNL     1       1.530  11.202  19.049  0.00  0.00    +0.000 OA
ATOM      3  N   UNL     1       0.561  10.021  20.720  0.00  0.00    +0.000 N 
ATOM      4  C   UNL     1      -0.404   9.696  21.757  0.00  0.00    +0.000 C 
ATOM      5  C   UNL     1       0.493   9.462  22.958  0.00  0.00    +0.000 C 
ATOM      6  C   UNL     1       1.700   8.736  22.363  0.00  0.00    +0.000 C 
ATOM      7  C   UNL     1       1.767   9.199  20.898  0.00  0.00    +0.000 C 
ENDROOT
BRANCH   7   8
ATOM      8  C   UNL     1       1.738   7.956  19.975  0.00  0.00    +0.000 C 
ATOM      9  O   UNL     1       1.410   8.038  18.793  0.00  0.00    +0.000 OA
ATOM     10  N   UNL     1       2.237   6.809  20.588  0.00  0.00    +0.000 N 
ATOM     11  H   UNL     1       1.884   6.707  21.541  0.00  0.00    +0.000 HD
BRANCH  10  12
ATOM     12  C   UNL     1       2.256   5.640  19.867  0.00  0.00    +0.000 A 
ATOM     13  S   UNL     1       1.017   4.515  20.176  0.00  0.00    +0.000 S 
ATOM     14  N   UNL     1       1.618   3.421  19.063  0.00  0.00    +0.000 NA
ATOM     15  N   UNL     1       2.746   3.830  18.499  0.00  0.00    +0.000 NA
ATOM     16  C   UNL     1       3.146   5.084  18.969  0.00  0.00    +0.000 A 
BRANCH  16  17
ATOM     17  C   UNL     1       4.440   5.644  18.580  0.00  0.00    +0.000 A 
ATOM     18  C   UNL     1       4.511   6.540  17.505  0.00  0.00    +0.000 A 
ATOM     19  C   UNL     1       5.736   7.081  17.102  0.00  0.00    +0.000 A 
ATOM     20  C   UNL     1       6.909   6.726  17.764  0.00  0.00    +0.000 A 
ATOM     21  C   UNL     1       6.862   5.815  18.815  0.00  0.00    +0.000 A 
ATOM     22  C   UNL     1       5.636   5.270  19.212  0.00  0.00    +0.000 A 
ENDBRANCH  16  17
ENDBRANCH  10  12
ENDBRANCH   7   8
BRANCH   1  23
ATOM     23  C   UNL     1      -0.755  11.856  19.518  0.00  0.00    +0.000 C 
BRANCH  23  24
ATOM     24  C   UNL     1      -1.634  11.250  18.430  0.00  0.00    +0.000 A 
ATOM     25  C   UNL     1      -2.974  11.649  18.317  0.00  0.00    +0.000 A 
ATOM     26  C   UNL     1      -3.844  10.994  17.440  0.00  0.00    +0.000 A 
ATOM     27  C   UNL     1      -3.387   9.939  16.654  0.00  0.00    +0.000 A 
ATOM     28  C   UNL     1      -2.052   9.563  16.716  0.00  0.00    +0.000 A 
ATOM     29  C   UNL     1      -1.186  10.220  17.588  0.00  0.00    +0.000 A 
ENDBRANCH  23  24
BRANCH  23  32
ATOM     30  C   UNL     1      -0.846  14.144  20.380  0.00  0.00    +0.000 C 
ATOM     31  O   UNL     1      -1.048  13.733  21.525  0.00  0.00    +0.000 OA
ATOM     32  N   UNL     1      -0.516  13.285  19.349  0.00  0.00    +0.000 N 
ATOM     33  H   UNL     1      -0.494  13.674  18.415  0.00  0.00    +0.000 HD
BRANCH  30  34
ATOM     34  C   UNL     1      -0.879  15.657  20.039  0.00  0.00    +0.000 C 
ATOM     35  C   UNL     1      -2.180  16.286  20.536  0.00  0.00    +0.000 C 
BRANCH  34  37
ATOM     36  C   UNL     1      -0.058  17.091  18.240  0.00  0.00    +0.000 C 
ATOM     37  N   UNL     1      -0.675  15.809  18.580  0.00  0.00    +0.000 NA
ATOM     38  H   UNL     1      -0.029  15.074  18.285  0.00  0.00    +0.000 HD
ENDBRANCH  34  37
ENDBRANCH  30  34
ENDBRANCH  23  32
ENDBRANCH   1  23
TORSDOF 8
ENDMDL
