MODEL 1
REMARK VINA RESULT:      -7.0      0.000      0.000
REMARK  Name = 
REMARK  8 active torsions:
REMARK  status: ('A' for Active; 'I' for Inactive)
REMARK    1  A    between atoms: C_1  and  C_2
REMARK    2  A    between atoms: C_5  and  C_6
REMARK    3  A    between atoms: C_7  and  S_8
REMARK    4  A    between atoms: S_8  and  N_11
REMARK    5  A    between atoms: N_11  and  C_12
REMARK    6  A    between atoms: C_12  and  C_13
REMARK    7  A    between atoms: C_13  and  O_14
REMARK    8  A    between atoms: C_13  and  C_15
REMARK                            x       y       z     vdW  Elec       q    Type
REMARK                         _______ _______ _______ _____ _____    ______ ____
ROOT
ATOM      1  N   UNL     1       4.388   2.996  17.047  0.00  0.00    +0.000 NA
ATOM      2  H   UNL     1       4.983   2.744  16.260  0.00  0.00    +0.000 HD
ENDROOT
BRANCH   1   3
ATOM      3  S   UNL     1       4.997   4.334  17.877  0.00  0.00    +0.000 S 
ATOM      4  O   UNL     1       5.741   3.850  19.014  0.00  0.00    +0.000 OA
ATOM      5  O   UNL     1       3.913   5.274  17.993  0.00  0.00    +0.000 OA
BRANCH   3  12
ATOM      6  C   UNL     1       5.353   4.294  14.519  0.00  0.00    +0.000 C 
ATOM      7  C   UNL     1       6.216   5.031  15.473  0.00  0.00    +0.000 A 
ATOM      8  N   UNL     1       7.261   5.733  15.017  0.00  0.00    +0.000 NA
ATOM      9  O   UNL     1       7.859   6.292  16.130  0.00  0.00    +0.000 OA
ATOM     10  C   UNL     1       7.181   5.921  17.251  0.00  0.00    +0.000 A 
ATOM     11  C   UNL     1       7.717   6.431  18.529  0.00  0.00    +0.000 C 
ATOM     12  C   UNL     1       6.134   5.113  16.879  0.00  0.00    +0.000 A 
ENDBRANCH   3  12
ENDBRANCH   1   3
BRANCH   1  13
ATOM     13  C   UNL     1       3.919   1.862  17.884  0.00  0.00    +0.000 C 
BRANCH  13  14
ATOM     14  C   UNL     1       2.468   2.072  18.360  0.00  0.00    +0.000 C 
BRANCH  14  15
ATOM     15  C   UNL     1       2.300   2.515  19.781  0.00  0.00    +0.000 A 
ATOM     16  C   UNL     1       1.186   3.239  20.309  0.00  0.00    +0.000 A 
ATOM     17  C   UNL     1       1.405   3.375  21.659  0.00  0.00    +0.000 A 
ATOM     18  O   UNL     1       2.594   2.821  21.999  0.00  0.00    +0.000 OA
ATOM     19  C   UNL     1       3.134   2.311  20.864  0.00  0.00    +0.000 A 
ENDBRANCH  14  15
BRANCH  14  20
ATOM     20  O   UNL     1       1.820   2.971  17.449  0.00  0.00    +0.000 OA
ATOM     21  H   UNL     1       0.875   2.743  17.457  0.00  0.00    +0.000 HD
ENDBRANCH  14  20
ENDBRANCH  13  14
ENDBRANCH   1  13
TORSDOF 6
ENDMDL
MODEL 2
REMARK VINA RESULT:      -7.0      1.132      1.143
REMARK  Name = 
REMARK  8 active torsions:
REMARK  status: ('A' for Active; 'I' for Inactive)
REMARK    1  A    between atoms: C_1  and  C_2
REMARK    2  A    between atoms: C_5  and  C_6
REMARK    3  A    between atoms: C_7  and  S_8
REMARK    4  A    between atoms: S_8  and  N_11
REMARK    5  A    between atoms: N_11  and  C_12
REMARK    6  A    between atoms: C_12  and  C_13
REMARK    7  A    between atoms: C_13  and  O_14
REMARK    8  A    between atoms: C_13  and  C_15
REMARK                            x       y       z     vdW  Elec       q    Type
REMARK                         _______ _______ _______ _____ _____    ______ ____
ROOT
ATOM      1  N   UNL     1       3.378   4.201  17.418  0.00  0.00    +0.000 NA
ATOM      2  H   UNL     1       3.015   4.342  16.477  0.00  0.00    +0.000 HD
ENDROOT
BRANCH   1   3
ATOM      3  S   UNL     1       4.366   5.483  17.899  0.00  0.00    +0.000 S 
ATOM      4  O   UNL     1       4.413   5.491  19.340  0.00  0.00    +0.000 OA
ATOM      5  O   UNL     1       3.963   6.626  17.122  0.00  0.00    +0.000 OA
BRANCH   3  12
ATOM      6  C   UNL     1       5.542   4.537  14.878  0.00  0.00    +0.000 C 
ATOM      7  C   UNL     1       6.358   4.753  16.096  0.00  0.00    +0.000 A 
ATOM      8  N   UNL     1       7.679   4.538  16.057  0.00  0.00    +0.000 NA
ATOM      9  O   UNL     1       8.148   4.818  17.326  0.00  0.00    +0.000 OA
ATOM     10  C   UNL     1       7.113   5.191  18.126  0.00  0.00    +0.000 A 
ATOM     11  C   UNL     1       7.459   5.507  19.527  0.00  0.00    +0.000 C 
ATOM     12  C   UNL     1       5.956   5.157  17.386  0.00  0.00    +0.000 A 
ENDBRANCH   3  12
ENDBRANCH   1   3
BRANCH   1  13
ATOM     13  C   UNL     1       3.888   2.835  17.707  0.00  0.00    +0.000 C 
BRANCH  13  14
ATOM     14  C   UNL     1       2.836   1.982  18.443  0.00  0.00    +0.000 C 
BRANCH  14  15
ATOM     15  C   UNL     1       2.500   2.410  19.839  0.00  0.00    +0.000 A 
ATOM     16  C   UNL     1       1.212   2.813  20.307  0.00  0.00    +0.000 A 
ATOM     17  C   UNL     1       1.336   3.050  21.655  0.00  0.00    +0.000 A 
ATOM     18  O   UNL     1       2.619   2.862  22.048  0.00  0.00    +0.000 OA
ATOM     19  C   UNL     1       3.319   2.484  20.949  0.00  0.00    +0.000 A 
ENDBRANCH  14  15
BRANCH  14  20
ATOM     20  O   UNL     1       1.662   1.906  17.620  0.00  0.00    +0.000 OA
ATOM     21  H   UNL     1       1.858   1.267  16.914  0.00  0.00    +0.000 HD
ENDBRANCH  14  20
ENDBRANCH  13  14
ENDBRANCH   1  13
TORSDOF 6
ENDMDL
MODEL 3
REMARK VINA RESULT:      -7.0      1.692      1.919
REMARK  Name = 
REMARK  8 active torsions:
REMARK  status: ('A' for Active; 'I' for Inactive)
REMARK    1  A    between atoms: C_1  and  C_2
REMARK    2  A    between atoms: C_5  and  C_6
REMARK    3  A    between atoms: C_7  and  S_8
REMARK    4  A    between atoms: S_8  and  N_11
REMARK    5  A    between atoms: N_11  and  C_12
REMARK    6  A    between atoms: C_12  and  C_13
REMARK    7  A    between atoms: C_13  and  O_14
REMARK    8  A    between atoms: C_13  and  C_15
REMARK                            x       y       z     vdW  Elec       q    Type
REMARK                         _______ _______ _______ _____ _____    ______ ____
ROOT
ATOM      1  N   UNL     1       5.230   3.335  18.835  0.00  0.00    +0.000 NA
ATOM      2  H   UNL     1       5.140   2.876  19.739  0.00  0.00    +0.000 HD
ENDROOT
BRANCH   1   3
ATOM      3  S   UNL     1       5.499   4.993  19.007  0.00  0.00    +0.000 S 
ATOM      4  O   UNL     1       6.851   5.179  19.472  0.00  0.00    +0.000 OA
ATOM      5  O   UNL     1       4.353   5.525  19.697  0.00  0.00    +0.000 OA
BRANCH   3  12
ATOM      6  C   UNL     1       7.382   4.436  16.259  0.00  0.00    +0.000 C 
ATOM      7  C   UNL     1       6.280   5.420  16.368  0.00  0.00    +0.000 A 
ATOM      8  N   UNL     1       5.984   6.205  15.324  0.00  0.00    +0.000 NA
ATOM      9  O   UNL     1       4.932   7.003  15.733  0.00  0.00    +0.000 OA
ATOM     10  C   UNL     1       4.603   6.704  17.019  0.00  0.00    +0.000 A 
ATOM     11  C   UNL     1       3.499   7.493  17.604  0.00  0.00    +0.000 C 
ATOM     12  C   UNL     1       5.439   5.709  17.464  0.00  0.00    +0.000 A 
ENDBRANCH   3  12
ENDBRANCH   1   3
BRANCH   1  13
ATOM     13  C   UNL     1       4.230   2.935  17.812  0.00  0.00    +0.000 C 
BRANCH  13  14
ATOM     14  C   UNL     1       3.055   2.160  18.442  0.00  0.00    +0.000 C 
BRANCH  14  15
ATOM     15  C   UNL     1       2.304   2.870  19.526  0.00  0.00    +0.000 A 
ATOM     16  C   UNL     1       1.417   3.976  19.347  0.00  0.00    +0.000 A 
ATOM     17  C   UNL     1       0.893   4.269  20.584  0.00  0.00    +0.000 A 
ATOM     18  O   UNL     1       1.423   3.448  21.523  0.00  0.00    +0.000 OA
ATOM     19  C   UNL     1       2.278   2.612  20.883  0.00  0.00    +0.000 A 
ENDBRANCH  14  15
BRANCH  14  20
ATOM     20  O   UNL     1       2.179   1.734  17.387  0.00  0.00    +0.000 OA
ATOM     21  H   UNL     1       2.508   0.871  17.084  0.00  0.00    +0.000 HD
ENDBRANCH  14  20
ENDBRANCH  13  14
ENDBRANCH   1  13
TORSDOF 6
ENDMDL
MODEL 4
REMARK VINA RESULT:      -6.9      1.294      2.200
REMARK  Name = 
REMARK  8 active torsions:
REMARK  status: ('A' for Active; 'I' for Inactive)
REMARK    1  A    between atoms: C_1  and  C_2
REMARK    2  A    between atoms: C_5  and  C_6
REMARK    3  A    between atoms: C_7  and  S_8
REMARK    4  A    between atoms: S_8  and  N_11
REMARK    5  A    between atoms: N_11  and  C_12
REMARK    6  A    between atoms: C_12  and  C_13
REMARK    7  A    between atoms: C_13  and  O_14
REMARK    8  A    between atoms: C_13  and  C_15
REMARK                            x       y       z     vdW  Elec       q    Type
REMARK                         _______ _______ _______ _____ _____    ______ ____
ROOT
ATOM      1  N   UNL     1       3.350   4.318  17.709  0.00  0.00    +0.000 NA
ATOM      2  H   UNL     1       2.758   4.535  16.911  0.00  0.00    +0.000 HD
ENDROOT
BRANCH   1   3
ATOM      3  S   UNL     1       4.470   5.547  18.000  0.00  0.00    +0.000 S 
ATOM      4  O   UNL     1       4.633   5.672  19.428  0.00  0.00    +0.000 OA
ATOM      5  O   UNL     1       4.099   6.651  17.155  0.00  0.00    +0.000 OA
BRANCH   3  12
ATOM      6  C   UNL     1       7.481   5.400  19.523  0.00  0.00    +0.000 C 
ATOM      7  C   UNL     1       7.203   5.026  18.115  0.00  0.00    +0.000 A 
ATOM      8  N   UNL     1       8.205   4.618  17.326  0.00  0.00    +0.000 NA
ATOM      9  O   UNL     1       7.636   4.352  16.095  0.00  0.00    +0.000 OA
ATOM     10  C   UNL     1       6.300   4.607  16.142  0.00  0.00    +0.000 A 
ATOM     11  C   UNL     1       5.554   4.384  14.887  0.00  0.00    +0.000 C 
ATOM     12  C   UNL     1       5.984   5.045  17.406  0.00  0.00    +0.000 A 
ENDBRANCH   3  12
ENDBRANCH   1   3
BRANCH   1  13
ATOM     13  C   UNL     1       3.873   2.928  17.758  0.00  0.00    +0.000 C 
BRANCH  13  14
ATOM     14  C   UNL     1       2.906   1.985  18.502  0.00  0.00    +0.000 C 
BRANCH  14  15
ATOM     15  C   UNL     1       2.529   2.394  19.893  0.00  0.00    +0.000 A 
ATOM     16  C   UNL     1       1.226   2.787  20.328  0.00  0.00    +0.000 A 
ATOM     17  C   UNL     1       1.309   3.007  21.683  0.00  0.00    +0.000 A 
ATOM     18  O   UNL     1       2.581   2.817  22.110  0.00  0.00    +0.000 OA
ATOM     19  C   UNL     1       3.314   2.456  21.028  0.00  0.00    +0.000 A 
ENDBRANCH  14  15
BRANCH  14  20
ATOM     20  O   UNL     1       1.747   1.787  17.679  0.00  0.00    +0.000 OA
ATOM     21  H   UNL     1       2.034   1.915  16.759  0.00  0.00    +0.000 HD
ENDBRANCH  14  20
ENDBRANCH  13  14
ENDBRANCH   1  13
TORSDOF 6
ENDMDL
MODEL 5
REMARK VINA RESULT:      -6.8      1.800      2.452
REMARK  Name = 
REMARK  8 active torsions:
REMARK  status: ('A' for Active; 'I' for Inactive)
REMARK    1  A    between atoms: C_1  and  C_2
REMARK    2  A    between atoms: C_5  and  C_6
REMARK    3  A    between atoms: C_7  and  S_8
REMARK    4  A    between atoms: S_8  and  N_11
REMARK    5  A    between atoms: N_11  and  C_12
REMARK    6  A    between atoms: C_12  and  C_13
REMARK    7  A    between atoms: C_13  and  O_14
REMARK    8  A    between atoms: C_13  and  C_15
REMARK                            x       y       z     vdW  Elec       q    Type
REMARK                         _______ _______ _______ _____ _____    ______ ____
ROOT
ATOM      1  N   UNL     1       4.429   5.619  19.237  0.00  0.00    +0.000 NA
ATOM      2  H   UNL     1       5.171   6.196  19.628  0.00  0.00    +0.000 HD
ENDROOT
BRANCH   1   3
ATOM      3  S   UNL     1       5.047   4.433  18.207  0.00  0.00    +0.000 S 
ATOM      4  O   UNL     1       3.965   3.949  17.385  0.00  0.00    +0.000 OA
ATOM      5  O   UNL     1       5.861   3.567  19.019  0.00  0.00    +0.000 OA
BRANCH   3  12
ATOM      6  C   UNL     1       5.301   4.228  14.846  0.00  0.00    +0.000 C 
ATOM      7  C   UNL     1       6.185   5.019  15.734  0.00  0.00    +0.000 A 
ATOM      8  N   UNL     1       7.209   5.706  15.212  0.00  0.00    +0.000 NA
ATOM      9  O   UNL     1       7.835   6.326  16.277  0.00  0.00    +0.000 OA
ATOM     10  C   UNL     1       7.196   6.005  17.435  0.00  0.00    +0.000 A 
ATOM     11  C   UNL     1       7.764   6.583  18.669  0.00  0.00    +0.000 C 
ATOM     12  C   UNL     1       6.146   5.171  17.136  0.00  0.00    +0.000 A 
ENDBRANCH   3  12
ENDBRANCH   1   3
BRANCH   1  13
ATOM     13  C   UNL     1       3.236   6.356  18.747  0.00  0.00    +0.000 C 
BRANCH  13  14
ATOM     14  C   UNL     1       2.014   6.124  19.658  0.00  0.00    +0.000 C 
BRANCH  14  15
ATOM     15  C   UNL     1       1.808   4.721  20.140  0.00  0.00    +0.000 A 
ATOM     16  C   UNL     1       2.177   4.211  21.422  0.00  0.00    +0.000 A 
ATOM     17  C   UNL     1       1.745   2.906  21.470  0.00  0.00    +0.000 A 
ATOM     18  O   UNL     1       1.171   2.560  20.292  0.00  0.00    +0.000 OA
ATOM     19  C   UNL     1       1.218   3.653  19.490  0.00  0.00    +0.000 A 
ENDBRANCH  14  15
BRANCH  14  20
ATOM     20  O   UNL     1       2.086   7.050  20.753  0.00  0.00    +0.000 OA
ATOM     21  H   UNL     1       2.026   6.524  21.567  0.00  0.00    +0.000 HD
ENDBRANCH  14  20
ENDBRANCH  13  14
ENDBRANCH   1  13
TORSDOF 6
ENDMDL
MODEL 6
REMARK VINA RESULT:      -6.8      1.449      2.006
REMARK  Name = 
REMARK  8 active torsions:
REMARK  status: ('A' for Active; 'I' for Inactive)
REMARK    1  A    between atoms: C_1  and  C_2
REMARK    2  A    between atoms: C_5  and  C_6
REMARK    3  A    between atoms: C_7  and  S_8
REMARK    4  A    between atoms: S_8  and  N_11
REMARK    5  A    between atoms: N_11  and  C_12
REMARK    6  A    between atoms: C_12  and  C_13
REMARK    7  A    between atoms: C_13  and  O_14
REMARK    8  A    between atoms: C_13  and  C_15
REMARK                            x       y       z     vdW  Elec       q    Type
REMARK                         _______ _______ _______ _____ _____    ______ ____
ROOT
ATOM      1  N   UNL     1       5.643   3.677  18.745  0.00  0.00    +0.000 NA
ATOM      2  H   UNL     1       6.571   4.068  18.894  0.00  0.00    +0.000 HD
ENDROOT
BRANCH   1   3
ATOM      3  S   UNL     1       4.924   4.306  17.354  0.00  0.00    +0.000 S 
ATOM      4  O   UNL     1       4.037   5.372  17.753  0.00  0.00    +0.000 OA
ATOM      5  O   UNL     1       4.490   3.180  16.570  0.00  0.00    +0.000 OA
BRANCH   3  12
ATOM      6  C   UNL     1       5.693   3.917  14.089  0.00  0.00    +0.000 C 
ATOM      7  C   UNL     1       6.393   4.809  15.043  0.00  0.00    +0.000 A 
ATOM      8  N   UNL     1       7.449   5.522  14.632  0.00  0.00    +0.000 NA
ATOM      9  O   UNL     1       7.876   6.240  15.734  0.00  0.00    +0.000 OA
ATOM     10  C   UNL     1       7.085   5.953  16.803  0.00  0.00    +0.000 A 
ATOM     11  C   UNL     1       7.432   6.635  18.066  0.00  0.00    +0.000 C 
ATOM     12  C   UNL     1       6.134   5.042  16.410  0.00  0.00    +0.000 A 
ENDBRANCH   3  12
ENDBRANCH   1   3
BRANCH   1  13
ATOM     13  C   UNL     1       4.781   3.602  19.953  0.00  0.00    +0.000 C 
BRANCH  13  14
ATOM     14  C   UNL     1       3.943   2.308  19.971  0.00  0.00    +0.000 C 
BRANCH  14  15
ATOM     15  C   UNL     1       2.498   2.453  19.603  0.00  0.00    +0.000 A 
ATOM     16  C   UNL     1       1.512   3.172  20.345  0.00  0.00    +0.000 A 
ATOM     17  C   UNL     1       0.346   3.110  19.619  0.00  0.00    +0.000 A 
ATOM     18  O   UNL     1       0.530   2.369  18.500  0.00  0.00    +0.000 OA
ATOM     19  C   UNL     1       1.826   1.969  18.497  0.00  0.00    +0.000 A 
ENDBRANCH  14  15
BRANCH  14  20
ATOM     20  O   UNL     1       4.601   1.335  19.146  0.00  0.00    +0.000 OA
ATOM     21  H   UNL     1       5.076   0.736  19.746  0.00  0.00    +0.000 HD
ENDBRANCH  14  20
ENDBRANCH  13  14
ENDBRANCH   1  13
TORSDOF 6
ENDMDL
MODEL 7
REMARK VINA RESULT:      -6.8      1.924      3.196
REMARK  Name = 
REMARK  8 active torsions:
REMARK  status: ('A' for Active; 'I' for Inactive)
REMARK    1  A    between atoms: C_1  and  C_2
REMARK    2  A    between atoms: C_5  and  C_6
REMARK    3  A    between atoms: C_7  and  S_8
REMARK    4  A    between atoms: S_8  and  N_11
REMARK    5  A    between atoms: N_11  and  C_12
REMARK    6  A    between atoms: C_12  and  C_13
REMARK    7  A    between atoms: C_13  and  O_14
REMARK    8  A    between atoms: C_13  and  C_15
REMARK                            x       y       z     vdW  Elec       q    Type
REMARK                         _______ _______ _______ _____ _____    ______ ____
ROOT
ATOM      1  N   UNL     1       4.757   6.047  19.685  0.00  0.00    +0.000 NA
ATOM      2  H   UNL     1       5.128   6.956  19.954  0.00  0.00    +0.000 HD
ENDROOT
BRANCH   1   3
ATOM      3  S   UNL     1       5.989   4.987  19.230  0.00  0.00    +0.000 S 
ATOM      4  O   UNL     1       5.413   3.672  19.082  0.00  0.00    +0.000 OA
ATOM      5  O   UNL     1       7.106   5.259  20.096  0.00  0.00    +0.000 OA
BRANCH   3  12
ATOM      6  C   UNL     1       8.033   7.494  18.261  0.00  0.00    +0.000 C 
ATOM      7  C   UNL     1       7.385   6.509  17.363  0.00  0.00    +0.000 A 
ATOM      8  N   UNL     1       7.569   6.595  16.040  0.00  0.00    +0.000 NA
ATOM      9  O   UNL     1       6.844   5.557  15.485  0.00  0.00    +0.000 OA
ATOM     10  C   UNL     1       6.222   4.855  16.471  0.00  0.00    +0.000 A 
ATOM     11  C   UNL     1       5.390   3.717  16.028  0.00  0.00    +0.000 C 
ATOM     12  C   UNL     1       6.533   5.430  17.679  0.00  0.00    +0.000 A 
ENDBRANCH   3  12
ENDBRANCH   1   3
BRANCH   1  13
ATOM     13  C   UNL     1       3.561   6.081  18.804  0.00  0.00    +0.000 C 
BRANCH  13  14
ATOM     14  C   UNL     1       2.316   5.517  19.517  0.00  0.00    +0.000 C 
BRANCH  14  15
ATOM     15  C   UNL     1       1.844   4.172  19.055  0.00  0.00    +0.000 A 
ATOM     16  C   UNL     1       0.964   3.301  19.766  0.00  0.00    +0.000 A 
ATOM     17  C   UNL     1       0.740   2.214  18.955  0.00  0.00    +0.000 A 
ATOM     18  O   UNL     1       1.450   2.332  17.807  0.00  0.00    +0.000 OA
ATOM     19  C   UNL     1       2.121   3.509  17.874  0.00  0.00    +0.000 A 
ENDBRANCH  14  15
BRANCH  14  20
ATOM     20  O   UNL     1       2.562   5.531  20.931  0.00  0.00    +0.000 OA
ATOM     21  H   UNL     1       2.201   6.368  21.268  0.00  0.00    +0.000 HD
ENDBRANCH  14  20
ENDBRANCH  13  14
ENDBRANCH   1  13
TORSDOF 6
ENDMDL
MODEL 8
REMARK VINA RESULT:      -6.8      1.504      1.727
REMARK  Name = 
REMARK  8 active torsions:
REMARK  status: ('A' for Active; 'I' for Inactive)
REMARK    1  A    between atoms: C_1  and  C_2
REMARK    2  A    between atoms: C_5  and  C_6
REMARK    3  A    between atoms: C_7  and  S_8
REMARK    4  A    between atoms: S_8  and  N_11
REMARK    5  A    between atoms: N_11  and  C_12
REMARK    6  A    between atoms: C_12  and  C_13
REMARK    7  A    between atoms: C_13  and  O_14
REMARK    8  A    between atoms: C_13  and  C_15
REMARK                            x       y       z     vdW  Elec       q    Type
REMARK                         _______ _______ _______ _____ _____    ______ ____
ROOT
ATOM      1  N   UNL     1       5.579   3.332  18.818  0.00  0.00    +0.000 NA
ATOM      2  H   UNL     1       6.553   3.037  18.802  0.00  0.00    +0.000 HD
ENDROOT
BRANCH   1   3
ATOM      3  S   UNL     1       5.435   5.000  18.600  0.00  0.00    +0.000 S 
ATOM      4  O   UNL     1       6.043   5.652  19.734  0.00  0.00    +0.000 OA
ATOM      5  O   UNL     1       4.076   5.244  18.191  0.00  0.00    +0.000 OA
BRANCH   3  12
ATOM      6  C   UNL     1       5.608   3.652  15.508  0.00  0.00    +0.000 C 
ATOM      7  C   UNL     1       6.390   4.815  15.991  0.00  0.00    +0.000 A 
ATOM      8  N   UNL     1       7.279   5.400  15.179  0.00  0.00    +0.000 NA
ATOM      9  O   UNL     1       7.838   6.434  15.908  0.00  0.00    +0.000 OA
ATOM     10  C   UNL     1       7.293   6.463  17.154  0.00  0.00    +0.000 A 
ATOM     11  C   UNL     1       7.807   7.510  18.060  0.00  0.00    +0.000 C 
ATOM     12  C   UNL     1       6.373   5.448  17.251  0.00  0.00    +0.000 A 
ENDBRANCH   3  12
ENDBRANCH   1   3
BRANCH   1  13
ATOM     13  C   UNL     1       4.749   2.737  19.897  0.00  0.00    +0.000 C 
BRANCH  13  14
ATOM     14  C   UNL     1       3.647   1.824  19.326  0.00  0.00    +0.000 C 
BRANCH  14  15
ATOM     15  C   UNL     1       2.244   2.336  19.439  0.00  0.00    +0.000 A 
ATOM     16  C   UNL     1       1.761   3.252  20.424  0.00  0.00    +0.000 A 
ATOM     17  C   UNL     1       0.444   3.505  20.119  0.00  0.00    +0.000 A 
ATOM     18  O   UNL     1       0.066   2.779  19.039  0.00  0.00    +0.000 OA
ATOM     19  C   UNL     1       1.150   2.070  18.637  0.00  0.00    +0.000 A 
ENDBRANCH  14  15
BRANCH  14  20
ATOM     20  O   UNL     1       3.983   1.508  17.967  0.00  0.00    +0.000 OA
ATOM     21  H   UNL     1       4.949   1.407  17.935  0.00  0.00    +0.000 HD
ENDBRANCH  14  20
ENDBRANCH  13  14
ENDBRANCH   1  13
TORSDOF 6
ENDMDL
MODEL 9
REMARK VINA RESULT:      -6.8      0.833      1.990
REMARK  Name = 
REMARK  8 active torsions:
REMARK  status: ('A' for Active; 'I' for Inactive)
REMARK    1  A    between atoms: C_1  and  C_2
REMARK    2  A    between atoms: C_5  and  C_6
REMARK    3  A    between atoms: C_7  and  S_8
REMARK    4  A    between atoms: S_8  and  N_11
REMARK    5  A    between atoms: N_11  and  C_12
REMARK    6  A    between atoms: C_12  and  C_13
REMARK    7  A    between atoms: C_13  and  O_14
REMARK    8  A    between atoms: C_13  and  C_15
REMARK                            x       y       z     vdW  Elec       q    Type
REMARK                         _______ _______ _______ _____ _____    ______ ____
ROOT
ATOM      1  N   UNL     1       4.470   2.995  17.500  0.00  0.00    +0.000 NA
ATOM      2  H   UNL     1       4.942   2.193  17.913  0.00  0.00    +0.000 HD
ENDROOT
BRANCH   1   3
ATOM      3  S   UNL     1       5.068   4.449  18.114  0.00  0.00    +0.000 S 
ATOM      4  O   UNL     1       5.851   4.148  19.288  0.00  0.00    +0.000 OA
ATOM      5  O   UNL     1       3.967   5.375  18.124  0.00  0.00    +0.000 OA
BRANCH   3  12
ATOM      6  C   UNL     1       7.658   6.573  18.545  0.00  0.00    +0.000 C 
ATOM      7  C   UNL     1       7.217   5.996  17.253  0.00  0.00    +0.000 A 
ATOM      8  N   UNL     1       7.848   6.339  16.123  0.00  0.00    +0.000 NA
ATOM      9  O   UNL     1       7.212   5.650  15.107  0.00  0.00    +0.000 OA
ATOM     10  C   UNL     1       6.199   4.903  15.624  0.00  0.00    +0.000 A 
ATOM     11  C   UNL     1       5.412   4.119  14.651  0.00  0.00    +0.000 C 
ATOM     12  C   UNL     1       6.163   5.099  16.984  0.00  0.00    +0.000 A 
ENDBRANCH   3  12
ENDBRANCH   1   3
BRANCH   1  13
ATOM     13  C   UNL     1       2.991   2.884  17.400  0.00  0.00    +0.000 C 
BRANCH  13  14
ATOM     14  C   UNL     1       2.399   2.113  18.596  0.00  0.00    +0.000 C 
BRANCH  14  15
ATOM     15  C   UNL     1       2.275   2.879  19.878  0.00  0.00    +0.000 A 
ATOM     16  C   UNL     1       1.677   4.168  20.031  0.00  0.00    +0.000 A 
ATOM     17  C   UNL     1       1.712   4.465  21.373  0.00  0.00    +0.000 A 
ATOM     18  O   UNL     1       2.326   3.469  22.057  0.00  0.00    +0.000 OA
ATOM     19  C   UNL     1       2.671   2.519  21.152  0.00  0.00    +0.000 A 
ENDBRANCH  14  15
BRANCH  14  20
ATOM     20  O   UNL     1       1.139   1.555  18.194  0.00  0.00    +0.000 OA
ATOM     21  H   UNL     1       1.340   0.812  17.601  0.00  0.00    +0.000 HD
ENDBRANCH  14  20
ENDBRANCH  13  14
ENDBRANCH   1  13
TORSDOF 6
ENDMDL
