MODEL 1
REMARK VINA RESULT:      -7.8      0.000      0.000
REMARK  Name = 
REMARK  10 active torsions:
REMARK  status: ('A' for Active; 'I' for Inactive)
REMARK    1  A    between atoms: C_1  and  C_2
REMARK    2  A    between atoms: C_5  and  N_6
REMARK    3  A    between atoms: C_7  and  C_9
REMARK    4  A    between atoms: C_13  and  C_14
REMARK    5  A    between atoms: C_14  and  C_15
REMARK    6  A    between atoms: C_14  and  C_16
REMARK    7  A    between atoms: C_14  and  C_17
REMARK    8  A    between atoms: C_21  and  C_22
REMARK    9  A    between atoms: N_24  and  C_25
REMARK   10  A    between atoms: C_28  and  C_29
REMARK                            x       y       z     vdW  Elec       q    Type
REMARK                         _______ _______ _______ _____ _____    ______ ____
ROOT
ATOM      1  C   UNL     1      -0.988  11.590  22.750  0.00  0.00    +0.000 C 
ATOM      2  C   UNL     1      -0.254  10.588  21.905  0.00  0.00    +0.000 A 
ATOM      3  C   UNL     1       0.664   9.748  22.559  0.00  0.00    +0.000 A 
ATOM      4  C   UNL     1       1.420   8.800  21.863  0.00  0.00    +0.000 A 
ATOM      5  C   UNL     1       1.280   8.650  20.487  0.00  0.00    +0.000 A 
ATOM      6  C   UNL     1       0.313   9.422  19.835  0.00  0.00    +0.000 A 
ATOM      7  C   UNL     1      -0.428  10.421  20.518  0.00  0.00    +0.000 A 
ENDROOT
BRANCH   5   8
ATOM      8  N   UNL     1       2.090   7.781  19.714  0.00  0.00    +0.000 N 
ATOM      9  C   UNL     1       2.175   6.406  19.890  0.00  0.00    +0.000 C 
ATOM     10  O   UNL     1       1.568   5.751  20.734  0.00  0.00    +0.000 OA
ATOM     11  H   UNL     1       2.792   8.223  19.134  0.00  0.00    +0.000 HD
BRANCH   9  12
ATOM     12  C   UNL     1       3.135   5.668  19.014  0.00  0.00    +0.000 A 
ATOM     13  C   UNL     1       2.609   4.808  18.043  0.00  0.00    +0.000 A 
ATOM     14  C   UNL     1       3.455   4.145  17.159  0.00  0.00    +0.000 A 
ATOM     15  C   UNL     1       4.833   4.368  17.208  0.00  0.00    +0.000 A 
ATOM     16  C   UNL     1       5.397   5.251  18.148  0.00  0.00    +0.000 A 
ATOM     17  C   UNL     1       4.522   5.870  19.076  0.00  0.00    +0.000 A 
BRANCH  16  18
ATOM     18  C   UNL     1       6.906   5.570  18.178  0.00  0.00    +0.000 C 
ATOM     19  C   UNL     1       7.513   5.576  19.599  0.00  0.00    +0.000 C 
ATOM     20  C   UNL     1       7.686   4.501  17.377  0.00  0.00    +0.000 C 
BRANCH  18  21
ATOM     21  C   UNL     1       7.153   6.903  17.569  0.00  0.00    +0.000 C 
ATOM     22  N   UNL     1       7.366   7.938  17.086  0.00  0.00    +0.000 NA
ENDBRANCH  18  21
ENDBRANCH  16  18
ENDBRANCH   9  12
ENDBRANCH   5   8
BRANCH   7  23
ATOM     23  C   UNL     1      -1.362  11.208  19.650  0.00  0.00    +0.000 C 
ATOM     24  O   UNL     1      -1.011  12.345  19.346  0.00  0.00    +0.000 OA
ATOM     25  N   UNL     1      -2.596  10.653  19.345  0.00  0.00    +0.000 N 
ATOM     26  H   UNL     1      -2.842   9.787  19.804  0.00  0.00    +0.000 HD
BRANCH  25  27
ATOM     27  C   UNL     1      -3.640  11.309  18.640  0.00  0.00    +0.000 A 
ATOM     28  C   UNL     1      -3.856  11.183  17.269  0.00  0.00    +0.000 A 
ATOM     29  C   UNL     1      -4.872  11.911  16.642  0.00  0.00    +0.000 A 
ATOM     30  C   UNL     1      -5.666  12.746  17.414  0.00  0.00    +0.000 A 
ATOM     31  N   UNL     1      -5.515  12.872  18.755  0.00  0.00    +0.000 NA
ATOM     32  C   UNL     1      -4.512  12.156  19.328  0.00  0.00    +0.000 A 
BRANCH  30  33
ATOM     33  C   UNL     1      -6.709  13.536  16.812  0.00  0.00    +0.000 C 
ATOM     34  N   UNL     1      -7.578  14.133  16.328  0.00  0.00    +0.000 NA
ENDBRANCH  30  33
ENDBRANCH  25  27
ENDBRANCH   7  23
TORSDOF 7
ENDMDL
MODEL 2
REMARK VINA RESULT:      -7.8      0.890      1.030
REMARK  Name = 
REMARK  10 active torsions:
REMARK  status: ('A' for Active; 'I' for Inactive)
REMARK    1  A    between atoms: C_1  and  C_2
REMARK    2  A    between atoms: C_5  and  N_6
REMARK    3  A    between atoms: C_7  and  C_9
REMARK    4  A    between atoms: C_13  and  C_14
REMARK    5  A    between atoms: C_14  and  C_15
REMARK    6  A    between atoms: C_14  and  C_16
REMARK    7  A    between atoms: C_14  and  C_17
REMARK    8  A    between atoms: C_21  and  C_22
REMARK    9  A    between atoms: N_24  and  C_25
REMARK   10  A    between atoms: C_28  and  C_29
REMARK                            x       y       z     vdW  Elec       q    Type
REMARK                         _______ _______ _______ _____ _____    ______ ____
ROOT
ATOM      1  C   UNL     1      -0.635  11.631  22.249  0.00  0.00    +0.000 C 
ATOM      2  C   UNL     1       0.025  10.574  21.410  0.00  0.00    +0.000 A 
ATOM      3  C   UNL     1       0.974   9.753  22.044  0.00  0.00    +0.000 A 
ATOM      4  C   UNL     1       1.666   8.757  21.348  0.00  0.00    +0.000 A 
ATOM      5  C   UNL     1       1.428   8.537  19.995  0.00  0.00    +0.000 A 
ATOM      6  C   UNL     1       0.429   9.291  19.371  0.00  0.00    +0.000 A 
ATOM      7  C   UNL     1      -0.249  10.337  20.050  0.00  0.00    +0.000 A 
ENDROOT
BRANCH   5   8
ATOM      8  N   UNL     1       2.170   7.614  19.216  0.00  0.00    +0.000 N 
ATOM      9  C   UNL     1       2.299   6.260  19.495  0.00  0.00    +0.000 C 
ATOM     10  O   UNL     1       1.796   5.673  20.449  0.00  0.00    +0.000 OA
ATOM     11  H   UNL     1       2.799   8.014  18.530  0.00  0.00    +0.000 HD
BRANCH   9  12
ATOM     12  C   UNL     1       3.177   5.462  18.587  0.00  0.00    +0.000 A 
ATOM     13  C   UNL     1       2.594   4.409  17.871  0.00  0.00    +0.000 A 
ATOM     14  C   UNL     1       3.352   3.674  16.964  0.00  0.00    +0.000 A 
ATOM     15  C   UNL     1       4.687   4.009  16.730  0.00  0.00    +0.000 A 
ATOM     16  C   UNL     1       5.299   5.081  17.407  0.00  0.00    +0.000 A 
ATOM     17  C   UNL     1       4.526   5.779  18.368  0.00  0.00    +0.000 A 
BRANCH  16  18
ATOM     18  C   UNL     1       6.749   5.519  17.117  0.00  0.00    +0.000 C 
ATOM     19  C   UNL     1       7.044   6.988  17.494  0.00  0.00    +0.000 C 
ATOM     20  C   UNL     1       7.734   4.654  17.939  0.00  0.00    +0.000 C 
BRANCH  18  21
ATOM     21  C   UNL     1       7.051   5.348  15.671  0.00  0.00    +0.000 C 
ATOM     22  N   UNL     1       7.279   5.194  14.543  0.00  0.00    +0.000 NA
ENDBRANCH  18  21
ENDBRANCH  16  18
ENDBRANCH   9  12
ENDBRANCH   5   8
BRANCH   7  23
ATOM     23  C   UNL     1      -1.230  11.094  19.207  0.00  0.00    +0.000 C 
ATOM     24  O   UNL     1      -0.833  12.137  18.695  0.00  0.00    +0.000 OA
ATOM     25  N   UNL     1      -2.538  10.635  19.154  0.00  0.00    +0.000 N 
ATOM     26  H   UNL     1      -2.786   9.869  19.765  0.00  0.00    +0.000 HD
BRANCH  25  27
ATOM     27  C   UNL     1      -3.615  11.296  18.505  0.00  0.00    +0.000 A 
ATOM     28  C   UNL     1      -3.907  11.167  17.149  0.00  0.00    +0.000 A 
ATOM     29  C   UNL     1      -4.951  11.901  16.577  0.00  0.00    +0.000 A 
ATOM     30  C   UNL     1      -5.695  12.743  17.389  0.00  0.00    +0.000 A 
ATOM     31  N   UNL     1      -5.470  12.872  18.718  0.00  0.00    +0.000 NA
ATOM     32  C   UNL     1      -4.442  12.151  19.237  0.00  0.00    +0.000 A 
BRANCH  30  33
ATOM     33  C   UNL     1      -6.765  13.539  16.842  0.00  0.00    +0.000 C 
ATOM     34  N   UNL     1      -7.603  14.218  16.416  0.00  0.00    +0.000 NA
ENDBRANCH  30  33
ENDBRANCH  25  27
ENDBRANCH   7  23
TORSDOF 7
ENDMDL
MODEL 3
REMARK VINA RESULT:      -7.5      0.900      1.384
REMARK  Name = 
REMARK  10 active torsions:
REMARK  status: ('A' for Active; 'I' for Inactive)
REMARK    1  A    between atoms: C_1  and  C_2
REMARK    2  A    between atoms: C_5  and  N_6
REMARK    3  A    between atoms: C_7  and  C_9
REMARK    4  A    between atoms: C_13  and  C_14
REMARK    5  A    between atoms: C_14  and  C_15
REMARK    6  A    between atoms: C_14  and  C_16
REMARK    7  A    between atoms: C_14  and  C_17
REMARK    8  A    between atoms: C_21  and  C_22
REMARK    9  A    between atoms: N_24  and  C_25
REMARK   10  A    between atoms: C_28  and  C_29
REMARK                            x       y       z     vdW  Elec       q    Type
REMARK                         _______ _______ _______ _____ _____    ______ ____
ROOT
ATOM      1  C   UNL     1      -0.979  11.575  22.965  0.00  0.00    +0.000 C 
ATOM      2  C   UNL     1      -0.293  10.587  22.063  0.00  0.00    +0.000 A 
ATOM      3  C   UNL     1       0.606   9.689  22.663  0.00  0.00    +0.000 A 
ATOM      4  C   UNL     1       1.317   8.748  21.912  0.00  0.00    +0.000 A 
ATOM      5  C   UNL     1       1.149   8.664  20.534  0.00  0.00    +0.000 A 
ATOM      6  C   UNL     1       0.199   9.496  19.934  0.00  0.00    +0.000 A 
ATOM      7  C   UNL     1      -0.497  10.488  20.673  0.00  0.00    +0.000 A 
ENDROOT
BRANCH   5   8
ATOM      8  N   UNL     1       1.916   7.803  19.709  0.00  0.00    +0.000 N 
ATOM      9  C   UNL     1       2.078   6.440  19.915  0.00  0.00    +0.000 C 
ATOM     10  O   UNL     1       1.587   5.789  20.834  0.00  0.00    +0.000 OA
ATOM     11  H   UNL     1       2.537   8.254  19.048  0.00  0.00    +0.000 HD
BRANCH   9  12
ATOM     12  C   UNL     1       2.978   5.713  18.969  0.00  0.00    +0.000 A 
ATOM     13  C   UNL     1       2.388   4.875  18.015  0.00  0.00    +0.000 A 
ATOM     14  C   UNL     1       3.175   4.224  17.070  0.00  0.00    +0.000 A 
ATOM     15  C   UNL     1       4.554   4.437  17.039  0.00  0.00    +0.000 A 
ATOM     16  C   UNL     1       5.180   5.298  17.960  0.00  0.00    +0.000 A 
ATOM     17  C   UNL     1       4.368   5.904  18.950  0.00  0.00    +0.000 A 
BRANCH  16  18
ATOM     18  C   UNL     1       6.691   5.607  17.905  0.00  0.00    +0.000 C 
ATOM     19  C   UNL     1       7.489   4.649  16.994  0.00  0.00    +0.000 C 
ATOM     20  C   UNL     1       6.916   7.031  17.342  0.00  0.00    +0.000 C 
BRANCH  18  21
ATOM     21  C   UNL     1       7.273   5.532  19.271  0.00  0.00    +0.000 C 
ATOM     22  N   UNL     1       7.709   5.469  20.345  0.00  0.00    +0.000 NA
ENDBRANCH  18  21
ENDBRANCH  16  18
ENDBRANCH   9  12
ENDBRANCH   5   8
BRANCH   7  23
ATOM     23  C   UNL     1      -1.417  11.344  19.858  0.00  0.00    +0.000 C 
ATOM     24  O   UNL     1      -0.988  12.438  19.502  0.00  0.00    +0.000 OA
ATOM     25  N   UNL     1      -2.716  10.900  19.657  0.00  0.00    +0.000 N 
ATOM     26  H   UNL     1      -3.005  10.069  20.153  0.00  0.00    +0.000 HD
BRANCH  25  27
ATOM     27  C   UNL     1      -3.746  11.639  19.015  0.00  0.00    +0.000 A 
ATOM     28  C   UNL     1      -4.546  12.583  19.655  0.00  0.00    +0.000 A 
ATOM     29  C   UNL     1      -5.578  13.223  18.963  0.00  0.00    +0.000 A 
ATOM     30  C   UNL     1      -5.778  12.909  17.627  0.00  0.00    +0.000 A 
ATOM     31  N   UNL     1      -5.003  12.024  16.955  0.00  0.00    +0.000 NA
ATOM     32  C   UNL     1      -4.015  11.416  17.662  0.00  0.00    +0.000 A 
BRANCH  30  33
ATOM     33  C   UNL     1      -6.845  13.523  16.877  0.00  0.00    +0.000 C 
ATOM     34  N   UNL     1      -7.732  13.982  16.288  0.00  0.00    +0.000 NA
ENDBRANCH  30  33
ENDBRANCH  25  27
ENDBRANCH   7  23
TORSDOF 7
ENDMDL
MODEL 4
REMARK VINA RESULT:      -7.2      3.589      5.339
REMARK  Name = 
REMARK  10 active torsions:
REMARK  status: ('A' for Active; 'I' for Inactive)
REMARK    1  A    between atoms: C_1  and  C_2
REMARK    2  A    between atoms: C_5  and  N_6
REMARK    3  A    between atoms: C_7  and  C_9
REMARK    4  A    between atoms: C_13  and  C_14
REMARK    5  A    between atoms: C_14  and  C_15
REMARK    6  A    between atoms: C_14  and  C_16
REMARK    7  A    between atoms: C_14  and  C_17
REMARK    8  A    between atoms: C_21  and  C_22
REMARK    9  A    between atoms: N_24  and  C_25
REMARK   10  A    between atoms: C_28  and  C_29
REMARK                            x       y       z     vdW  Elec       q    Type
REMARK                         _______ _______ _______ _____ _____    ______ ____
ROOT
ATOM      1  C   UNL     1      -2.670  12.811  19.714  0.00  0.00    +0.000 C 
ATOM      2  C   UNL     1      -1.571  11.788  19.665  0.00  0.00    +0.000 A 
ATOM      3  C   UNL     1      -1.484  10.997  18.506  0.00  0.00    +0.000 A 
ATOM      4  C   UNL     1      -0.516   9.997  18.370  0.00  0.00    +0.000 A 
ATOM      5  C   UNL     1       0.406   9.757  19.382  0.00  0.00    +0.000 A 
ATOM      6  C   UNL     1       0.383  10.589  20.506  0.00  0.00    +0.000 A 
ATOM      7  C   UNL     1      -0.621  11.576  20.682  0.00  0.00    +0.000 A 
ENDROOT
BRANCH   5   8
ATOM      8  N   UNL     1       1.342   8.693  19.345  0.00  0.00    +0.000 N 
ATOM      9  C   UNL     1       2.155   8.386  18.262  0.00  0.00    +0.000 C 
ATOM     10  O   UNL     1       2.180   8.985  17.190  0.00  0.00    +0.000 OA
ATOM     11  H   UNL     1       1.263   8.002  20.081  0.00  0.00    +0.000 HD
BRANCH   9  12
ATOM     12  C   UNL     1       3.034   7.184  18.392  0.00  0.00    +0.000 A 
ATOM     13  C   UNL     1       2.548   6.093  19.123  0.00  0.00    +0.000 A 
ATOM     14  C   UNL     1       3.298   4.925  19.222  0.00  0.00    +0.000 A 
ATOM     15  C   UNL     1       4.521   4.818  18.558  0.00  0.00    +0.000 A 
ATOM     16  C   UNL     1       5.028   5.882  17.787  0.00  0.00    +0.000 A 
ATOM     17  C   UNL     1       4.276   7.082  17.747  0.00  0.00    +0.000 A 
BRANCH  16  18
ATOM     18  C   UNL     1       6.341   5.766  16.985  0.00  0.00    +0.000 C 
ATOM     19  C   UNL     1       7.229   4.576  17.412  0.00  0.00    +0.000 C 
ATOM     20  C   UNL     1       6.025   5.557  15.485  0.00  0.00    +0.000 C 
BRANCH  18  21
ATOM     21  C   UNL     1       7.139   7.011  17.139  0.00  0.00    +0.000 C 
ATOM     22  N   UNL     1       7.766   7.984  17.238  0.00  0.00    +0.000 NA
ENDBRANCH  18  21
ENDBRANCH  16  18
ENDBRANCH   9  12
ENDBRANCH   5   8
BRANCH   7  23
ATOM     23  C   UNL     1      -0.543  12.321  21.979  0.00  0.00    +0.000 C 
ATOM     24  O   UNL     1      -0.539  11.648  23.006  0.00  0.00    +0.000 OA
ATOM     25  N   UNL     1      -0.595  13.707  21.942  0.00  0.00    +0.000 N 
ATOM     26  H   UNL     1      -0.782  14.141  21.048  0.00  0.00    +0.000 HD
BRANCH  25  27
ATOM     27  C   UNL     1      -0.654  14.558  23.078  0.00  0.00    +0.000 A 
ATOM     28  C   UNL     1      -1.605  14.444  24.091  0.00  0.00    +0.000 A 
ATOM     29  C   UNL     1      -1.629  15.361  25.146  0.00  0.00    +0.000 A 
ATOM     30  C   UNL     1      -0.681  16.373  25.170  0.00  0.00    +0.000 A 
ATOM     31  N   UNL     1       0.283  16.500  24.227  0.00  0.00    +0.000 NA
ATOM     32  C   UNL     1       0.270  15.596  23.212  0.00  0.00    +0.000 A 
BRANCH  30  33
ATOM     33  C   UNL     1      -0.679  17.357  26.222  0.00  0.00    +0.000 C 
ATOM     34  N   UNL     1      -0.719  18.129  27.086  0.00  0.00    +0.000 NA
ENDBRANCH  30  33
ENDBRANCH  25  27
ENDBRANCH   7  23
TORSDOF 7
ENDMDL
MODEL 5
REMARK VINA RESULT:      -7.2      3.610      4.443
REMARK  Name = 
REMARK  10 active torsions:
REMARK  status: ('A' for Active; 'I' for Inactive)
REMARK    1  A    between atoms: C_1  and  C_2
REMARK    2  A    between atoms: C_5  and  N_6
REMARK    3  A    between atoms: C_7  and  C_9
REMARK    4  A    between atoms: C_13  and  C_14
REMARK    5  A    between atoms: C_14  and  C_15
REMARK    6  A    between atoms: C_14  and  C_16
REMARK    7  A    between atoms: C_14  and  C_17
REMARK    8  A    between atoms: C_21  and  C_22
REMARK    9  A    between atoms: N_24  and  C_25
REMARK   10  A    between atoms: C_28  and  C_29
REMARK                            x       y       z     vdW  Elec       q    Type
REMARK                         _______ _______ _______ _____ _____    ______ ____
ROOT
ATOM      1  C   UNL     1      -1.392  11.628  23.114  0.00  0.00    +0.000 C 
ATOM      2  C   UNL     1      -0.600  10.581  22.383  0.00  0.00    +0.000 A 
ATOM      3  C   UNL     1      -0.526   9.307  22.973  0.00  0.00    +0.000 A 
ATOM      4  C   UNL     1       0.208   8.270  22.390  0.00  0.00    +0.000 A 
ATOM      5  C   UNL     1       0.886   8.463  21.191  0.00  0.00    +0.000 A 
ATOM      6  C   UNL     1       0.754   9.700  20.552  0.00  0.00    +0.000 A 
ATOM      7  C   UNL     1       0.053  10.778  21.152  0.00  0.00    +0.000 A 
ENDROOT
BRANCH   5   8
ATOM      8  N   UNL     1       1.727   7.483  20.607  0.00  0.00    +0.000 N 
ATOM      9  C   UNL     1       2.199   7.515  19.302  0.00  0.00    +0.000 C 
ATOM     10  O   UNL     1       1.958   8.389  18.473  0.00  0.00    +0.000 OA
ATOM     11  H   UNL     1       1.820   6.613  21.117  0.00  0.00    +0.000 HD
BRANCH   9  12
ATOM     12  C   UNL     1       3.025   6.354  18.850  0.00  0.00    +0.000 A 
ATOM     13  C   UNL     1       2.622   5.072  19.241  0.00  0.00    +0.000 A 
ATOM     14  C   UNL     1       3.317   3.952  18.796  0.00  0.00    +0.000 A 
ATOM     15  C   UNL     1       4.396   4.097  17.921  0.00  0.00    +0.000 A 
ATOM     16  C   UNL     1       4.811   5.368  17.480  0.00  0.00    +0.000 A 
ATOM     17  C   UNL     1       4.125   6.498  17.991  0.00  0.00    +0.000 A 
BRANCH  16  18
ATOM     18  C   UNL     1       5.953   5.554  16.460  0.00  0.00    +0.000 C 
ATOM     19  C   UNL     1       6.821   4.292  16.260  0.00  0.00    +0.000 C 
ATOM     20  C   UNL     1       5.366   5.903  15.071  0.00  0.00    +0.000 C 
BRANCH  18  21
ATOM     21  C   UNL     1       6.846   6.660  16.896  0.00  0.00    +0.000 C 
ATOM     22  N   UNL     1       7.543   7.516  17.256  0.00  0.00    +0.000 NA
ENDBRANCH  18  21
ENDBRANCH  16  18
ENDBRANCH   9  12
ENDBRANCH   5   8
BRANCH   7  23
ATOM     23  C   UNL     1       0.080  12.054  20.367  0.00  0.00    +0.000 C 
ATOM     24  O   UNL     1      -0.892  12.287  19.655  0.00  0.00    +0.000 OA
ATOM     25  N   UNL     1       1.234  12.823  20.407  0.00  0.00    +0.000 N 
ATOM     26  H   UNL     1       2.035  12.434  20.886  0.00  0.00    +0.000 HD
BRANCH  25  27
ATOM     27  C   UNL     1       1.471  13.990  19.633  0.00  0.00    +0.000 A 
ATOM     28  C   UNL     1       0.648  15.115  19.644  0.00  0.00    +0.000 A 
ATOM     29  C   UNL     1       0.921  16.200  18.806  0.00  0.00    +0.000 A 
ATOM     30  C   UNL     1       2.032  16.138  17.977  0.00  0.00    +0.000 A 
ATOM     31  N   UNL     1       2.878  15.081  17.959  0.00  0.00    +0.000 NA
ATOM     32  C   UNL     1       2.577  14.041  18.781  0.00  0.00    +0.000 A 
BRANCH  30  33
ATOM     33  C   UNL     1       2.341  17.220  17.077  0.00  0.00    +0.000 C 
ATOM     34  N   UNL     1       2.583  18.061  16.316  0.00  0.00    +0.000 NA
ENDBRANCH  30  33
ENDBRANCH  25  27
ENDBRANCH   7  23
TORSDOF 7
ENDMDL
MODEL 6
REMARK VINA RESULT:      -7.2      3.493      4.168
REMARK  Name = 
REMARK  10 active torsions:
REMARK  status: ('A' for Active; 'I' for Inactive)
REMARK    1  A    between atoms: C_1  and  C_2
REMARK    2  A    between atoms: C_5  and  N_6
REMARK    3  A    between atoms: C_7  and  C_9
REMARK    4  A    between atoms: C_13  and  C_14
REMARK    5  A    between atoms: C_14  and  C_15
REMARK    6  A    between atoms: C_14  and  C_16
REMARK    7  A    between atoms: C_14  and  C_17
REMARK    8  A    between atoms: C_21  and  C_22
REMARK    9  A    between atoms: N_24  and  C_25
REMARK   10  A    between atoms: C_28  and  C_29
REMARK                            x       y       z     vdW  Elec       q    Type
REMARK                         _______ _______ _______ _____ _____    ______ ____
ROOT
ATOM      1  C   UNL     1      -1.162  10.689  23.065  0.00  0.00    +0.000 C 
ATOM      2  C   UNL     1      -0.366   9.827  22.127  0.00  0.00    +0.000 A 
ATOM      3  C   UNL     1      -0.148   8.493  22.513  0.00  0.00    +0.000 A 
ATOM      4  C   UNL     1       0.602   7.613  21.728  0.00  0.00    +0.000 A 
ATOM      5  C   UNL     1       1.155   8.031  20.522  0.00  0.00    +0.000 A 
ATOM      6  C   UNL     1       0.879   9.331  20.086  0.00  0.00    +0.000 A 
ATOM      7  C   UNL     1       0.160  10.251  20.892  0.00  0.00    +0.000 A 
ENDROOT
BRANCH   5   8
ATOM      8  N   UNL     1       2.008   7.217  19.735  0.00  0.00    +0.000 N 
ATOM      9  C   UNL     1       2.094   5.834  19.824  0.00  0.00    +0.000 C 
ATOM     10  O   UNL     1       1.449   5.123  20.590  0.00  0.00    +0.000 OA
ATOM     11  H   UNL     1       2.736   7.699  19.221  0.00  0.00    +0.000 HD
BRANCH   9  12
ATOM     12  C   UNL     1       3.101   5.159  18.951  0.00  0.00    +0.000 A 
ATOM     13  C   UNL     1       2.665   4.104  18.140  0.00  0.00    +0.000 A 
ATOM     14  C   UNL     1       3.547   3.482  17.262  0.00  0.00    +0.000 A 
ATOM     15  C   UNL     1       4.863   3.936  17.152  0.00  0.00    +0.000 A 
ATOM     16  C   UNL     1       5.330   5.015  17.926  0.00  0.00    +0.000 A 
ATOM     17  C   UNL     1       4.431   5.595  18.855  0.00  0.00    +0.000 A 
BRANCH  16  18
ATOM     18  C   UNL     1       6.757   5.583  17.774  0.00  0.00    +0.000 C 
ATOM     19  C   UNL     1       7.582   4.902  16.660  0.00  0.00    +0.000 C 
ATOM     20  C   UNL     1       6.689   7.085  17.408  0.00  0.00    +0.000 C 
BRANCH  18  21
ATOM     21  C   UNL     1       7.501   5.432  19.052  0.00  0.00    +0.000 C 
ATOM     22  N   UNL     1       8.100   5.310  20.039  0.00  0.00    +0.000 NA
ENDBRANCH  18  21
ENDBRANCH  16  18
ENDBRANCH   9  12
ENDBRANCH   5   8
BRANCH   7  23
ATOM     23  C   UNL     1       0.025  11.622  20.306  0.00  0.00    +0.000 C 
ATOM     24  O   UNL     1      -0.837  11.776  19.445  0.00  0.00    +0.000 OA
ATOM     25  N   UNL     1       0.946  12.589  20.684  0.00  0.00    +0.000 N 
ATOM     26  H   UNL     1       1.720  12.291  21.262  0.00  0.00    +0.000 HD
BRANCH  25  27
ATOM     27  C   UNL     1       1.036  13.897  20.137  0.00  0.00    +0.000 A 
ATOM     28  C   UNL     1       0.412  15.017  20.684  0.00  0.00    +0.000 A 
ATOM     29  C   UNL     1       0.503  16.259  20.049  0.00  0.00    +0.000 A 
ATOM     30  C   UNL     1       1.237  16.354  18.875  0.00  0.00    +0.000 A 
ATOM     31  N   UNL     1       1.888  15.300  18.327  0.00  0.00    +0.000 NA
ATOM     32  C   UNL     1       1.770  14.107  18.968  0.00  0.00    +0.000 A 
BRANCH  30  33
ATOM     33  C   UNL     1       1.340  17.606  18.170  0.00  0.00    +0.000 C 
ATOM     34  N   UNL     1       1.387  18.631  17.629  0.00  0.00    +0.000 NA
ENDBRANCH  30  33
ENDBRANCH  25  27
ENDBRANCH   7  23
TORSDOF 7
ENDMDL
MODEL 7
REMARK VINA RESULT:      -7.1      4.669      6.471
REMARK  Name = 
REMARK  10 active torsions:
REMARK  status: ('A' for Active; 'I' for Inactive)
REMARK    1  A    between atoms: C_1  and  C_2
REMARK    2  A    between atoms: C_5  and  N_6
REMARK    3  A    between atoms: C_7  and  C_9
REMARK    4  A    between atoms: C_13  and  C_14
REMARK    5  A    between atoms: C_14  and  C_15
REMARK    6  A    between atoms: C_14  and  C_16
REMARK    7  A    between atoms: C_14  and  C_17
REMARK    8  A    between atoms: C_21  and  C_22
REMARK    9  A    between atoms: N_24  and  C_25
REMARK   10  A    between atoms: C_28  and  C_29
REMARK                            x       y       z     vdW  Elec       q    Type
REMARK                         _______ _______ _______ _____ _____    ______ ____
ROOT
ATOM      1  C   UNL     1      -0.921  13.389  19.383  0.00  0.00    +0.000 C 
ATOM      2  C   UNL     1      -0.226  12.125  18.960  0.00  0.00    +0.000 A 
ATOM      3  C   UNL     1      -1.019  11.127  18.369  0.00  0.00    +0.000 A 
ATOM      4  C   UNL     1      -0.478   9.902  17.965  0.00  0.00    +0.000 A 
ATOM      5  C   UNL     1       0.877   9.634  18.128  0.00  0.00    +0.000 A 
ATOM      6  C   UNL     1       1.692  10.648  18.641  0.00  0.00    +0.000 A 
ATOM      7  C   UNL     1       1.153  11.878  19.099  0.00  0.00    +0.000 A 
ENDROOT
BRANCH   5   8
ATOM      8  N   UNL     1       1.461   8.376  17.834  0.00  0.00    +0.000 N 
ATOM      9  C   UNL     1       2.023   7.521  18.772  0.00  0.00    +0.000 C 
ATOM     10  O   UNL     1       2.096   7.728  19.980  0.00  0.00    +0.000 OA
ATOM     11  H   UNL     1       1.652   8.191  16.856  0.00  0.00    +0.000 HD
BRANCH   9  12
ATOM     12  C   UNL     1       2.648   6.265  18.256  0.00  0.00    +0.000 A 
ATOM     13  C   UNL     1       1.925   5.073  18.384  0.00  0.00    +0.000 A 
ATOM     14  C   UNL     1       2.432   3.885  17.864  0.00  0.00    +0.000 A 
ATOM     15  C   UNL     1       3.645   3.884  17.173  0.00  0.00    +0.000 A 
ATOM     16  C   UNL     1       4.385   5.068  16.995  0.00  0.00    +0.000 A 
ATOM     17  C   UNL     1       3.879   6.254  17.582  0.00  0.00    +0.000 A 
BRANCH  16  18
ATOM     18  C   UNL     1       5.691   5.109  16.175  0.00  0.00    +0.000 C 
ATOM     19  C   UNL     1       6.043   3.766  15.498  0.00  0.00    +0.000 C 
ATOM     20  C   UNL     1       5.567   6.150  15.038  0.00  0.00    +0.000 C 
BRANCH  18  21
ATOM     21  C   UNL     1       6.828   5.490  17.054  0.00  0.00    +0.000 C 
ATOM     22  N   UNL     1       7.711   5.772  17.753  0.00  0.00    +0.000 NA
ENDBRANCH  18  21
ENDBRANCH  16  18
ENDBRANCH   9  12
ENDBRANCH   5   8
BRANCH   7  23
ATOM     23  C   UNL     1       2.158  12.818  19.692  0.00  0.00    +0.000 C 
ATOM     24  O   UNL     1       2.105  12.994  20.905  0.00  0.00    +0.000 OA
ATOM     25  N   UNL     1       2.998  13.507  18.828  0.00  0.00    +0.000 N 
ATOM     26  H   UNL     1       2.823  13.413  17.837  0.00  0.00    +0.000 HD
BRANCH  25  27
ATOM     27  C   UNL     1       3.919  14.517  19.211  0.00  0.00    +0.000 A 
ATOM     28  C   UNL     1       4.457  14.640  20.491  0.00  0.00    +0.000 A 
ATOM     29  C   UNL     1       5.313  15.701  20.801  0.00  0.00    +0.000 A 
ATOM     30  C   UNL     1       5.625  16.616  19.806  0.00  0.00    +0.000 A 
ATOM     31  N   UNL     1       5.155  16.516  18.540  0.00  0.00    +0.000 NA
ATOM     32  C   UNL     1       4.319  15.477  18.278  0.00  0.00    +0.000 A 
BRANCH  30  33
ATOM     33  C   UNL     1       6.483  17.741  20.082  0.00  0.00    +0.000 C 
ATOM     34  N   UNL     1       7.203  18.630  20.270  0.00  0.00    +0.000 NA
ENDBRANCH  30  33
ENDBRANCH  25  27
ENDBRANCH   7  23
TORSDOF 7
ENDMDL
MODEL 8
REMARK VINA RESULT:      -7.0      4.543      6.429
REMARK  Name = 
REMARK  10 active torsions:
REMARK  status: ('A' for Active; 'I' for Inactive)
REMARK    1  A    between atoms: C_1  and  C_2
REMARK    2  A    between atoms: C_5  and  N_6
REMARK    3  A    between atoms: C_7  and  C_9
REMARK    4  A    between atoms: C_13  and  C_14
REMARK    5  A    between atoms: C_14  and  C_15
REMARK    6  A    between atoms: C_14  and  C_16
REMARK    7  A    between atoms: C_14  and  C_17
REMARK    8  A    between atoms: C_21  and  C_22
REMARK    9  A    between atoms: N_24  and  C_25
REMARK   10  A    between atoms: C_28  and  C_29
REMARK                            x       y       z     vdW  Elec       q    Type
REMARK                         _______ _______ _______ _____ _____    ______ ____
ROOT
ATOM      1  C   UNL     1      -1.445  13.383  19.517  0.00  0.00    +0.000 C 
ATOM      2  C   UNL     1      -0.604  12.221  19.070  0.00  0.00    +0.000 A 
ATOM      3  C   UNL     1      -1.254  10.985  18.907  0.00  0.00    +0.000 A 
ATOM      4  C   UNL     1      -0.559   9.835  18.522  0.00  0.00    +0.000 A 
ATOM      5  C   UNL     1       0.809   9.878  18.276  0.00  0.00    +0.000 A 
ATOM      6  C   UNL     1       1.454  11.117  18.356  0.00  0.00    +0.000 A 
ATOM      7  C   UNL     1       0.774  12.284  18.791  0.00  0.00    +0.000 A 
ENDROOT
BRANCH   5   8
ATOM      8  N   UNL     1       1.583   8.727  17.984  0.00  0.00    +0.000 N 
ATOM      9  C   UNL     1       2.077   7.838  18.929  0.00  0.00    +0.000 C 
ATOM     10  O   UNL     1       1.916   7.921  20.144  0.00  0.00    +0.000 OA
ATOM     11  H   UNL     1       1.959   8.669  17.045  0.00  0.00    +0.000 HD
BRANCH   9  12
ATOM     12  C   UNL     1       2.927   6.717  18.428  0.00  0.00    +0.000 A 
ATOM     13  C   UNL     1       2.289   5.532  18.042  0.00  0.00    +0.000 A 
ATOM     14  C   UNL     1       3.027   4.479  17.508  0.00  0.00    +0.000 A 
ATOM     15  C   UNL     1       4.403   4.615  17.314  0.00  0.00    +0.000 A 
ATOM     16  C   UNL     1       5.075   5.803  17.658  0.00  0.00    +0.000 A 
ATOM     17  C   UNL     1       4.314   6.839  18.254  0.00  0.00    +0.000 A 
BRANCH  16  18
ATOM     18  C   UNL     1       6.580   6.007  17.389  0.00  0.00    +0.000 C 
ATOM     19  C   UNL     1       7.098   5.248  16.147  0.00  0.00    +0.000 C 
ATOM     20  C   UNL     1       6.871   7.505  17.136  0.00  0.00    +0.000 C 
BRANCH  18  21
ATOM     21  C   UNL     1       7.371   5.555  18.564  0.00  0.00    +0.000 C 
ATOM     22  N   UNL     1       7.975   5.213  19.495  0.00  0.00    +0.000 NA
ENDBRANCH  18  21
ENDBRANCH  16  18
ENDBRANCH   9  12
ENDBRANCH   5   8
BRANCH   7  23
ATOM     23  C   UNL     1       1.636  13.506  18.895  0.00  0.00    +0.000 C 
ATOM     24  O   UNL     1       1.135  14.570  18.543  0.00  0.00    +0.000 OA
ATOM     25  N   UNL     1       2.962  13.341  19.268  0.00  0.00    +0.000 N 
ATOM     26  H   UNL     1       3.305  12.394  19.356  0.00  0.00    +0.000 HD
BRANCH  25  27
ATOM     27  C   UNL     1       3.940  14.370  19.298  0.00  0.00    +0.000 A 
ATOM     28  C   UNL     1       4.079  15.286  20.340  0.00  0.00    +0.000 A 
ATOM     29  C   UNL     1       5.031  16.306  20.264  0.00  0.00    +0.000 A 
ATOM     30  C   UNL     1       5.842  16.377  19.140  0.00  0.00    +0.000 A 
ATOM     31  N   UNL     1       5.767  15.488  18.121  0.00  0.00    +0.000 NA
ATOM     32  C   UNL     1       4.824  14.515  18.226  0.00  0.00    +0.000 A 
BRANCH  30  33
ATOM     33  C   UNL     1       6.822  17.425  19.003  0.00  0.00    +0.000 C 
ATOM     34  N   UNL     1       7.641  18.241  18.919  0.00  0.00    +0.000 NA
ENDBRANCH  30  33
ENDBRANCH  25  27
ENDBRANCH   7  23
TORSDOF 7
ENDMDL
MODEL 9
REMARK VINA RESULT:      -7.0      3.274      3.994
REMARK  Name = 
REMARK  10 active torsions:
REMARK  status: ('A' for Active; 'I' for Inactive)
REMARK    1  A    between atoms: C_1  and  C_2
REMARK    2  A    between atoms: C_5  and  N_6
REMARK    3  A    between atoms: C_7  and  C_9
REMARK    4  A    between atoms: C_13  and  C_14
REMARK    5  A    between atoms: C_14  and  C_15
REMARK    6  A    between atoms: C_14  and  C_16
REMARK    7  A    between atoms: C_14  and  C_17
REMARK    8  A    between atoms: C_21  and  C_22
REMARK    9  A    between atoms: N_24  and  C_25
REMARK   10  A    between atoms: C_28  and  C_29
REMARK                            x       y       z     vdW  Elec       q    Type
REMARK                         _______ _______ _______ _____ _____    ______ ____
ROOT
ATOM      1  C   UNL     1      -0.425  11.045  22.725  0.00  0.00    +0.000 C 
ATOM      2  C   UNL     1       0.219   9.984  21.878  0.00  0.00    +0.000 A 
ATOM      3  C   UNL     1       0.472   8.743  22.489  0.00  0.00    +0.000 A 
ATOM      4  C   UNL     1       1.092   7.697  21.800  0.00  0.00    +0.000 A 
ATOM      5  C   UNL     1       1.473   7.847  20.471  0.00  0.00    +0.000 A 
ATOM      6  C   UNL     1       1.155   9.047  19.826  0.00  0.00    +0.000 A 
ATOM      7  C   UNL     1       0.569  10.136  20.524  0.00  0.00    +0.000 A 
ENDROOT
BRANCH   5   8
ATOM      8  N   UNL     1       2.195   6.861  19.753  0.00  0.00    +0.000 N 
ATOM      9  C   UNL     1       1.834   5.524  19.654  0.00  0.00    +0.000 C 
ATOM     10  O   UNL     1       0.847   5.008  20.171  0.00  0.00    +0.000 OA
ATOM     11  H   UNL     1       3.133   7.116  19.465  0.00  0.00    +0.000 HD
BRANCH   9  12
ATOM     12  C   UNL     1       2.761   4.625  18.903  0.00  0.00    +0.000 A 
ATOM     13  C   UNL     1       2.538   3.244  18.976  0.00  0.00    +0.000 A 
ATOM     14  C   UNL     1       3.332   2.366  18.245  0.00  0.00    +0.000 A 
ATOM     15  C   UNL     1       4.329   2.858  17.401  0.00  0.00    +0.000 A 
ATOM     16  C   UNL     1       4.562   4.241  17.275  0.00  0.00    +0.000 A 
ATOM     17  C   UNL     1       3.781   5.114  18.072  0.00  0.00    +0.000 A 
BRANCH  16  18
ATOM     18  C   UNL     1       5.607   4.815  16.297  0.00  0.00    +0.000 C 
ATOM     19  C   UNL     1       5.478   4.271  14.857  0.00  0.00    +0.000 C 
ATOM     20  C   UNL     1       5.447   6.351  16.197  0.00  0.00    +0.000 C 
BRANCH  18  21
ATOM     21  C   UNL     1       6.978   4.506  16.782  0.00  0.00    +0.000 C 
ATOM     22  N   UNL     1       8.046   4.278  17.177  0.00  0.00    +0.000 NA
ENDBRANCH  18  21
ENDBRANCH  16  18
ENDBRANCH   9  12
ENDBRANCH   5   8
BRANCH   7  23
ATOM     23  C   UNL     1       0.371  11.371  19.699  0.00  0.00    +0.000 C 
ATOM     24  O   UNL     1      -0.076  11.216  18.566  0.00  0.00    +0.000 OA
ATOM     25  N   UNL     1       0.806  12.581  20.219  0.00  0.00    +0.000 N 
ATOM     26  H   UNL     1       1.324  12.555  21.086  0.00  0.00    +0.000 HD
BRANCH  25  27
ATOM     27  C   UNL     1       0.804  13.821  19.525  0.00  0.00    +0.000 A 
ATOM     28  C   UNL     1       1.943  14.416  18.987  0.00  0.00    +0.000 A 
ATOM     29  C   UNL     1       1.864  15.669  18.370  0.00  0.00    +0.000 A 
ATOM     30  C   UNL     1       0.629  16.295  18.294  0.00  0.00    +0.000 A 
ATOM     31  N   UNL     1      -0.510  15.738  18.771  0.00  0.00    +0.000 NA
ATOM     32  C   UNL     1      -0.393  14.525  19.371  0.00  0.00    +0.000 A 
BRANCH  30  33
ATOM     33  C   UNL     1       0.499  17.598  17.691  0.00  0.00    +0.000 C 
ATOM     34  N   UNL     1       0.401  18.625  17.162  0.00  0.00    +0.000 NA
ENDBRANCH  30  33
ENDBRANCH  25  27
ENDBRANCH   7  23
TORSDOF 7
ENDMDL
