MODEL 1
REMARK VINA RESULT:      -7.6      0.000      0.000
REMARK  Name = 
REMARK  8 active torsions:
REMARK  status: ('A' for Active; 'I' for Inactive)
REMARK    1  A    between atoms: C_2  and  C_3
REMARK    2  A    between atoms: C_2  and  C_30
REMARK    3  A    between atoms: C_4  and  O_5
REMARK    4  A    between atoms: C_12  and  S_13
REMARK    5  A    between atoms: S_13  and  C_14
REMARK    6  A    between atoms: C_14  and  C_15
REMARK    7  A    between atoms: C_22  and  C_23
REMARK    8  A    between atoms: C_26  and  O_27
REMARK                            x       y       z     vdW  Elec       q    Type
REMARK                         _______ _______ _______ _____ _____    ______ ____
ROOT
ATOM      1  C   UNL     1      -0.997  11.386  21.674  0.00  0.00    +0.000 C 
ATOM      2  C   UNL     1      -0.685  10.362  22.474  0.00  0.00    +0.000 C 
ATOM      3  C   UNL     1       0.182   9.447  21.699  0.00  0.00    +0.000 C 
ATOM      4  O   UNL     1       0.529   8.359  22.124  0.00  0.00    +0.000 OA
ATOM      5  N   UNL     1       0.426  10.061  20.470  0.00  0.00    +0.000 N 
ATOM      6  C   UNL     1       1.123   9.428  19.449  0.00  0.00    +0.000 A 
ATOM      7  N   UNL     1       1.094   9.762  18.174  0.00  0.00    +0.000 NA
ATOM      8  N   UNL     1       1.884   8.929  17.389  0.00  0.00    +0.000 NA
ATOM      9  C   UNL     1       2.504   8.022  18.113  0.00  0.00    +0.000 A 
ATOM     10  S   UNL     1       2.195   8.134  19.786  0.00  0.00    +0.000 S 
ATOM     11  C   UNL     1      -0.338  11.292  20.332  0.00  0.00    +0.000 C 
ENDROOT
BRANCH  11  12
ATOM     12  C   UNL     1       0.531  12.490  19.958  0.00  0.00    +0.000 A 
ATOM     13  C   UNL     1       1.688  12.756  20.716  0.00  0.00    +0.000 A 
ATOM     14  C   UNL     1       2.488  13.870  20.450  0.00  0.00    +0.000 A 
ATOM     15  C   UNL     1       2.152  14.718  19.404  0.00  0.00    +0.000 A 
ATOM     16  C   UNL     1       1.035  14.466  18.620  0.00  0.00    +0.000 A 
ATOM     17  C   UNL     1       0.217  13.365  18.902  0.00  0.00    +0.000 A 
BRANCH  15  18
ATOM     18  O   UNL     1       2.895  15.826  19.119  0.00  0.00    +0.000 OA
ATOM     19  H   UNL     1       2.344  16.448  18.615  0.00  0.00    +0.000 HD
ENDBRANCH  15  18
ENDBRANCH  11  12
BRANCH   1  21
ATOM     20  O   UNL     1      -1.348  13.251  23.019  0.00  0.00    +0.000 OA
ATOM     21  C   UNL     1      -1.830  12.510  22.156  0.00  0.00    +0.000 C 
BRANCH  21  22
ATOM     22  C   UNL     1      -3.140  12.719  21.593  0.00  0.00    +0.000 A 
ATOM     23  C   UNL     1      -3.520  13.215  20.362  0.00  0.00    +0.000 A 
ATOM     24  C   UNL     1      -4.938  13.211  20.346  0.00  0.00    +0.000 A 
ATOM     25  C   UNL     1      -5.332  12.750  21.580  0.00  0.00    +0.000 A 
ATOM     26  O   UNL     1      -4.251  12.444  22.341  0.00  0.00    +0.000 OA
ENDBRANCH  21  22
ENDBRANCH   1  21
BRANCH   2  27
ATOM     27  O   UNL     1      -1.057  10.131  23.769  0.00  0.00    +0.000 OA
ATOM     28  H   UNL     1      -1.886  10.623  23.938  0.00  0.00    +0.000 HD
ENDBRANCH   2  27
BRANCH   9  29
ATOM     29  S   UNL     1       3.529   6.769  17.461  0.00  0.00    +0.000 S 
BRANCH  29  30
ATOM     30  C   UNL     1       3.796   5.718  18.910  0.00  0.00    +0.000 C 
BRANCH  30  31
ATOM     31  C   UNL     1       2.856   4.533  18.898  0.00  0.00    +0.000 A 
ATOM     32  C   UNL     1       2.964   3.550  17.902  0.00  0.00    +0.000 A 
ATOM     33  C   UNL     1       2.077   2.472  17.867  0.00  0.00    +0.000 A 
ATOM     34  C   UNL     1       1.067   2.367  18.821  0.00  0.00    +0.000 A 
ATOM     35  C   UNL     1       0.946   3.340  19.814  0.00  0.00    +0.000 A 
ATOM     36  C   UNL     1       1.831   4.418  19.850  0.00  0.00    +0.000 A 
ENDBRANCH  30  31
ENDBRANCH  29  30
ENDBRANCH   9  29
TORSDOF 8
ENDMDL
MODEL 2
REMARK VINA RESULT:      -7.5      1.479      2.342
REMARK  Name = 
REMARK  8 active torsions:
REMARK  status: ('A' for Active; 'I' for Inactive)
REMARK    1  A    between atoms: C_2  and  C_3
REMARK    2  A    between atoms: C_2  and  C_30
REMARK    3  A    between atoms: C_4  and  O_5
REMARK    4  A    between atoms: C_12  and  S_13
REMARK    5  A    between atoms: S_13  and  C_14
REMARK    6  A    between atoms: C_14  and  C_15
REMARK    7  A    between atoms: C_22  and  C_23
REMARK    8  A    between atoms: C_26  and  O_27
REMARK                            x       y       z     vdW  Elec       q    Type
REMARK                         _______ _______ _______ _____ _____    ______ ____
ROOT
ATOM      1  C   UNL     1      -0.986  11.982  21.185  0.00  0.00    +0.000 C 
ATOM      2  C   UNL     1      -0.990  10.978  22.066  0.00  0.00    +0.000 C 
ATOM      3  C   UNL     1      -0.177   9.884  21.488  0.00  0.00    +0.000 C 
ATOM      4  O   UNL     1      -0.097   8.785  22.008  0.00  0.00    +0.000 OA
ATOM      5  N   UNL     1       0.366  10.367  20.297  0.00  0.00    +0.000 N 
ATOM      6  C   UNL     1       1.102   9.562  19.437  0.00  0.00    +0.000 A 
ATOM      7  N   UNL     1       1.341   9.810  18.164  0.00  0.00    +0.000 NA
ATOM      8  N   UNL     1       2.093   8.808  17.560  0.00  0.00    +0.000 NA
ATOM      9  C   UNL     1       2.422   7.863  18.415  0.00  0.00    +0.000 A 
ATOM     10  S   UNL     1       1.867   8.136  20.003  0.00  0.00    +0.000 S 
ATOM     11  C   UNL     1      -0.141  11.693  19.981  0.00  0.00    +0.000 C 
ENDROOT
BRANCH  11  12
ATOM     12  C   UNL     1       0.969  12.706  19.717  0.00  0.00    +0.000 A 
ATOM     13  C   UNL     1       1.981  12.875  20.682  0.00  0.00    +0.000 A 
ATOM     14  C   UNL     1       2.991  13.826  20.516  0.00  0.00    +0.000 A 
ATOM     15  C   UNL     1       3.012  14.604  19.366  0.00  0.00    +0.000 A 
ATOM     16  C   UNL     1       2.047  14.440  18.383  0.00  0.00    +0.000 A 
ATOM     17  C   UNL     1       1.019  13.506  18.561  0.00  0.00    +0.000 A 
BRANCH  15  18
ATOM     18  O   UNL     1       3.969  15.555  19.168  0.00  0.00    +0.000 OA
ATOM     19  H   UNL     1       4.836  15.174  19.387  0.00  0.00    +0.000 HD
ENDBRANCH  15  18
ENDBRANCH  11  12
BRANCH   1  21
ATOM     20  O   UNL     1      -2.914  13.234  21.540  0.00  0.00    +0.000 OA
ATOM     21  C   UNL     1      -1.681  13.257  21.471  0.00  0.00    +0.000 C 
BRANCH  21  22
ATOM     22  C   UNL     1      -0.910  14.456  21.686  0.00  0.00    +0.000 A 
ATOM     23  C   UNL     1      -0.806  15.605  20.927  0.00  0.00    +0.000 A 
ATOM     24  C   UNL     1       0.103  16.455  21.607  0.00  0.00    +0.000 A 
ATOM     25  C   UNL     1       0.524  15.757  22.713  0.00  0.00    +0.000 A 
ATOM     26  O   UNL     1      -0.086  14.547  22.774  0.00  0.00    +0.000 OA
ENDBRANCH  21  22
ENDBRANCH   1  21
BRANCH   2  27
ATOM     27  O   UNL     1      -1.603  10.897  23.284  0.00  0.00    +0.000 OA
ATOM     28  H   UNL     1      -1.221  10.136  23.767  0.00  0.00    +0.000 HD
ENDBRANCH   2  27
BRANCH   9  29
ATOM     29  S   UNL     1       3.309   6.419  17.999  0.00  0.00    +0.000 S 
BRANCH  29  30
ATOM     30  C   UNL     1       2.004   5.166  18.013  0.00  0.00    +0.000 C 
BRANCH  30  31
ATOM     31  C   UNL     1       2.162   4.236  19.195  0.00  0.00    +0.000 A 
ATOM     32  C   UNL     1       1.134   4.111  20.144  0.00  0.00    +0.000 A 
ATOM     33  C   UNL     1       1.289   3.279  21.255  0.00  0.00    +0.000 A 
ATOM     34  C   UNL     1       2.474   2.569  21.436  0.00  0.00    +0.000 A 
ATOM     35  C   UNL     1       3.504   2.688  20.503  0.00  0.00    +0.000 A 
ATOM     36  C   UNL     1       3.352   3.519  19.392  0.00  0.00    +0.000 A 
ENDBRANCH  30  31
ENDBRANCH  29  30
ENDBRANCH   9  29
TORSDOF 8
ENDMDL
MODEL 3
REMARK VINA RESULT:      -7.5      0.884      1.255
REMARK  Name = 
REMARK  8 active torsions:
REMARK  status: ('A' for Active; 'I' for Inactive)
REMARK    1  A    between atoms: C_2  and  C_3
REMARK    2  A    between atoms: C_2  and  C_30
REMARK    3  A    between atoms: C_4  and  O_5
REMARK    4  A    between atoms: C_12  and  S_13
REMARK    5  A    between atoms: S_13  and  C_14
REMARK    6  A    between atoms: C_14  and  C_15
REMARK    7  A    between atoms: C_22  and  C_23
REMARK    8  A    between atoms: C_26  and  O_27
REMARK                            x       y       z     vdW  Elec       q    Type
REMARK                         _______ _______ _______ _____ _____    ______ ____
ROOT
ATOM      1  C   UNL     1      -1.005  11.614  21.316  0.00  0.00    +0.000 C 
ATOM      2  C   UNL     1      -0.925  10.596  22.178  0.00  0.00    +0.000 C 
ATOM      3  C   UNL     1      -0.088   9.551  21.548  0.00  0.00    +0.000 C 
ATOM      4  O   UNL     1       0.064   8.449  22.045  0.00  0.00    +0.000 OA
ATOM      5  N   UNL     1       0.380  10.077  20.343  0.00  0.00    +0.000 N 
ATOM      6  C   UNL     1       1.115   9.321  19.439  0.00  0.00    +0.000 A 
ATOM      7  N   UNL     1       1.287   9.599  18.162  0.00  0.00    +0.000 NA
ATOM      8  N   UNL     1       2.058   8.643  17.509  0.00  0.00    +0.000 NA
ATOM      9  C   UNL     1       2.466   7.702  18.333  0.00  0.00    +0.000 A 
ATOM     10  S   UNL     1       1.968   7.924  19.947  0.00  0.00    +0.000 S 
ATOM     11  C   UNL     1      -0.201  11.383  20.073  0.00  0.00    +0.000 C 
ENDROOT
BRANCH  11  12
ATOM     12  C   UNL     1       0.849  12.451  19.779  0.00  0.00    +0.000 A 
ATOM     13  C   UNL     1       1.850  12.703  20.738  0.00  0.00    +0.000 A 
ATOM     14  C   UNL     1       2.803  13.707  20.545  0.00  0.00    +0.000 A 
ATOM     15  C   UNL     1       2.780  14.452  19.374  0.00  0.00    +0.000 A 
ATOM     16  C   UNL     1       1.825  14.207  18.397  0.00  0.00    +0.000 A 
ATOM     17  C   UNL     1       0.853  13.221  18.602  0.00  0.00    +0.000 A 
BRANCH  15  18
ATOM     18  O   UNL     1       3.680  15.452  19.149  0.00  0.00    +0.000 OA
ATOM     19  H   UNL     1       4.091  15.696  19.995  0.00  0.00    +0.000 HD
ENDBRANCH  15  18
ENDBRANCH  11  12
BRANCH   1  21
ATOM     20  O   UNL     1      -1.087  13.829  22.021  0.00  0.00    +0.000 OA
ATOM     21  C   UNL     1      -1.745  12.850  21.654  0.00  0.00    +0.000 C 
BRANCH  21  22
ATOM     22  C   UNL     1      -3.180  12.881  21.520  0.00  0.00    +0.000 A 
ATOM     23  C   UNL     1      -3.976  13.347  20.493  0.00  0.00    +0.000 A 
ATOM     24  C   UNL     1      -5.319  13.138  20.898  0.00  0.00    +0.000 A 
ATOM     25  C   UNL     1      -5.257  12.596  22.160  0.00  0.00    +0.000 A 
ATOM     26  O   UNL     1      -3.966  12.432  22.545  0.00  0.00    +0.000 OA
ENDBRANCH  21  22
ENDBRANCH   1  21
BRANCH   2  27
ATOM     27  O   UNL     1      -1.481  10.469  23.420  0.00  0.00    +0.000 OA
ATOM     28  H   UNL     1      -2.440  10.653  23.343  0.00  0.00    +0.000 HD
ENDBRANCH   2  27
BRANCH   9  29
ATOM     29  S   UNL     1       3.400   6.307  17.854  0.00  0.00    +0.000 S 
BRANCH  29  30
ATOM     30  C   UNL     1       2.146   5.003  17.856  0.00  0.00    +0.000 C 
BRANCH  30  31
ATOM     31  C   UNL     1       2.256   4.150  19.099  0.00  0.00    +0.000 A 
ATOM     32  C   UNL     1       1.205   4.107  20.028  0.00  0.00    +0.000 A 
ATOM     33  C   UNL     1       1.317   3.347  21.195  0.00  0.00    +0.000 A 
ATOM     34  C   UNL     1       2.482   2.626  21.449  0.00  0.00    +0.000 A 
ATOM     35  C   UNL     1       3.535   2.663  20.536  0.00  0.00    +0.000 A 
ATOM     36  C   UNL     1       3.427   3.423  19.371  0.00  0.00    +0.000 A 
ENDBRANCH  30  31
ENDBRANCH  29  30
ENDBRANCH   9  29
TORSDOF 8
ENDMDL
MODEL 4
REMARK VINA RESULT:      -7.5      1.373      2.265
REMARK  Name = 
REMARK  8 active torsions:
REMARK  status: ('A' for Active; 'I' for Inactive)
REMARK    1  A    between atoms: C_2  and  C_3
REMARK    2  A    between atoms: C_2  and  C_30
REMARK    3  A    between atoms: C_4  and  O_5
REMARK    4  A    between atoms: C_12  and  S_13
REMARK    5  A    between atoms: S_13  and  C_14
REMARK    6  A    between atoms: C_14  and  C_15
REMARK    7  A    between atoms: C_22  and  C_23
REMARK    8  A    between atoms: C_26  and  O_27
REMARK                            x       y       z     vdW  Elec       q    Type
REMARK                         _______ _______ _______ _____ _____    ______ ____
ROOT
ATOM      1  C   UNL     1      -1.147  12.111  21.206  0.00  0.00    +0.000 C 
ATOM      2  C   UNL     1      -1.151  11.083  22.060  0.00  0.00    +0.000 C 
ATOM      3  C   UNL     1      -0.309  10.019  21.471  0.00  0.00    +0.000 C 
ATOM      4  O   UNL     1      -0.220   8.908  21.963  0.00  0.00    +0.000 OA
ATOM      5  N   UNL     1       0.250  10.542  20.304  0.00  0.00    +0.000 N 
ATOM      6  C   UNL     1       1.017   9.772  19.438  0.00  0.00    +0.000 A 
ATOM      7  N   UNL     1       1.277  10.057  18.178  0.00  0.00    +0.000 NA
ATOM      8  N   UNL     1       2.058   9.085  17.563  0.00  0.00    +0.000 NA
ATOM      9  C   UNL     1       2.385   8.123  18.400  0.00  0.00    +0.000 A 
ATOM     10  S   UNL     1       1.794   8.345  19.983  0.00  0.00    +0.000 S 
ATOM     11  C   UNL     1      -0.274  11.868  20.013  0.00  0.00    +0.000 C 
ENDROOT
BRANCH  11  12
ATOM     12  C   UNL     1       0.825  12.906  19.798  0.00  0.00    +0.000 A 
ATOM     13  C   UNL     1       0.753  13.751  18.673  0.00  0.00    +0.000 A 
ATOM     14  C   UNL     1       1.759  14.681  18.400  0.00  0.00    +0.000 A 
ATOM     15  C   UNL     1       2.837  14.793  19.266  0.00  0.00    +0.000 A 
ATOM     16  C   UNL     1       2.921  13.996  20.399  0.00  0.00    +0.000 A 
ATOM     17  C   UNL     1       1.928  13.045  20.659  0.00  0.00    +0.000 A 
BRANCH  15  18
ATOM     18  O   UNL     1       3.850  15.676  19.031  0.00  0.00    +0.000 OA
ATOM     19  H   UNL     1       4.629  15.399  19.542  0.00  0.00    +0.000 HD
ENDBRANCH  15  18
ENDBRANCH  11  12
BRANCH   1  21
ATOM     20  O   UNL     1      -2.912  13.592  20.891  0.00  0.00    +0.000 OA
ATOM     21  C   UNL     1      -1.869  13.366  21.512  0.00  0.00    +0.000 C 
BRANCH  21  22
ATOM     22  C   UNL     1      -1.357  14.254  22.525  0.00  0.00    +0.000 A 
ATOM     23  C   UNL     1      -0.466  15.304  22.432  0.00  0.00    +0.000 A 
ATOM     24  C   UNL     1      -0.313  15.820  23.745  0.00  0.00    +0.000 A 
ATOM     25  C   UNL     1      -1.087  15.028  24.558  0.00  0.00    +0.000 A 
ATOM     26  O   UNL     1      -1.728  14.079  23.830  0.00  0.00    +0.000 OA
ENDBRANCH  21  22
ENDBRANCH   1  21
BRANCH   2  27
ATOM     27  O   UNL     1      -1.788  10.960  23.263  0.00  0.00    +0.000 OA
ATOM     28  H   UNL     1      -1.111  10.791  23.949  0.00  0.00    +0.000 HD
ENDBRANCH   2  27
BRANCH   9  29
ATOM     29  S   UNL     1       3.306   6.706  17.964  0.00  0.00    +0.000 S 
BRANCH  29  30
ATOM     30  C   UNL     1       3.410   5.832  19.546  0.00  0.00    +0.000 C 
BRANCH  30  31
ATOM     31  C   UNL     1       2.458   4.657  19.577  0.00  0.00    +0.000 A 
ATOM     32  C   UNL     1       2.002   4.143  20.801  0.00  0.00    +0.000 A 
ATOM     33  C   UNL     1       1.150   3.037  20.835  0.00  0.00    +0.000 A 
ATOM     34  C   UNL     1       0.749   2.428  19.647  0.00  0.00    +0.000 A 
ATOM     35  C   UNL     1       1.198   2.926  18.425  0.00  0.00    +0.000 A 
ATOM     36  C   UNL     1       2.051   4.031  18.388  0.00  0.00    +0.000 A 
ENDBRANCH  30  31
ENDBRANCH  29  30
ENDBRANCH   9  29
TORSDOF 8
ENDMDL
MODEL 5
REMARK VINA RESULT:      -7.5      0.680      1.134
REMARK  Name = 
REMARK  8 active torsions:
REMARK  status: ('A' for Active; 'I' for Inactive)
REMARK    1  A    between atoms: C_2  and  C_3
REMARK    2  A    between atoms: C_2  and  C_30
REMARK    3  A    between atoms: C_4  and  O_5
REMARK    4  A    between atoms: C_12  and  S_13
REMARK    5  A    between atoms: S_13  and  C_14
REMARK    6  A    between atoms: C_14  and  C_15
REMARK    7  A    between atoms: C_22  and  C_23
REMARK    8  A    between atoms: C_26  and  O_27
REMARK                            x       y       z     vdW  Elec       q    Type
REMARK                         _______ _______ _______ _____ _____    ______ ____
ROOT
ATOM      1  C   UNL     1      -1.069  11.684  21.349  0.00  0.00    +0.000 C 
ATOM      2  C   UNL     1      -0.950  10.645  22.182  0.00  0.00    +0.000 C 
ATOM      3  C   UNL     1      -0.083   9.647  21.519  0.00  0.00    +0.000 C 
ATOM      4  O   UNL     1       0.109   8.537  21.984  0.00  0.00    +0.000 OA
ATOM      5  N   UNL     1       0.363  10.222  20.328  0.00  0.00    +0.000 N 
ATOM      6  C   UNL     1       1.117   9.517  19.400  0.00  0.00    +0.000 A 
ATOM      7  N   UNL     1       1.274   9.837  18.131  0.00  0.00    +0.000 NA
ATOM      8  N   UNL     1       2.073   8.926  17.448  0.00  0.00    +0.000 NA
ATOM      9  C   UNL     1       2.516   7.976  18.243  0.00  0.00    +0.000 A 
ATOM     10  S   UNL     1       2.019   8.135  19.865  0.00  0.00    +0.000 S 
ATOM     11  C   UNL     1      -0.263  11.515  20.097  0.00  0.00    +0.000 C 
ENDROOT
BRANCH  11  12
ATOM     12  C   UNL     1       0.750  12.625  19.831  0.00  0.00    +0.000 A 
ATOM     13  C   UNL     1       1.797  12.827  20.750  0.00  0.00    +0.000 A 
ATOM     14  C   UNL     1       2.720  13.863  20.583  0.00  0.00    +0.000 A 
ATOM     15  C   UNL     1       2.618  14.695  19.476  0.00  0.00    +0.000 A 
ATOM     16  C   UNL     1       1.615  14.502  18.537  0.00  0.00    +0.000 A 
ATOM     17  C   UNL     1       0.674  13.482  18.718  0.00  0.00    +0.000 A 
BRANCH  15  18
ATOM     18  O   UNL     1       3.486  15.728  19.281  0.00  0.00    +0.000 OA
ATOM     19  H   UNL     1       3.987  15.873  20.101  0.00  0.00    +0.000 HD
ENDBRANCH  15  18
ENDBRANCH  11  12
BRANCH   1  21
ATOM     20  O   UNL     1      -1.230  13.840  22.206  0.00  0.00    +0.000 OA
ATOM     21  C   UNL     1      -1.848  12.885  21.726  0.00  0.00    +0.000 C 
BRANCH  21  22
ATOM     22  C   UNL     1      -3.271  12.911  21.497  0.00  0.00    +0.000 A 
ATOM     23  C   UNL     1      -4.324  12.794  22.382  0.00  0.00    +0.000 A 
ATOM     24  C   UNL     1      -5.510  12.880  21.609  0.00  0.00    +0.000 A 
ATOM     25  C   UNL     1      -5.105  13.004  20.301  0.00  0.00    +0.000 A 
ATOM     26  O   UNL     1      -3.751  13.029  20.222  0.00  0.00    +0.000 OA
ENDBRANCH  21  22
ENDBRANCH   1  21
BRANCH   2  27
ATOM     27  O   UNL     1      -1.496  10.464  23.422  0.00  0.00    +0.000 OA
ATOM     28  H   UNL     1      -1.461   9.508  23.632  0.00  0.00    +0.000 HD
ENDBRANCH   2  27
BRANCH   9  29
ATOM     29  S   UNL     1       3.494   6.628  17.721  0.00  0.00    +0.000 S 
BRANCH  29  30
ATOM     30  C   UNL     1       3.719   5.714  19.267  0.00  0.00    +0.000 C 
BRANCH  30  31
ATOM     31  C   UNL     1       2.659   4.647  19.422  0.00  0.00    +0.000 A 
ATOM     32  C   UNL     1       2.176   4.304  20.695  0.00  0.00    +0.000 A 
ATOM     33  C   UNL     1       1.221   3.296  20.846  0.00  0.00    +0.000 A 
ATOM     34  C   UNL     1       0.742   2.615  19.728  0.00  0.00    +0.000 A 
ATOM     35  C   UNL     1       1.217   2.943  18.459  0.00  0.00    +0.000 A 
ATOM     36  C   UNL     1       2.172   3.949  18.306  0.00  0.00    +0.000 A 
ENDBRANCH  30  31
ENDBRANCH  29  30
ENDBRANCH   9  29
TORSDOF 8
ENDMDL
MODEL 6
REMARK VINA RESULT:      -7.5      1.258      1.867
REMARK  Name = 
REMARK  8 active torsions:
REMARK  status: ('A' for Active; 'I' for Inactive)
REMARK    1  A    between atoms: C_2  and  C_3
REMARK    2  A    between atoms: C_2  and  C_30
REMARK    3  A    between atoms: C_4  and  O_5
REMARK    4  A    between atoms: C_12  and  S_13
REMARK    5  A    between atoms: S_13  and  C_14
REMARK    6  A    between atoms: C_14  and  C_15
REMARK    7  A    between atoms: C_22  and  C_23
REMARK    8  A    between atoms: C_26  and  O_27
REMARK                            x       y       z     vdW  Elec       q    Type
REMARK                         _______ _______ _______ _____ _____    ______ ____
ROOT
ATOM      1  C   UNL     1      -1.246  12.013  21.262  0.00  0.00    +0.000 C 
ATOM      2  C   UNL     1      -1.180  10.989  22.119  0.00  0.00    +0.000 C 
ATOM      3  C   UNL     1      -0.310   9.960  21.506  0.00  0.00    +0.000 C 
ATOM      4  O   UNL     1      -0.159   8.856  21.998  0.00  0.00    +0.000 OA
ATOM      5  N   UNL     1       0.189  10.502  20.322  0.00  0.00    +0.000 N 
ATOM      6  C   UNL     1       0.962   9.764  19.435  0.00  0.00    +0.000 A 
ATOM      7  N   UNL     1       1.170  10.055  18.166  0.00  0.00    +0.000 NA
ATOM      8  N   UNL     1       1.974   9.115  17.530  0.00  0.00    +0.000 NA
ATOM      9  C   UNL     1       2.368   8.171  18.359  0.00  0.00    +0.000 A 
ATOM     10  S   UNL     1       1.817   8.373  19.958  0.00  0.00    +0.000 S 
ATOM     11  C   UNL     1      -0.400  11.803  20.044  0.00  0.00    +0.000 C 
ENDROOT
BRANCH  11  12
ATOM     12  C   UNL     1       0.645  12.887  19.793  0.00  0.00    +0.000 A 
ATOM     13  C   UNL     1       1.794  12.927  20.608  0.00  0.00    +0.000 A 
ATOM     14  C   UNL     1       2.755  13.930  20.457  0.00  0.00    +0.000 A 
ATOM     15  C   UNL     1       2.589  14.891  19.469  0.00  0.00    +0.000 A 
ATOM     16  C   UNL     1       1.483  14.860  18.630  0.00  0.00    +0.000 A 
ATOM     17  C   UNL     1       0.506  13.872  18.799  0.00  0.00    +0.000 A 
BRANCH  15  18
ATOM     18  O   UNL     1       3.493  15.897  19.295  0.00  0.00    +0.000 OA
ATOM     19  H   UNL     1       4.027  15.977  20.103  0.00  0.00    +0.000 HD
ENDBRANCH  15  18
ENDBRANCH  11  12
BRANCH   1  21
ATOM     20  O   UNL     1      -3.093  13.405  21.013  0.00  0.00    +0.000 OA
ATOM     21  C   UNL     1      -2.012  13.237  21.587  0.00  0.00    +0.000 C 
BRANCH  21  22
ATOM     22  C   UNL     1      -1.497  14.162  22.565  0.00  0.00    +0.000 A 
ATOM     23  C   UNL     1      -0.605  15.207  22.430  0.00  0.00    +0.000 A 
ATOM     24  C   UNL     1      -0.447  15.772  23.721  0.00  0.00    +0.000 A 
ATOM     25  C   UNL     1      -1.221  15.012  24.566  0.00  0.00    +0.000 A 
ATOM     26  O   UNL     1      -1.864  14.037  23.876  0.00  0.00    +0.000 OA
ENDBRANCH  21  22
ENDBRANCH   1  21
BRANCH   2  27
ATOM     27  O   UNL     1      -1.774  10.844  23.341  0.00  0.00    +0.000 OA
ATOM     28  H   UNL     1      -1.067  10.771  24.015  0.00  0.00    +0.000 HD
ENDBRANCH   2  27
BRANCH   9  29
ATOM     29  S   UNL     1       3.335   6.794  17.898  0.00  0.00    +0.000 S 
BRANCH  29  30
ATOM     30  C   UNL     1       3.362   5.832  19.431  0.00  0.00    +0.000 C 
BRANCH  30  31
ATOM     31  C   UNL     1       2.537   4.572  19.292  0.00  0.00    +0.000 A 
ATOM     32  C   UNL     1       2.739   3.706  18.206  0.00  0.00    +0.000 A 
ATOM     33  C   UNL     1       1.957   2.559  18.056  0.00  0.00    +0.000 A 
ATOM     34  C   UNL     1       0.960   2.267  18.984  0.00  0.00    +0.000 A 
ATOM     35  C   UNL     1       0.746   3.122  20.066  0.00  0.00    +0.000 A 
ATOM     36  C   UNL     1       1.526   4.269  20.218  0.00  0.00    +0.000 A 
ENDBRANCH  30  31
ENDBRANCH  29  30
ENDBRANCH   9  29
TORSDOF 8
ENDMDL
MODEL 7
REMARK VINA RESULT:      -7.5      1.345      2.192
REMARK  Name = 
REMARK  8 active torsions:
REMARK  status: ('A' for Active; 'I' for Inactive)
REMARK    1  A    between atoms: C_2  and  C_3
REMARK    2  A    between atoms: C_2  and  C_30
REMARK    3  A    between atoms: C_4  and  O_5
REMARK    4  A    between atoms: C_12  and  S_13
REMARK    5  A    between atoms: S_13  and  C_14
REMARK    6  A    between atoms: C_14  and  C_15
REMARK    7  A    between atoms: C_22  and  C_23
REMARK    8  A    between atoms: C_26  and  O_27
REMARK                            x       y       z     vdW  Elec       q    Type
REMARK                         _______ _______ _______ _____ _____    ______ ____
ROOT
ATOM      1  C   UNL     1      -1.040  11.977  21.290  0.00  0.00    +0.000 C 
ATOM      2  C   UNL     1      -1.008  10.938  22.129  0.00  0.00    +0.000 C 
ATOM      3  C   UNL     1      -0.173   9.890  21.500  0.00  0.00    +0.000 C 
ATOM      4  O   UNL     1      -0.059   8.774  21.975  0.00  0.00    +0.000 OA
ATOM      5  N   UNL     1       0.344  10.434  20.324  0.00  0.00    +0.000 N 
ATOM      6  C   UNL     1       1.091   9.685  19.425  0.00  0.00    +0.000 A 
ATOM      7  N   UNL     1       1.310   9.989  18.161  0.00  0.00    +0.000 NA
ATOM      8  N   UNL     1       2.082   9.033  17.510  0.00  0.00    +0.000 NA
ATOM      9  C   UNL     1       2.444   8.064  18.323  0.00  0.00    +0.000 A 
ATOM     10  S   UNL     1       1.899   8.258  19.926  0.00  0.00    +0.000 S 
ATOM     11  C   UNL     1      -0.201  11.758  20.067  0.00  0.00    +0.000 C 
ENDROOT
BRANCH  11  12
ATOM     12  C   UNL     1       0.879  12.811  19.833  0.00  0.00    +0.000 A 
ATOM     13  C   UNL     1       0.784  13.645  18.702  0.00  0.00    +0.000 A 
ATOM     14  C   UNL     1       1.773  14.588  18.412  0.00  0.00    +0.000 A 
ATOM     15  C   UNL     1       2.859  14.723  19.266  0.00  0.00    +0.000 A 
ATOM     16  C   UNL     1       2.966  13.936  20.404  0.00  0.00    +0.000 A 
ATOM     17  C   UNL     1       1.989  12.973  20.682  0.00  0.00    +0.000 A 
BRANCH  15  18
ATOM     18  O   UNL     1       3.856  15.618  19.014  0.00  0.00    +0.000 OA
ATOM     19  H   UNL     1       4.323  15.344  18.207  0.00  0.00    +0.000 HD
ENDBRANCH  15  18
ENDBRANCH  11  12
BRANCH   1  21
ATOM     20  O   UNL     1      -2.991  13.149  21.770  0.00  0.00    +0.000 OA
ATOM     21  C   UNL     1      -1.765  13.220  21.635  0.00  0.00    +0.000 C 
BRANCH  21  22
ATOM     22  C   UNL     1      -1.029  14.444  21.826  0.00  0.00    +0.000 A 
ATOM     23  C   UNL     1      -1.058  15.630  21.119  0.00  0.00    +0.000 A 
ATOM     24  C   UNL     1      -0.119  16.492  21.740  0.00  0.00    +0.000 A 
ATOM     25  C   UNL     1       0.451  15.766  22.758  0.00  0.00    +0.000 A 
ATOM     26  O   UNL     1      -0.096  14.526  22.823  0.00  0.00    +0.000 OA
ENDBRANCH  21  22
ENDBRANCH   1  21
BRANCH   2  27
ATOM     27  O   UNL     1      -1.606  10.793  23.349  0.00  0.00    +0.000 OA
ATOM     28  H   UNL     1      -1.303  11.524  23.925  0.00  0.00    +0.000 HD
ENDBRANCH   2  27
BRANCH   9  29
ATOM     29  S   UNL     1       3.364   6.662  17.840  0.00  0.00    +0.000 S 
BRANCH  29  30
ATOM     30  C   UNL     1       3.566   5.792  19.414  0.00  0.00    +0.000 C 
BRANCH  30  31
ATOM     31  C   UNL     1       2.604   4.629  19.515  0.00  0.00    +0.000 A 
ATOM     32  C   UNL     1       2.082   4.035  18.355  0.00  0.00    +0.000 A 
ATOM     33  C   UNL     1       1.167   2.984  18.445  0.00  0.00    +0.000 A 
ATOM     34  C   UNL     1       0.758   2.518  19.693  0.00  0.00    +0.000 A 
ATOM     35  C   UNL     1       1.266   3.102  20.853  0.00  0.00    +0.000 A 
ATOM     36  C   UNL     1       2.180   4.154  20.766  0.00  0.00    +0.000 A 
ENDBRANCH  30  31
ENDBRANCH  29  30
ENDBRANCH   9  29
TORSDOF 8
ENDMDL
MODEL 8
REMARK VINA RESULT:      -7.4      0.787      1.209
REMARK  Name = 
REMARK  8 active torsions:
REMARK  status: ('A' for Active; 'I' for Inactive)
REMARK    1  A    between atoms: C_2  and  C_3
REMARK    2  A    between atoms: C_2  and  C_30
REMARK    3  A    between atoms: C_4  and  O_5
REMARK    4  A    between atoms: C_12  and  S_13
REMARK    5  A    between atoms: S_13  and  C_14
REMARK    6  A    between atoms: C_14  and  C_15
REMARK    7  A    between atoms: C_22  and  C_23
REMARK    8  A    between atoms: C_26  and  O_27
REMARK                            x       y       z     vdW  Elec       q    Type
REMARK                         _______ _______ _______ _____ _____    ______ ____
ROOT
ATOM      1  C   UNL     1      -0.975  11.779  21.306  0.00  0.00    +0.000 C 
ATOM      2  C   UNL     1      -0.912  10.738  22.141  0.00  0.00    +0.000 C 
ATOM      3  C   UNL     1      -0.069   9.707  21.495  0.00  0.00    +0.000 C 
ATOM      4  O   UNL     1       0.072   8.591  21.963  0.00  0.00    +0.000 OA
ATOM      5  N   UNL     1       0.421  10.265  20.314  0.00  0.00    +0.000 N 
ATOM      6  C   UNL     1       1.168   9.532  19.400  0.00  0.00    +0.000 A 
ATOM      7  N   UNL     1       1.361   9.845  18.135  0.00  0.00    +0.000 NA
ATOM      8  N   UNL     1       2.140   8.906  17.467  0.00  0.00    +0.000 NA
ATOM      9  C   UNL     1       2.531   7.939  18.271  0.00  0.00    +0.000 A 
ATOM     10  S   UNL     1       2.008   8.117  19.883  0.00  0.00    +0.000 S 
ATOM     11  C   UNL     1      -0.151  11.581  20.071  0.00  0.00    +0.000 C 
ENDROOT
BRANCH  11  12
ATOM     12  C   UNL     1       0.907  12.652  19.825  0.00  0.00    +0.000 A 
ATOM     13  C   UNL     1       0.859  13.396  18.629  0.00  0.00    +0.000 A 
ATOM     14  C   UNL     1       1.834  14.351  18.330  0.00  0.00    +0.000 A 
ATOM     15  C   UNL     1       2.856  14.590  19.238  0.00  0.00    +0.000 A 
ATOM     16  C   UNL     1       2.914  13.895  20.438  0.00  0.00    +0.000 A 
ATOM     17  C   UNL     1       1.953  12.919  20.727  0.00  0.00    +0.000 A 
BRANCH  15  18
ATOM     18  O   UNL     1       3.838  15.501  18.981  0.00  0.00    +0.000 OA
ATOM     19  H   UNL     1       3.737  15.817  18.067  0.00  0.00    +0.000 HD
ENDBRANCH  15  18
ENDBRANCH  11  12
BRANCH   1  21
ATOM     20  O   UNL     1      -1.090  13.908  22.237  0.00  0.00    +0.000 OA
ATOM     21  C   UNL     1      -1.716  13.009  21.667  0.00  0.00    +0.000 C 
BRANCH  21  22
ATOM     22  C   UNL     1      -3.111  13.126  21.324  0.00  0.00    +0.000 A 
ATOM     23  C   UNL     1      -4.183  13.579  22.067  0.00  0.00    +0.000 A 
ATOM     24  C   UNL     1      -5.326  13.464  21.235  0.00  0.00    +0.000 A 
ATOM     25  C   UNL     1      -4.886  12.913  20.056  0.00  0.00    +0.000 A 
ATOM     26  O   UNL     1      -3.545  12.708  20.097  0.00  0.00    +0.000 OA
ENDBRANCH  21  22
ENDBRANCH   1  21
BRANCH   2  27
ATOM     27  O   UNL     1      -1.489  10.577  23.369  0.00  0.00    +0.000 OA
ATOM     28  H   UNL     1      -1.995   9.739  23.360  0.00  0.00    +0.000 HD
ENDBRANCH   2  27
BRANCH   9  29
ATOM     29  S   UNL     1       3.468   6.555  17.768  0.00  0.00    +0.000 S 
BRANCH  29  30
ATOM     30  C   UNL     1       3.721   5.690  19.338  0.00  0.00    +0.000 C 
BRANCH  30  31
ATOM     31  C   UNL     1       2.701   4.587  19.515  0.00  0.00    +0.000 A 
ATOM     32  C   UNL     1       2.138   3.953  18.397  0.00  0.00    +0.000 A 
ATOM     33  C   UNL     1       1.171   2.957  18.556  0.00  0.00    +0.000 A 
ATOM     34  C   UNL     1       0.750   2.590  19.833  0.00  0.00    +0.000 A 
ATOM     35  C   UNL     1       1.299   3.216  20.952  0.00  0.00    +0.000 A 
ATOM     36  C   UNL     1       2.264   4.211  20.796  0.00  0.00    +0.000 A 
ENDBRANCH  30  31
ENDBRANCH  29  30
ENDBRANCH   9  29
TORSDOF 8
ENDMDL
MODEL 9
REMARK VINA RESULT:      -7.4      0.527      1.260
REMARK  Name = 
REMARK  8 active torsions:
REMARK  status: ('A' for Active; 'I' for Inactive)
REMARK    1  A    between atoms: C_2  and  C_3
REMARK    2  A    between atoms: C_2  and  C_30
REMARK    3  A    between atoms: C_4  and  O_5
REMARK    4  A    between atoms: C_12  and  S_13
REMARK    5  A    between atoms: S_13  and  C_14
REMARK    6  A    between atoms: C_14  and  C_15
REMARK    7  A    between atoms: C_22  and  C_23
REMARK    8  A    between atoms: C_26  and  O_27
REMARK                            x       y       z     vdW  Elec       q    Type
REMARK                         _______ _______ _______ _____ _____    ______ ____
ROOT
ATOM      1  C   UNL     1      -1.081  11.712  21.428  0.00  0.00    +0.000 C 
ATOM      2  C   UNL     1      -0.964  10.653  22.234  0.00  0.00    +0.000 C 
ATOM      3  C   UNL     1      -0.100   9.669  21.545  0.00  0.00    +0.000 C 
ATOM      4  O   UNL     1       0.089   8.547  21.981  0.00  0.00    +0.000 OA
ATOM      5  N   UNL     1       0.345  10.273  20.368  0.00  0.00    +0.000 N 
ATOM      6  C   UNL     1       1.097   9.590  19.421  0.00  0.00    +0.000 A 
ATOM      7  N   UNL     1       1.253   9.941  18.161  0.00  0.00    +0.000 NA
ATOM      8  N   UNL     1       2.049   9.046  17.454  0.00  0.00    +0.000 NA
ATOM      9  C   UNL     1       2.490   8.074  18.224  0.00  0.00    +0.000 A 
ATOM     10  S   UNL     1       1.995   8.194  19.850  0.00  0.00    +0.000 S 
ATOM     11  C   UNL     1      -0.277  11.573  20.171  0.00  0.00    +0.000 C 
ENDROOT
BRANCH  11  12
ATOM     12  C   UNL     1       0.738  12.687  19.932  0.00  0.00    +0.000 A 
ATOM     13  C   UNL     1       0.521  13.591  18.873  0.00  0.00    +0.000 A 
ATOM     14  C   UNL     1       1.446  14.595  18.576  0.00  0.00    +0.000 A 
ATOM     15  C   UNL     1       2.588  14.722  19.354  0.00  0.00    +0.000 A 
ATOM     16  C   UNL     1       2.815  13.866  20.422  0.00  0.00    +0.000 A 
ATOM     17  C   UNL     1       1.904  12.842  20.704  0.00  0.00    +0.000 A 
BRANCH  15  18
ATOM     18  O   UNL     1       3.526  15.677  19.091  0.00  0.00    +0.000 OA
ATOM     19  H   UNL     1       3.249  16.508  19.513  0.00  0.00    +0.000 HD
ENDBRANCH  15  18
ENDBRANCH  11  12
BRANCH   1  21
ATOM     20  O   UNL     1      -1.256  13.798  22.443  0.00  0.00    +0.000 OA
ATOM     21  C   UNL     1      -1.856  12.905  21.836  0.00  0.00    +0.000 C 
BRANCH  21  22
ATOM     22  C   UNL     1      -3.253  12.998  21.494  0.00  0.00    +0.000 A 
ATOM     23  C   UNL     1      -3.895  12.828  20.283  0.00  0.00    +0.000 A 
ATOM     24  C   UNL     1      -5.275  13.048  20.524  0.00  0.00    +0.000 A 
ATOM     25  C   UNL     1      -5.382  13.376  21.854  0.00  0.00    +0.000 A 
ATOM     26  O   UNL     1      -4.165  13.344  22.453  0.00  0.00    +0.000 OA
ENDBRANCH  21  22
ENDBRANCH   1  21
BRANCH   2  27
ATOM     27  O   UNL     1      -1.509  10.441  23.469  0.00  0.00    +0.000 OA
ATOM     28  H   UNL     1      -2.290   9.860  23.362  0.00  0.00    +0.000 HD
ENDBRANCH   2  27
BRANCH   9  29
ATOM     29  S   UNL     1       3.464   6.737  17.667  0.00  0.00    +0.000 S 
BRANCH  29  30
ATOM     30  C   UNL     1       3.704   5.794  19.193  0.00  0.00    +0.000 C 
BRANCH  30  31
ATOM     31  C   UNL     1       2.656   4.713  19.329  0.00  0.00    +0.000 A 
ATOM     32  C   UNL     1       2.092   4.423  20.582  0.00  0.00    +0.000 A 
ATOM     33  C   UNL     1       1.148   3.403  20.719  0.00  0.00    +0.000 A 
ATOM     34  C   UNL     1       0.762   2.656  19.607  0.00  0.00    +0.000 A 
ATOM     35  C   UNL     1       1.317   2.931  18.358  0.00  0.00    +0.000 A 
ATOM     36  C   UNL     1       2.261   3.950  18.219  0.00  0.00    +0.000 A 
ENDBRANCH  30  31
ENDBRANCH  29  30
ENDBRANCH   9  29
TORSDOF 8
ENDMDL
