MODEL 1
REMARK VINA RESULT:      -7.5      0.000      0.000
REMARK  Name = 
REMARK  7 active torsions:
REMARK  status: ('A' for Active; 'I' for Inactive)
REMARK    1  A    between atoms: C_1  and  C_2
REMARK    2  A    between atoms: C_5  and  N_6
REMARK    3  A    between atoms: N_9  and  C_10
REMARK    4  A    between atoms: C_10  and  C_11
REMARK    5  A    between atoms: C_11  and  O_12
REMARK    6  A    between atoms: C_11  and  C_13
REMARK    7  A    between atoms: C_13  and  N_14
REMARK                            x       y       z     vdW  Elec       q    Type
REMARK                         _______ _______ _______ _____ _____    ______ ____
ROOT
ATOM      1  C   UNL     1       4.280   5.127  17.242  0.00  0.00    +0.000 C 
ENDROOT
BRANCH   1   2
ATOM      2  O   UNL     1       4.594   6.348  16.563  0.00  0.00    +0.000 OA
ATOM      3  H   UNL     1       3.913   7.019  16.789  0.00  0.00    +0.000 HD
ENDBRANCH   1   2
BRANCH   1   4
ATOM      4  C   UNL     1       4.577   5.206  18.757  0.00  0.00    +0.000 C 
BRANCH   4  10
ATOM      5  C   UNL     1       2.241   6.915  19.872  0.00  0.00    +0.000 C 
ATOM      6  C   UNL     1       2.441   5.458  20.107  0.00  0.00    +0.000 A 
ATOM      7  N   UNL     1       1.615   4.714  20.820  0.00  0.00    +0.000 NA
ATOM      8  C   UNL     1       2.101   3.440  20.755  0.00  0.00    +0.000 A 
ATOM      9  C   UNL     1       3.238   3.403  19.990  0.00  0.00    +0.000 A 
ATOM     10  N   UNL     1       3.488   4.699  19.595  0.00  0.00    +0.000 N 
BRANCH   9  11
ATOM     11  N   UNL     1       4.004   2.250  19.669  0.00  0.00    +0.000 N 
ATOM     12  O   UNL     1       5.004   2.032  20.363  0.00  0.00    +0.000 OA
ATOM     13  O   UNL     1       3.637   1.555  18.709  0.00  0.00    +0.000 OA
ENDBRANCH   9  11
ENDBRANCH   4  10
ENDBRANCH   1   4
BRANCH   1  14
ATOM     14  C   UNL     1       4.949   3.945  16.508  0.00  0.00    +0.000 C 
BRANCH  14  15
ATOM     15  N   UNL     1       6.100   4.325  15.717  0.00  0.00    +0.000 N 
ATOM     16  N   UNL     1       7.014   5.157  16.250  0.00  0.00    +0.000 NA
ATOM     17  N   UNL     1       7.779   5.593  15.258  0.00  0.00    +0.000 NA
ATOM     18  C   UNL     1       7.356   4.997  14.099  0.00  0.00    +0.000 A 
ATOM     19  C   UNL     1       7.768   5.179  12.771  0.00  0.00    +0.000 A 
ATOM     20  C   UNL     1       7.134   4.438  11.766  0.00  0.00    +0.000 A 
ATOM     21  C   UNL     1       6.147   3.500  12.083  0.00  0.00    +0.000 A 
ATOM     22  C   UNL     1       5.722   3.308  13.404  0.00  0.00    +0.000 A 
ATOM     23  C   UNL     1       6.327   4.106  14.382  0.00  0.00    +0.000 A 
ENDBRANCH  14  15
ENDBRANCH   1  14
TORSDOF 6
ENDMDL
MODEL 2
REMARK VINA RESULT:      -7.5      1.371      1.554
REMARK  Name = 
REMARK  7 active torsions:
REMARK  status: ('A' for Active; 'I' for Inactive)
REMARK    1  A    between atoms: C_1  and  C_2
REMARK    2  A    between atoms: C_5  and  N_6
REMARK    3  A    between atoms: N_9  and  C_10
REMARK    4  A    between atoms: C_10  and  C_11
REMARK    5  A    between atoms: C_11  and  O_12
REMARK    6  A    between atoms: C_11  and  C_13
REMARK    7  A    between atoms: C_13  and  N_14
REMARK                            x       y       z     vdW  Elec       q    Type
REMARK                         _______ _______ _______ _____ _____    ______ ____
ROOT
ATOM      1  C   UNL     1       5.845   5.034  18.088  0.00  0.00    +0.000 C 
ENDROOT
BRANCH   1   2
ATOM      2  O   UNL     1       6.819   4.035  18.410  0.00  0.00    +0.000 OA
ATOM      3  H   UNL     1       6.683   3.750  19.341  0.00  0.00    +0.000 HD
ENDBRANCH   1   2
BRANCH   1   4
ATOM      4  C   UNL     1       4.752   5.158  19.174  0.00  0.00    +0.000 C 
BRANCH   4  10
ATOM      5  C   UNL     1       2.299   6.692  18.058  0.00  0.00    +0.000 C 
ATOM      6  C   UNL     1       2.368   5.225  18.302  0.00  0.00    +0.000 A 
ATOM      7  N   UNL     1       1.373   4.396  18.047  0.00  0.00    +0.000 NA
ATOM      8  C   UNL     1       1.836   3.146  18.344  0.00  0.00    +0.000 A 
ATOM      9  C   UNL     1       3.132   3.211  18.784  0.00  0.00    +0.000 A 
ATOM     10  N   UNL     1       3.477   4.546  18.795  0.00  0.00    +0.000 N 
BRANCH   9  11
ATOM     11  N   UNL     1       3.956   2.114  19.154  0.00  0.00    +0.000 N 
ATOM     12  O   UNL     1       3.786   1.055  18.539  0.00  0.00    +0.000 OA
ATOM     13  O   UNL     1       4.768   2.280  20.077  0.00  0.00    +0.000 OA
ENDBRANCH   9  11
ENDBRANCH   4  10
ENDBRANCH   1   4
BRANCH   1  14
ATOM     14  C   UNL     1       5.317   4.794  16.657  0.00  0.00    +0.000 C 
BRANCH  14  15
ATOM     15  N   UNL     1       6.350   4.816  15.643  0.00  0.00    +0.000 N 
ATOM     16  N   UNL     1       7.441   5.581  15.836  0.00  0.00    +0.000 NA
ATOM     17  N   UNL     1       8.069   5.676  14.671  0.00  0.00    +0.000 NA
ATOM     18  C   UNL     1       7.378   4.932  13.751  0.00  0.00    +0.000 A 
ATOM     19  C   UNL     1       7.570   4.770  12.372  0.00  0.00    +0.000 A 
ATOM     20  C   UNL     1       6.682   3.951  11.664  0.00  0.00    +0.000 A 
ATOM     21  C   UNL     1       5.655   3.270  12.324  0.00  0.00    +0.000 A 
ATOM     22  C   UNL     1       5.448   3.422  13.701  0.00  0.00    +0.000 A 
ATOM     23  C   UNL     1       6.311   4.295  14.375  0.00  0.00    +0.000 A 
ENDBRANCH  14  15
ENDBRANCH   1  14
TORSDOF 6
ENDMDL
MODEL 3
REMARK VINA RESULT:      -7.3      1.794      2.575
REMARK  Name = 
REMARK  7 active torsions:
REMARK  status: ('A' for Active; 'I' for Inactive)
REMARK    1  A    between atoms: C_1  and  C_2
REMARK    2  A    between atoms: C_5  and  N_6
REMARK    3  A    between atoms: N_9  and  C_10
REMARK    4  A    between atoms: C_10  and  C_11
REMARK    5  A    between atoms: C_11  and  O_12
REMARK    6  A    between atoms: C_11  and  C_13
REMARK    7  A    between atoms: C_13  and  N_14
REMARK                            x       y       z     vdW  Elec       q    Type
REMARK                         _______ _______ _______ _____ _____    ______ ____
ROOT
ATOM      1  C   UNL     1       5.358   4.437  17.817  0.00  0.00    +0.000 C 
ENDROOT
BRANCH   1   2
ATOM      2  O   UNL     1       6.738   4.102  18.008  0.00  0.00    +0.000 OA
ATOM      3  H   UNL     1       7.223   4.909  18.290  0.00  0.00    +0.000 HD
ENDBRANCH   1   2
BRANCH   1   4
ATOM      4  C   UNL     1       4.442   3.194  17.867  0.00  0.00    +0.000 C 
BRANCH   4  10
ATOM      5  C   UNL     1       4.769   1.778  20.607  0.00  0.00    +0.000 C 
ATOM      6  C   UNL     1       3.596   2.592  20.185  0.00  0.00    +0.000 A 
ATOM      7  N   UNL     1       2.550   2.819  20.958  0.00  0.00    +0.000 NA
ATOM      8  C   UNL     1       1.727   3.644  20.247  0.00  0.00    +0.000 A 
ATOM      9  C   UNL     1       2.276   3.927  19.024  0.00  0.00    +0.000 A 
ATOM     10  N   UNL     1       3.464   3.230  18.957  0.00  0.00    +0.000 N 
BRANCH   9  11
ATOM     11  N   UNL     1       1.727   4.776  18.026  0.00  0.00    +0.000 N 
ATOM     12  O   UNL     1       0.965   4.252  17.205  0.00  0.00    +0.000 OA
ATOM     13  O   UNL     1       2.061   5.970  18.028  0.00  0.00    +0.000 OA
ENDBRANCH   9  11
ENDBRANCH   4  10
ENDBRANCH   1   4
BRANCH   1  14
ATOM     14  C   UNL     1       5.211   5.304  16.548  0.00  0.00    +0.000 C 
BRANCH  14  15
ATOM     15  N   UNL     1       6.256   5.088  15.570  0.00  0.00    +0.000 N 
ATOM     16  N   UNL     1       7.429   5.733  15.711  0.00  0.00    +0.000 NA
ATOM     17  N   UNL     1       8.083   5.621  14.562  0.00  0.00    +0.000 NA
ATOM     18  C   UNL     1       7.321   4.868  13.708  0.00  0.00    +0.000 A 
ATOM     19  C   UNL     1       7.515   4.531  12.361  0.00  0.00    +0.000 A 
ATOM     20  C   UNL     1       6.545   3.752  11.720  0.00  0.00    +0.000 A 
ATOM     21  C   UNL     1       5.431   3.276  12.418  0.00  0.00    +0.000 A 
ATOM     22  C   UNL     1       5.221   3.606  13.764  0.00  0.00    +0.000 A 
ATOM     23  C   UNL     1       6.174   4.437  14.365  0.00  0.00    +0.000 A 
ENDBRANCH  14  15
ENDBRANCH   1  14
TORSDOF 6
ENDMDL
MODEL 4
REMARK VINA RESULT:      -7.2      1.897      2.841
REMARK  Name = 
REMARK  7 active torsions:
REMARK  status: ('A' for Active; 'I' for Inactive)
REMARK    1  A    between atoms: C_1  and  C_2
REMARK    2  A    between atoms: C_5  and  N_6
REMARK    3  A    between atoms: N_9  and  C_10
REMARK    4  A    between atoms: C_10  and  C_11
REMARK    5  A    between atoms: C_11  and  O_12
REMARK    6  A    between atoms: C_11  and  C_13
REMARK    7  A    between atoms: C_13  and  N_14
REMARK                            x       y       z     vdW  Elec       q    Type
REMARK                         _______ _______ _______ _____ _____    ______ ____
ROOT
ATOM      1  C   UNL     1       5.901   4.546  17.933  0.00  0.00    +0.000 C 
ENDROOT
BRANCH   1   2
ATOM      2  O   UNL     1       7.219   4.048  18.195  0.00  0.00    +0.000 OA
ATOM      3  H   UNL     1       7.410   3.315  17.569  0.00  0.00    +0.000 HD
ENDBRANCH   1   2
BRANCH   1   4
ATOM      4  C   UNL     1       4.881   4.090  19.002  0.00  0.00    +0.000 C 
BRANCH   4  10
ATOM      5  C   UNL     1       3.335   1.509  18.249  0.00  0.00    +0.000 C 
ATOM      6  C   UNL     1       2.801   2.897  18.165  0.00  0.00    +0.000 A 
ATOM      7  N   UNL     1       1.576   3.184  17.766  0.00  0.00    +0.000 NA
ATOM      8  C   UNL     1       1.448   4.538  17.882  0.00  0.00    +0.000 A 
ATOM      9  C   UNL     1       2.610   5.087  18.359  0.00  0.00    +0.000 A 
ATOM     10  N   UNL     1       3.501   4.047  18.513  0.00  0.00    +0.000 N 
BRANCH   9  11
ATOM     11  N   UNL     1       2.843   6.460  18.639  0.00  0.00    +0.000 N 
ATOM     12  O   UNL     1       2.410   6.893  19.713  0.00  0.00    +0.000 OA
ATOM     13  O   UNL     1       3.441   7.135  17.787  0.00  0.00    +0.000 OA
ENDBRANCH   9  11
ENDBRANCH   4  10
ENDBRANCH   1   4
BRANCH   1  14
ATOM     14  C   UNL     1       5.508   4.219  16.476  0.00  0.00    +0.000 C 
BRANCH  14  15
ATOM     15  N   UNL     1       6.523   4.572  15.506  0.00  0.00    +0.000 N 
ATOM     16  N   UNL     1       7.425   5.522  15.818  0.00  0.00    +0.000 NA
ATOM     17  N   UNL     1       8.028   5.880  14.692  0.00  0.00    +0.000 NA
ATOM     18  C   UNL     1       7.518   5.119  13.674  0.00  0.00    +0.000 A 
ATOM     19  C   UNL     1       7.753   5.161  12.292  0.00  0.00    +0.000 A 
ATOM     20  C   UNL     1       7.064   4.261  11.468  0.00  0.00    +0.000 A 
ATOM     21  C   UNL     1       6.200   3.308  12.014  0.00  0.00    +0.000 A 
ATOM     22  C   UNL     1       5.953   3.254  13.393  0.00  0.00    +0.000 A 
ATOM     23  C   UNL     1       6.605   4.205  14.187  0.00  0.00    +0.000 A 
ENDBRANCH  14  15
ENDBRANCH   1  14
TORSDOF 6
ENDMDL
MODEL 5
REMARK VINA RESULT:      -7.2      0.984      1.275
REMARK  Name = 
REMARK  7 active torsions:
REMARK  status: ('A' for Active; 'I' for Inactive)
REMARK    1  A    between atoms: C_1  and  C_2
REMARK    2  A    between atoms: C_5  and  N_6
REMARK    3  A    between atoms: N_9  and  C_10
REMARK    4  A    between atoms: C_10  and  C_11
REMARK    5  A    between atoms: C_11  and  O_12
REMARK    6  A    between atoms: C_11  and  C_13
REMARK    7  A    between atoms: C_13  and  N_14
REMARK                            x       y       z     vdW  Elec       q    Type
REMARK                         _______ _______ _______ _____ _____    ______ ____
ROOT
ATOM      1  C   UNL     1       4.537   5.079  17.572  0.00  0.00    +0.000 C 
ENDROOT
BRANCH   1   2
ATOM      2  O   UNL     1       5.272   4.847  18.779  0.00  0.00    +0.000 OA
ATOM      3  H   UNL     1       5.578   3.913  18.787  0.00  0.00    +0.000 HD
ENDBRANCH   1   2
BRANCH   1   4
ATOM      4  C   UNL     1       3.016   5.194  17.825  0.00  0.00    +0.000 C 
BRANCH   4  10
ATOM      5  C   UNL     1       1.981   6.607  20.385  0.00  0.00    +0.000 C 
ATOM      6  C   UNL     1       2.115   5.136  20.199  0.00  0.00    +0.000 A 
ATOM      7  N   UNL     1       1.784   4.252  21.122  0.00  0.00    +0.000 NA
ATOM      8  C   UNL     1       1.993   3.024  20.562  0.00  0.00    +0.000 A 
ATOM      9  C   UNL     1       2.457   3.159  19.279  0.00  0.00    +0.000 A 
ATOM     10  N   UNL     1       2.573   4.512  19.044  0.00  0.00    +0.000 N 
BRANCH   9  11
ATOM     11  N   UNL     1       2.756   2.106  18.373  0.00  0.00    +0.000 N 
ATOM     12  O   UNL     1       2.056   2.027  17.357  0.00  0.00    +0.000 OA
ATOM     13  O   UNL     1       3.676   1.327  18.668  0.00  0.00    +0.000 OA
ENDBRANCH   9  11
ENDBRANCH   4  10
ENDBRANCH   1   4
BRANCH   1  14
ATOM     14  C   UNL     1       4.944   4.032  16.513  0.00  0.00    +0.000 C 
BRANCH  14  15
ATOM     15  N   UNL     1       6.095   4.419  15.724  0.00  0.00    +0.000 N 
ATOM     16  N   UNL     1       6.975   5.299  16.236  0.00  0.00    +0.000 NA
ATOM     17  N   UNL     1       7.740   5.720  15.238  0.00  0.00    +0.000 NA
ATOM     18  C   UNL     1       7.353   5.067  14.098  0.00  0.00    +0.000 A 
ATOM     19  C   UNL     1       7.779   5.210  12.770  0.00  0.00    +0.000 A 
ATOM     20  C   UNL     1       7.183   4.412  11.786  0.00  0.00    +0.000 A 
ATOM     21  C   UNL     1       6.220   3.457  12.125  0.00  0.00    +0.000 A 
ATOM     22  C   UNL     1       5.782   3.302  13.447  0.00  0.00    +0.000 A 
ATOM     23  C   UNL     1       6.348   4.156  14.401  0.00  0.00    +0.000 A 
ENDBRANCH  14  15
ENDBRANCH   1  14
TORSDOF 6
ENDMDL
MODEL 6
REMARK VINA RESULT:      -7.2      1.455      1.706
REMARK  Name = 
REMARK  7 active torsions:
REMARK  status: ('A' for Active; 'I' for Inactive)
REMARK    1  A    between atoms: C_1  and  C_2
REMARK    2  A    between atoms: C_5  and  N_6
REMARK    3  A    between atoms: N_9  and  C_10
REMARK    4  A    between atoms: C_10  and  C_11
REMARK    5  A    between atoms: C_11  and  O_12
REMARK    6  A    between atoms: C_11  and  C_13
REMARK    7  A    between atoms: C_13  and  N_14
REMARK                            x       y       z     vdW  Elec       q    Type
REMARK                         _______ _______ _______ _____ _____    ______ ____
ROOT
ATOM      1  C   UNL     1       5.078   4.923  18.270  0.00  0.00    +0.000 C 
ENDROOT
BRANCH   1   2
ATOM      2  O   UNL     1       5.926   3.818  18.606  0.00  0.00    +0.000 OA
ATOM      3  H   UNL     1       5.962   3.204  17.839  0.00  0.00    +0.000 HD
ENDBRANCH   1   2
BRANCH   1   4
ATOM      4  C   UNL     1       3.846   5.018  19.200  0.00  0.00    +0.000 C 
BRANCH   4  10
ATOM      5  C   UNL     1       1.433   4.970  17.252  0.00  0.00    +0.000 C 
ATOM      6  C   UNL     1       1.819   3.874  18.184  0.00  0.00    +0.000 A 
ATOM      7  N   UNL     1       1.170   2.728  18.271  0.00  0.00    +0.000 NA
ATOM      8  C   UNL     1       1.854   1.973  19.179  0.00  0.00    +0.000 A 
ATOM      9  C   UNL     1       2.938   2.665  19.653  0.00  0.00    +0.000 A 
ATOM     10  N   UNL     1       2.909   3.902  19.047  0.00  0.00    +0.000 N 
BRANCH   9  11
ATOM     11  N   UNL     1       3.901   2.193  20.585  0.00  0.00    +0.000 N 
ATOM     12  O   UNL     1       4.977   1.795  20.124  0.00  0.00    +0.000 OA
ATOM     13  O   UNL     1       3.595   2.189  21.787  0.00  0.00    +0.000 OA
ENDBRANCH   9  11
ENDBRANCH   4  10
ENDBRANCH   1   4
BRANCH   1  14
ATOM     14  C   UNL     1       4.754   4.882  16.761  0.00  0.00    +0.000 C 
BRANCH  14  15
ATOM     15  N   UNL     1       5.926   4.900  15.913  0.00  0.00    +0.000 N 
ATOM     16  N   UNL     1       6.989   5.641  16.279  0.00  0.00    +0.000 NA
ATOM     17  N   UNL     1       7.784   5.742  15.222  0.00  0.00    +0.000 NA
ATOM     18  C   UNL     1       7.225   5.027  14.196  0.00  0.00    +0.000 A 
ATOM     19  C   UNL     1       7.618   4.883  12.858  0.00  0.00    +0.000 A 
ATOM     20  C   UNL     1       6.831   4.092  12.011  0.00  0.00    +0.000 A 
ATOM     21  C   UNL     1       5.707   3.420  12.499  0.00  0.00    +0.000 A 
ATOM     22  C   UNL     1       5.299   3.555  13.832  0.00  0.00    +0.000 A 
ATOM     23  C   UNL     1       6.067   4.400  14.643  0.00  0.00    +0.000 A 
ENDBRANCH  14  15
ENDBRANCH   1  14
TORSDOF 6
ENDMDL
MODEL 7
REMARK VINA RESULT:      -7.1      0.912      1.191
REMARK  Name = 
REMARK  7 active torsions:
REMARK  status: ('A' for Active; 'I' for Inactive)
REMARK    1  A    between atoms: C_1  and  C_2
REMARK    2  A    between atoms: C_5  and  N_6
REMARK    3  A    between atoms: N_9  and  C_10
REMARK    4  A    between atoms: C_10  and  C_11
REMARK    5  A    between atoms: C_11  and  O_12
REMARK    6  A    between atoms: C_11  and  C_13
REMARK    7  A    between atoms: C_13  and  N_14
REMARK                            x       y       z     vdW  Elec       q    Type
REMARK                         _______ _______ _______ _____ _____    ______ ____
ROOT
ATOM      1  C   UNL     1       4.289   4.717  17.614  0.00  0.00    +0.000 C 
ENDROOT
BRANCH   1   2
ATOM      2  O   UNL     1       2.976   4.334  17.189  0.00  0.00    +0.000 OA
ATOM      3  H   UNL     1       2.848   3.379  17.380  0.00  0.00    +0.000 HD
ENDBRANCH   1   2
BRANCH   1   4
ATOM      4  C   UNL     1       4.346   5.034  19.126  0.00  0.00    +0.000 C 
BRANCH   4  10
ATOM      5  C   UNL     1       1.837   6.329  20.411  0.00  0.00    +0.000 C 
ATOM      6  C   UNL     1       2.214   4.891  20.500  0.00  0.00    +0.000 A 
ATOM      7  N   UNL     1       1.494   3.987  21.137  0.00  0.00    +0.000 NA
ATOM      8  C   UNL     1       2.129   2.794  20.945  0.00  0.00    +0.000 A 
ATOM      9  C   UNL     1       3.251   2.969  20.178  0.00  0.00    +0.000 A 
ATOM     10  N   UNL     1       3.337   4.319  19.912  0.00  0.00    +0.000 N 
BRANCH   9  11
ATOM     11  N   UNL     1       4.145   1.955  19.743  0.00  0.00    +0.000 N 
ATOM     12  O   UNL     1       3.834   1.336  18.719  0.00  0.00    +0.000 OA
ATOM     13  O   UNL     1       5.159   1.740  20.425  0.00  0.00    +0.000 OA
ENDBRANCH   9  11
ENDBRANCH   4  10
ENDBRANCH   1   4
BRANCH   1  14
ATOM     14  C   UNL     1       4.821   5.836  16.693  0.00  0.00    +0.000 C 
BRANCH  14  15
ATOM     15  N   UNL     1       5.931   5.426  15.859  0.00  0.00    +0.000 N 
ATOM     16  N   UNL     1       7.150   5.948  16.088  0.00  0.00    +0.000 NA
ATOM     17  N   UNL     1       7.904   5.671  15.033  0.00  0.00    +0.000 NA
ATOM     18  C   UNL     1       7.154   4.938  14.152  0.00  0.00    +0.000 A 
ATOM     19  C   UNL     1       7.448   4.472  12.863  0.00  0.00    +0.000 A 
ATOM     20  C   UNL     1       6.466   3.752  12.171  0.00  0.00    +0.000 A 
ATOM     21  C   UNL     1       5.236   3.461  12.768  0.00  0.00    +0.000 A 
ATOM     22  C   UNL     1       4.925   3.922  14.055  0.00  0.00    +0.000 A 
ATOM     23  C   UNL     1       5.900   4.691  14.701  0.00  0.00    +0.000 A 
ENDBRANCH  14  15
ENDBRANCH   1  14
TORSDOF 6
ENDMDL
MODEL 8
REMARK VINA RESULT:      -7.0      1.451      1.596
REMARK  Name = 
REMARK  7 active torsions:
REMARK  status: ('A' for Active; 'I' for Inactive)
REMARK    1  A    between atoms: C_1  and  C_2
REMARK    2  A    between atoms: C_5  and  N_6
REMARK    3  A    between atoms: N_9  and  C_10
REMARK    4  A    between atoms: C_10  and  C_11
REMARK    5  A    between atoms: C_11  and  O_12
REMARK    6  A    between atoms: C_11  and  C_13
REMARK    7  A    between atoms: C_13  and  N_14
REMARK                            x       y       z     vdW  Elec       q    Type
REMARK                         _______ _______ _______ _____ _____    ______ ____
ROOT
ATOM      1  C   UNL     1       4.234   3.355  17.482  0.00  0.00    +0.000 C 
ENDROOT
BRANCH   1   2
ATOM      2  O   UNL     1       2.983   2.657  17.497  0.00  0.00    +0.000 OA
ATOM      3  H   UNL     1       2.676   2.541  16.570  0.00  0.00    +0.000 HD
ENDBRANCH   1   2
BRANCH   1   4
ATOM      4  C   UNL     1       4.586   3.954  18.863  0.00  0.00    +0.000 C 
BRANCH   4  10
ATOM      5  C   UNL     1       3.865   6.926  18.347  0.00  0.00    +0.000 C 
ATOM      6  C   UNL     1       3.147   6.006  19.273  0.00  0.00    +0.000 A 
ATOM      7  N   UNL     1       2.089   6.361  19.979  0.00  0.00    +0.000 NA
ATOM      8  C   UNL     1       1.688   5.241  20.649  0.00  0.00    +0.000 A 
ATOM      9  C   UNL     1       2.510   4.187  20.348  0.00  0.00    +0.000 A 
ATOM     10  N   UNL     1       3.473   4.672  19.490  0.00  0.00    +0.000 N 
BRANCH   9  11
ATOM     11  N   UNL     1       2.387   2.855  20.828  0.00  0.00    +0.000 N 
ATOM     12  O   UNL     1       2.785   2.636  21.978  0.00  0.00    +0.000 OA
ATOM     13  O   UNL     1       1.914   2.001  20.062  0.00  0.00    +0.000 OA
ENDBRANCH   9  11
ENDBRANCH   4  10
ENDBRANCH   1   4
BRANCH   1  14
ATOM     14  C   UNL     1       4.247   4.362  16.313  0.00  0.00    +0.000 C 
BRANCH  14  15
ATOM     15  N   UNL     1       5.555   4.551  15.721  0.00  0.00    +0.000 N 
ATOM     16  N   UNL     1       6.470   5.289  16.376  0.00  0.00    +0.000 NA
ATOM     17  N   UNL     1       7.441   5.569  15.517  0.00  0.00    +0.000 NA
ATOM     18  C   UNL     1       7.142   4.969  14.322  0.00  0.00    +0.000 A 
ATOM     19  C   UNL     1       7.790   5.024  13.081  0.00  0.00    +0.000 A 
ATOM     20  C   UNL     1       7.239   4.315  12.006  0.00  0.00    +0.000 A 
ATOM     21  C   UNL     1       6.097   3.528  12.177  0.00  0.00    +0.000 A 
ATOM     22  C   UNL     1       5.436   3.464  13.411  0.00  0.00    +0.000 A 
ATOM     23  C   UNL     1       5.970   4.232  14.452  0.00  0.00    +0.000 A 
ENDBRANCH  14  15
ENDBRANCH   1  14
TORSDOF 6
ENDMDL
MODEL 9
REMARK VINA RESULT:      -6.9      3.258      6.577
REMARK  Name = 
REMARK  7 active torsions:
REMARK  status: ('A' for Active; 'I' for Inactive)
REMARK    1  A    between atoms: C_1  and  C_2
REMARK    2  A    between atoms: C_5  and  N_6
REMARK    3  A    between atoms: N_9  and  C_10
REMARK    4  A    between atoms: C_10  and  C_11
REMARK    5  A    between atoms: C_11  and  O_12
REMARK    6  A    between atoms: C_11  and  C_13
REMARK    7  A    between atoms: C_13  and  N_14
REMARK                            x       y       z     vdW  Elec       q    Type
REMARK                         _______ _______ _______ _____ _____    ______ ____
ROOT
ATOM      1  C   UNL     1       5.204   3.940  17.102  0.00  0.00    +0.000 C 
ENDROOT
BRANCH   1   2
ATOM      2  O   UNL     1       6.266   3.714  16.168  0.00  0.00    +0.000 OA
ATOM      3  H   UNL     1       6.923   3.107  16.577  0.00  0.00    +0.000 HD
ENDBRANCH   1   2
BRANCH   1   4
ATOM      4  C   UNL     1       5.702   4.612  18.402  0.00  0.00    +0.000 C 
BRANCH   4  10
ATOM      5  C   UNL     1       8.399   5.311  19.765  0.00  0.00    +0.000 C 
ATOM      6  C   UNL     1       7.675   6.165  18.783  0.00  0.00    +0.000 A 
ATOM      7  N   UNL     1       8.124   7.334  18.363  0.00  0.00    +0.000 NA
ATOM      8  C   UNL     1       7.222   7.774  17.437  0.00  0.00    +0.000 A 
ATOM      9  C   UNL     1       6.210   6.863  17.286  0.00  0.00    +0.000 A 
ATOM     10  N   UNL     1       6.470   5.838  18.171  0.00  0.00    +0.000 N 
BRANCH   9  11
ATOM     11  N   UNL     1       5.111   6.959  16.391  0.00  0.00    +0.000 N 
ATOM     12  O   UNL     1       5.335   6.706  15.202  0.00  0.00    +0.000 OA
ATOM     13  O   UNL     1       4.014   7.311  16.851  0.00  0.00    +0.000 OA
ENDBRANCH   9  11
ENDBRANCH   4  10
ENDBRANCH   1   4
BRANCH   1  14
ATOM     14  C   UNL     1       4.413   2.630  17.308  0.00  0.00    +0.000 C 
BRANCH  14  15
ATOM     15  N   UNL     1       3.082   2.830  17.839  0.00  0.00    +0.000 N 
ATOM     16  N   UNL     1       2.112   3.281  17.022  0.00  0.00    +0.000 NA
ATOM     17  N   UNL     1       1.100   3.672  17.787  0.00  0.00    +0.000 NA
ATOM     18  C   UNL     1       1.433   3.428  19.093  0.00  0.00    +0.000 A 
ATOM     19  C   UNL     1       0.757   3.730  20.283  0.00  0.00    +0.000 A 
ATOM     20  C   UNL     1       1.353   3.376  21.500  0.00  0.00    +0.000 A 
ATOM     21  C   UNL     1       2.571   2.691  21.529  0.00  0.00    +0.000 A 
ATOM     22  C   UNL     1       3.260   2.383  20.349  0.00  0.00    +0.000 A 
ATOM     23  C   UNL     1       2.674   2.803  19.149  0.00  0.00    +0.000 A 
ENDBRANCH  14  15
ENDBRANCH   1  14
TORSDOF 6
ENDMDL
