MODEL 1
REMARK VINA RESULT:      -7.3      0.000      0.000
REMARK  Name = 
REMARK  16 active torsions:
REMARK  status: ('A' for Active; 'I' for Inactive)
REMARK    1  A    between atoms: C_1  and  O_2
REMARK    2  A    between atoms: O_2  and  C_3
REMARK    3  A    between atoms: C_6  and  C_7
REMARK    4  A    between atoms: C_9  and  C_10
REMARK    5  A    between atoms: C_11  and  C_12
REMARK    6  A    between atoms: C_12  and  C_13
REMARK    7  A    between atoms: C_13  and  N_14
REMARK    8  A    between atoms: C_15  and  C_17
REMARK    9  A    between atoms: C_19  and  O_20
REMARK   10  A    between atoms: O_20  and  C_21
REMARK   11  A    between atoms: C_22  and  O_23
REMARK   12  A    between atoms: O_23  and  C_24
REMARK   13  A    between atoms: C_25  and  O_26
REMARK   14  A    between atoms: O_26  and  C_27
REMARK   15  A    between atoms: C_31  and  O_32
REMARK   16  A    between atoms: O_32  and  C_33
REMARK                            x       y       z     vdW  Elec       q    Type
REMARK                         _______ _______ _______ _____ _____    ______ ____
ROOT
ATOM      1  C   UNL     1       1.048   6.239  20.822  0.00  0.00    +0.000 C 
ENDROOT
BRANCH   1   6
ATOM      2  C   UNL     1       3.848   4.959  18.428  0.00  0.00    +0.000 A 
ATOM      3  N   UNL     1       3.592   3.933  19.208  0.00  0.00    +0.000 NA
ATOM      4  C   UNL     1       2.621   4.261  20.139  0.00  0.00    +0.000 A 
ATOM      5  C   UNL     1       2.307   3.250  21.181  0.00  0.00    +0.000 C 
ATOM      6  C   UNL     1       2.083   5.532  19.997  0.00  0.00    +0.000 A 
ATOM      7  S   UNL     1       2.852   6.324  18.687  0.00  0.00    +0.000 S 
BRANCH   2  11
ATOM      8  C   UNL     1       6.867   5.032  15.395  0.00  0.00    +0.000 A 
ATOM      9  C   UNL     1       5.900   4.012  15.434  0.00  0.00    +0.000 A 
ATOM     10  C   UNL     1       4.908   4.001  16.412  0.00  0.00    +0.000 A 
ATOM     11  C   UNL     1       4.887   4.985  17.401  0.00  0.00    +0.000 A 
ATOM     12  C   UNL     1       5.902   5.951  17.402  0.00  0.00    +0.000 A 
ATOM     13  C   UNL     1       6.895   5.988  16.417  0.00  0.00    +0.000 A 
BRANCH   8  15
ATOM     14  C   UNL     1       7.270   4.865  13.076  0.00  0.00    +0.000 C 
ATOM     15  O   UNL     1       7.792   5.088  14.389  0.00  0.00    +0.000 OA
ENDBRANCH   8  15
BRANCH  13  16
ATOM     16  O   UNL     1       7.757   7.026  16.627  0.00  0.00    +0.000 OA
ATOM     17  C   UNL     1       7.709   7.734  17.855  0.00  0.00    +0.000 C 
ENDBRANCH  13  16
ENDBRANCH   2  11
ENDBRANCH   1   6
BRANCH   1  18
ATOM     18  C   UNL     1       1.402   7.700  21.135  0.00  0.00    +0.000 C 
BRANCH  18  19
ATOM     19  N   UNL     1       0.302   8.613  20.930  0.00  0.00    +0.000 N 
ATOM     20  C   UNL     1       0.368   9.578  19.952  0.00  0.00    +0.000 C 
ATOM     21  O   UNL     1       1.294   9.644  19.141  0.00  0.00    +0.000 OA
ATOM     22  H   UNL     1      -0.334   8.744  21.707  0.00  0.00    +0.000 HD
BRANCH  20  23
ATOM     23  C   UNL     1      -0.713  10.583  19.924  0.00  0.00    +0.000 A 
ATOM     24  C   UNL     1      -0.940  11.313  21.084  0.00  0.00    +0.000 A 
ATOM     25  C   UNL     1      -1.927  12.297  21.122  0.00  0.00    +0.000 A 
ATOM     26  C   UNL     1      -2.738  12.522  19.986  0.00  0.00    +0.000 A 
ATOM     27  C   UNL     1      -2.528  11.762  18.813  0.00  0.00    +0.000 A 
ATOM     28  C   UNL     1      -1.492  10.819  18.787  0.00  0.00    +0.000 A 
BRANCH  25  29
ATOM     29  O   UNL     1      -2.159  13.059  22.243  0.00  0.00    +0.000 OA
ATOM     30  C   UNL     1      -2.769  12.377  23.340  0.00  0.00    +0.000 C 
ENDBRANCH  25  29
BRANCH  26  31
ATOM     31  O   UNL     1      -3.732  13.460  20.152  0.00  0.00    +0.000 OA
ATOM     32  C   UNL     1      -5.041  12.979  20.432  0.00  0.00    +0.000 C 
ENDBRANCH  26  31
BRANCH  27  33
ATOM     33  O   UNL     1      -3.363  11.957  17.744  0.00  0.00    +0.000 OA
ATOM     34  C   UNL     1      -4.002  10.827  17.161  0.00  0.00    +0.000 C 
ENDBRANCH  27  33
ENDBRANCH  20  23
ENDBRANCH  18  19
ENDBRANCH   1  18
TORSDOF 10
ENDMDL
MODEL 2
REMARK VINA RESULT:      -7.3      3.177     11.674
REMARK  Name = 
REMARK  16 active torsions:
REMARK  status: ('A' for Active; 'I' for Inactive)
REMARK    1  A    between atoms: C_1  and  O_2
REMARK    2  A    between atoms: O_2  and  C_3
REMARK    3  A    between atoms: C_6  and  C_7
REMARK    4  A    between atoms: C_9  and  C_10
REMARK    5  A    between atoms: C_11  and  C_12
REMARK    6  A    between atoms: C_12  and  C_13
REMARK    7  A    between atoms: C_13  and  N_14
REMARK    8  A    between atoms: C_15  and  C_17
REMARK    9  A    between atoms: C_19  and  O_20
REMARK   10  A    between atoms: O_20  and  C_21
REMARK   11  A    between atoms: C_22  and  O_23
REMARK   12  A    between atoms: O_23  and  C_24
REMARK   13  A    between atoms: C_25  and  O_26
REMARK   14  A    between atoms: O_26  and  C_27
REMARK   15  A    between atoms: C_31  and  O_32
REMARK   16  A    between atoms: O_32  and  C_33
REMARK                            x       y       z     vdW  Elec       q    Type
REMARK                         _______ _______ _______ _____ _____    ______ ____
ROOT
ATOM      1  C   UNL     1      -0.444  10.009  19.573  0.00  0.00    +0.000 C 
ENDROOT
BRANCH   1   6
ATOM      2  C   UNL     1      -1.446  12.338  22.536  0.00  0.00    +0.000 A 
ATOM      3  N   UNL     1      -0.690  11.416  23.088  0.00  0.00    +0.000 NA
ATOM      4  C   UNL     1      -0.282  10.493  22.141  0.00  0.00    +0.000 A 
ATOM      5  C   UNL     1       0.475   9.309  22.625  0.00  0.00    +0.000 C 
ATOM      6  C   UNL     1      -0.672  10.779  20.840  0.00  0.00    +0.000 A 
ATOM      7  S   UNL     1      -1.600  12.219  20.837  0.00  0.00    +0.000 S 
BRANCH   2  11
ATOM      8  C   UNL     1      -3.404  15.493  24.664  0.00  0.00    +0.000 A 
ATOM      9  C   UNL     1      -2.007  15.345  24.709  0.00  0.00    +0.000 A 
ATOM     10  C   UNL     1      -1.370  14.327  24.001  0.00  0.00    +0.000 A 
ATOM     11  C   UNL     1      -2.121  13.408  23.267  0.00  0.00    +0.000 A 
ATOM     12  C   UNL     1      -3.518  13.515  23.295  0.00  0.00    +0.000 A 
ATOM     13  C   UNL     1      -4.173  14.541  23.985  0.00  0.00    +0.000 A 
BRANCH   8  15
ATOM     14  C   UNL     1      -4.315  17.661  24.454  0.00  0.00    +0.000 C 
ATOM     15  O   UNL     1      -4.022  16.540  25.293  0.00  0.00    +0.000 OA
ENDBRANCH   8  15
BRANCH  13  16
ATOM     16  O   UNL     1      -5.528  14.439  23.848  0.00  0.00    +0.000 OA
ATOM     17  C   UNL     1      -6.101  13.187  23.514  0.00  0.00    +0.000 C 
ENDBRANCH  13  16
ENDBRANCH   2  11
ENDBRANCH   1   6
BRANCH   1  18
ATOM     18  C   UNL     1       1.022   9.997  19.115  0.00  0.00    +0.000 C 
BRANCH  18  19
ATOM     19  N   UNL     1       1.696   8.749  19.385  0.00  0.00    +0.000 N 
ATOM     20  C   UNL     1       2.317   8.058  18.371  0.00  0.00    +0.000 C 
ATOM     21  O   UNL     1       2.432   8.507  17.229  0.00  0.00    +0.000 OA
ATOM     22  H   UNL     1       1.416   8.249  20.220  0.00  0.00    +0.000 HD
BRANCH  20  23
ATOM     23  C   UNL     1       2.826   6.709  18.689  0.00  0.00    +0.000 A 
ATOM     24  C   UNL     1       3.762   6.157  17.824  0.00  0.00    +0.000 A 
ATOM     25  C   UNL     1       4.305   4.897  18.076  0.00  0.00    +0.000 A 
ATOM     26  C   UNL     1       3.865   4.154  19.195  0.00  0.00    +0.000 A 
ATOM     27  C   UNL     1       2.891   4.701  20.061  0.00  0.00    +0.000 A 
ATOM     28  C   UNL     1       2.405   5.991  19.814  0.00  0.00    +0.000 A 
BRANCH  25  29
ATOM     29  O   UNL     1       5.255   4.333  17.258  0.00  0.00    +0.000 OA
ATOM     30  C   UNL     1       5.220   4.744  15.891  0.00  0.00    +0.000 C 
ENDBRANCH  25  29
BRANCH  26  31
ATOM     31  O   UNL     1       4.406   2.892  19.311  0.00  0.00    +0.000 OA
ATOM     32  C   UNL     1       3.700   1.822  18.693  0.00  0.00    +0.000 C 
ENDBRANCH  26  31
BRANCH  27  33
ATOM     33  O   UNL     1       2.438   3.939  21.106  0.00  0.00    +0.000 OA
ATOM     34  C   UNL     1       1.220   3.220  20.948  0.00  0.00    +0.000 C 
ENDBRANCH  27  33
ENDBRANCH  20  23
ENDBRANCH  18  19
ENDBRANCH   1  18
TORSDOF 10
ENDMDL
MODEL 3
REMARK VINA RESULT:      -7.1      3.173     11.662
REMARK  Name = 
REMARK  16 active torsions:
REMARK  status: ('A' for Active; 'I' for Inactive)
REMARK    1  A    between atoms: C_1  and  O_2
REMARK    2  A    between atoms: O_2  and  C_3
REMARK    3  A    between atoms: C_6  and  C_7
REMARK    4  A    between atoms: C_9  and  C_10
REMARK    5  A    between atoms: C_11  and  C_12
REMARK    6  A    between atoms: C_12  and  C_13
REMARK    7  A    between atoms: C_13  and  N_14
REMARK    8  A    between atoms: C_15  and  C_17
REMARK    9  A    between atoms: C_19  and  O_20
REMARK   10  A    between atoms: O_20  and  C_21
REMARK   11  A    between atoms: C_22  and  O_23
REMARK   12  A    between atoms: O_23  and  C_24
REMARK   13  A    between atoms: C_25  and  O_26
REMARK   14  A    between atoms: O_26  and  C_27
REMARK   15  A    between atoms: C_31  and  O_32
REMARK   16  A    between atoms: O_32  and  C_33
REMARK                            x       y       z     vdW  Elec       q    Type
REMARK                         _______ _______ _______ _____ _____    ______ ____
ROOT
ATOM      1  C   UNL     1       1.067  10.974  20.193  0.00  0.00    +0.000 C 
ENDROOT
BRANCH   1   6
ATOM      2  C   UNL     1      -1.880  12.242  22.410  0.00  0.00    +0.000 A 
ATOM      3  N   UNL     1      -1.416  11.194  23.053  0.00  0.00    +0.000 NA
ATOM      4  C   UNL     1      -0.369  10.620  22.352  0.00  0.00    +0.000 A 
ATOM      5  C   UNL     1       0.185   9.346  22.879  0.00  0.00    +0.000 C 
ATOM      6  C   UNL     1       0.010  11.303  21.206  0.00  0.00    +0.000 A 
ATOM      7  S   UNL     1      -1.005  12.667  21.004  0.00  0.00    +0.000 S 
BRANCH   2  11
ATOM      8  C   UNL     1      -5.304  14.505  23.623  0.00  0.00    +0.000 A 
ATOM      9  C   UNL     1      -5.397  13.532  22.613  0.00  0.00    +0.000 A 
ATOM     10  C   UNL     1      -4.285  12.784  22.232  0.00  0.00    +0.000 A 
ATOM     11  C   UNL     1      -3.043  13.024  22.822  0.00  0.00    +0.000 A 
ATOM     12  C   UNL     1      -2.943  14.052  23.770  0.00  0.00    +0.000 A 
ATOM     13  C   UNL     1      -4.053  14.799  24.177  0.00  0.00    +0.000 A 
BRANCH   8  15
ATOM     14  C   UNL     1      -7.215  15.748  23.013  0.00  0.00    +0.000 C 
ATOM     15  O   UNL     1      -6.413  15.182  24.053  0.00  0.00    +0.000 OA
ENDBRANCH   8  15
BRANCH  13  16
ATOM     16  O   UNL     1      -3.703  15.727  25.117  0.00  0.00    +0.000 OA
ATOM     17  C   UNL     1      -2.336  15.905  25.444  0.00  0.00    +0.000 C 
ENDBRANCH  13  16
ENDBRANCH   2  11
ENDBRANCH   1   6
BRANCH   1  18
ATOM     18  C   UNL     1       0.678   9.828  19.247  0.00  0.00    +0.000 C 
BRANCH  18  19
ATOM     19  N   UNL     1       1.411   8.609  19.493  0.00  0.00    +0.000 N 
ATOM     20  C   UNL     1       2.203   8.060  18.511  0.00  0.00    +0.000 C 
ATOM     21  O   UNL     1       2.419   8.623  17.436  0.00  0.00    +0.000 OA
ATOM     22  H   UNL     1       1.071   8.013  20.239  0.00  0.00    +0.000 HD
BRANCH  20  23
ATOM     23  C   UNL     1       2.774   6.724  18.774  0.00  0.00    +0.000 A 
ATOM     24  C   UNL     1       3.764   6.270  17.913  0.00  0.00    +0.000 A 
ATOM     25  C   UNL     1       4.366   5.028  18.115  0.00  0.00    +0.000 A 
ATOM     26  C   UNL     1       3.934   4.203  19.178  0.00  0.00    +0.000 A 
ATOM     27  C   UNL     1       2.906   4.651  20.040  0.00  0.00    +0.000 A 
ATOM     28  C   UNL     1       2.359   5.926  19.845  0.00  0.00    +0.000 A 
BRANCH  25  29
ATOM     29  O   UNL     1       5.369   4.559  17.300  0.00  0.00    +0.000 OA
ATOM     30  C   UNL     1       4.997   4.300  15.946  0.00  0.00    +0.000 C 
ENDBRANCH  25  29
BRANCH  26  31
ATOM     31  O   UNL     1       4.537   2.968  19.245  0.00  0.00    +0.000 OA
ATOM     32  C   UNL     1       3.795   1.853  18.766  0.00  0.00    +0.000 C 
ENDBRANCH  26  31
BRANCH  27  33
ATOM     33  O   UNL     1       2.463   3.811  21.028  0.00  0.00    +0.000 OA
ATOM     34  C   UNL     1       1.141   3.293  20.941  0.00  0.00    +0.000 C 
ENDBRANCH  27  33
ENDBRANCH  20  23
ENDBRANCH  18  19
ENDBRANCH   1  18
TORSDOF 10
ENDMDL
MODEL 4
REMARK VINA RESULT:      -7.1      1.732      1.904
REMARK  Name = 
REMARK  16 active torsions:
REMARK  status: ('A' for Active; 'I' for Inactive)
REMARK    1  A    between atoms: C_1  and  O_2
REMARK    2  A    between atoms: O_2  and  C_3
REMARK    3  A    between atoms: C_6  and  C_7
REMARK    4  A    between atoms: C_9  and  C_10
REMARK    5  A    between atoms: C_11  and  C_12
REMARK    6  A    between atoms: C_12  and  C_13
REMARK    7  A    between atoms: C_13  and  N_14
REMARK    8  A    between atoms: C_15  and  C_17
REMARK    9  A    between atoms: C_19  and  O_20
REMARK   10  A    between atoms: O_20  and  C_21
REMARK   11  A    between atoms: C_22  and  O_23
REMARK   12  A    between atoms: O_23  and  C_24
REMARK   13  A    between atoms: C_25  and  O_26
REMARK   14  A    between atoms: O_26  and  C_27
REMARK   15  A    between atoms: C_31  and  O_32
REMARK   16  A    between atoms: O_32  and  C_33
REMARK                            x       y       z     vdW  Elec       q    Type
REMARK                         _______ _______ _______ _____ _____    ______ ____
ROOT
ATOM      1  C   UNL     1       0.931   6.913  21.049  0.00  0.00    +0.000 C 
ENDROOT
BRANCH   1   6
ATOM      2  C   UNL     1       3.473   5.402  18.506  0.00  0.00    +0.000 A 
ATOM      3  N   UNL     1       2.849   4.357  19.002  0.00  0.00    +0.000 NA
ATOM      4  C   UNL     1       1.923   4.752  19.953  0.00  0.00    +0.000 A 
ATOM      5  C   UNL     1       1.221   3.680  20.705  0.00  0.00    +0.000 C 
ATOM      6  C   UNL     1       1.796   6.125  20.109  0.00  0.00    +0.000 A 
ATOM      7  S   UNL     1       2.896   6.913  19.059  0.00  0.00    +0.000 S 
BRANCH   2  11
ATOM      8  C   UNL     1       6.683   5.213  15.681  0.00  0.00    +0.000 A 
ATOM      9  C   UNL     1       5.533   4.419  15.528  0.00  0.00    +0.000 A 
ATOM     10  C   UNL     1       4.481   4.496  16.439  0.00  0.00    +0.000 A 
ATOM     11  C   UNL     1       4.576   5.335  17.550  0.00  0.00    +0.000 A 
ATOM     12  C   UNL     1       5.760   6.061  17.738  0.00  0.00    +0.000 A 
ATOM     13  C   UNL     1       6.818   6.010  16.823  0.00  0.00    +0.000 A 
BRANCH   8  15
ATOM     14  C   UNL     1       7.266   4.814  13.429  0.00  0.00    +0.000 C 
ATOM     15  O   UNL     1       7.680   5.197  14.744  0.00  0.00    +0.000 OA
ENDBRANCH   8  15
BRANCH  13  16
ATOM     16  O   UNL     1       7.849   6.813  17.219  0.00  0.00    +0.000 OA
ATOM     17  C   UNL     1       7.586   8.160  17.573  0.00  0.00    +0.000 C 
ENDBRANCH  13  16
ENDBRANCH   2  11
ENDBRANCH   1   6
BRANCH   1  18
ATOM     18  C   UNL     1       1.630   8.144  21.644  0.00  0.00    +0.000 C 
BRANCH  18  19
ATOM     19  N   UNL     1       0.922   9.378  21.401  0.00  0.00    +0.000 N 
ATOM     20  C   UNL     1       0.283  10.030  22.429  0.00  0.00    +0.000 C 
ATOM     21  O   UNL     1       0.374   9.672  23.606  0.00  0.00    +0.000 OA
ATOM     22  H   UNL     1       0.627   9.556  20.448  0.00  0.00    +0.000 HD
BRANCH  20  23
ATOM     23  C   UNL     1      -0.567  11.183  22.071  0.00  0.00    +0.000 A 
ATOM     24  C   UNL     1      -1.412  11.686  23.052  0.00  0.00    +0.000 A 
ATOM     25  C   UNL     1      -2.225  12.788  22.793  0.00  0.00    +0.000 A 
ATOM     26  C   UNL     1      -2.226  13.373  21.506  0.00  0.00    +0.000 A 
ATOM     27  C   UNL     1      -1.388  12.846  20.496  0.00  0.00    +0.000 A 
ATOM     28  C   UNL     1      -0.542  11.772  20.803  0.00  0.00    +0.000 A 
BRANCH  25  29
ATOM     29  O   UNL     1      -3.051  13.331  23.749  0.00  0.00    +0.000 OA
ATOM     30  C   UNL     1      -4.033  12.447  24.293  0.00  0.00    +0.000 C 
ENDBRANCH  25  29
BRANCH  26  31
ATOM     31  O   UNL     1      -3.119  14.406  21.331  0.00  0.00    +0.000 OA
ATOM     32  C   UNL     1      -2.595  15.729  21.348  0.00  0.00    +0.000 C 
ENDBRANCH  26  31
BRANCH  27  33
ATOM     33  O   UNL     1      -1.448  13.391  19.240  0.00  0.00    +0.000 OA
ATOM     34  C   UNL     1      -0.264  13.949  18.681  0.00  0.00    +0.000 C 
ENDBRANCH  27  33
ENDBRANCH  20  23
ENDBRANCH  18  19
ENDBRANCH   1  18
TORSDOF 10
ENDMDL
MODEL 5
REMARK VINA RESULT:      -7.0      2.727     11.478
REMARK  Name = 
REMARK  16 active torsions:
REMARK  status: ('A' for Active; 'I' for Inactive)
REMARK    1  A    between atoms: C_1  and  O_2
REMARK    2  A    between atoms: O_2  and  C_3
REMARK    3  A    between atoms: C_6  and  C_7
REMARK    4  A    between atoms: C_9  and  C_10
REMARK    5  A    between atoms: C_11  and  C_12
REMARK    6  A    between atoms: C_12  and  C_13
REMARK    7  A    between atoms: C_13  and  N_14
REMARK    8  A    between atoms: C_15  and  C_17
REMARK    9  A    between atoms: C_19  and  O_20
REMARK   10  A    between atoms: O_20  and  C_21
REMARK   11  A    between atoms: C_22  and  O_23
REMARK   12  A    between atoms: O_23  and  C_24
REMARK   13  A    between atoms: C_25  and  O_26
REMARK   14  A    between atoms: O_26  and  C_27
REMARK   15  A    between atoms: C_31  and  O_32
REMARK   16  A    between atoms: O_32  and  C_33
REMARK                            x       y       z     vdW  Elec       q    Type
REMARK                         _______ _______ _______ _____ _____    ______ ____
ROOT
ATOM      1  C   UNL     1       1.514   9.073  21.646  0.00  0.00    +0.000 C 
ENDROOT
BRANCH   1   6
ATOM      2  C   UNL     1      -1.210  11.854  21.884  0.00  0.00    +0.000 A 
ATOM      3  N   UNL     1      -0.609  12.085  20.738  0.00  0.00    +0.000 NA
ATOM      4  C   UNL     1       0.415  11.174  20.537  0.00  0.00    +0.000 A 
ATOM      5  C   UNL     1       1.281  11.376  19.346  0.00  0.00    +0.000 C 
ATOM      6  C   UNL     1       0.525  10.193  21.512  0.00  0.00    +0.000 A 
ATOM      7  S   UNL     1      -0.666  10.462  22.714  0.00  0.00    +0.000 S 
BRANCH   2  11
ATOM      8  C   UNL     1      -4.337  14.264  23.536  0.00  0.00    +0.000 A 
ATOM      9  C   UNL     1      -4.510  13.586  22.316  0.00  0.00    +0.000 A 
ATOM     10  C   UNL     1      -3.496  12.788  21.790  0.00  0.00    +0.000 A 
ATOM     11  C   UNL     1      -2.271  12.685  22.449  0.00  0.00    +0.000 A 
ATOM     12  C   UNL     1      -2.079  13.430  23.621  0.00  0.00    +0.000 A 
ATOM     13  C   UNL     1      -3.092  14.221  24.174  0.00  0.00    +0.000 A 
BRANCH   8  15
ATOM     14  C   UNL     1      -6.673  14.532  23.748  0.00  0.00    +0.000 C 
ATOM     15  O   UNL     1      -5.360  14.983  24.093  0.00  0.00    +0.000 OA
ENDBRANCH   8  15
BRANCH  13  16
ATOM     16  O   UNL     1      -2.669  14.832  25.319  0.00  0.00    +0.000 OA
ATOM     17  C   UNL     1      -1.499  15.633  25.290  0.00  0.00    +0.000 C 
ENDBRANCH  13  16
ENDBRANCH   2  11
ENDBRANCH   1   6
BRANCH   1  18
ATOM     18  C   UNL     1       1.099   7.794  20.903  0.00  0.00    +0.000 C 
BRANCH  18  19
ATOM     19  N   UNL     1       2.197   7.143  20.229  0.00  0.00    +0.000 N 
ATOM     20  C   UNL     1       2.364   7.282  18.871  0.00  0.00    +0.000 C 
ATOM     21  O   UNL     1       1.676   8.044  18.189  0.00  0.00    +0.000 OA
ATOM     22  H   UNL     1       2.610   6.343  20.695  0.00  0.00    +0.000 HD
BRANCH  20  23
ATOM     23  C   UNL     1       3.397   6.444  18.230  0.00  0.00    +0.000 A 
ATOM     24  C   UNL     1       4.502   7.090  17.690  0.00  0.00    +0.000 A 
ATOM     25  C   UNL     1       5.529   6.360  17.091  0.00  0.00    +0.000 A 
ATOM     26  C   UNL     1       5.423   4.954  16.990  0.00  0.00    +0.000 A 
ATOM     27  C   UNL     1       4.287   4.296  17.513  0.00  0.00    +0.000 A 
ATOM     28  C   UNL     1       3.298   5.051  18.158  0.00  0.00    +0.000 A 
BRANCH  25  29
ATOM     29  O   UNL     1       6.650   6.964  16.573  0.00  0.00    +0.000 OA
ATOM     30  C   UNL     1       7.593   7.446  17.531  0.00  0.00    +0.000 C 
ENDBRANCH  25  29
BRANCH  26  31
ATOM     31  O   UNL     1       6.452   4.336  16.314  0.00  0.00    +0.000 OA
ATOM     32  C   UNL     1       6.264   4.092  14.925  0.00  0.00    +0.000 C 
ENDBRANCH  26  31
BRANCH  27  33
ATOM     33  O   UNL     1       4.180   2.939  17.352  0.00  0.00    +0.000 OA
ATOM     34  C   UNL     1       3.254   2.227  18.165  0.00  0.00    +0.000 C 
ENDBRANCH  27  33
ENDBRANCH  20  23
ENDBRANCH  18  19
ENDBRANCH   1  18
TORSDOF 10
ENDMDL
MODEL 6
REMARK VINA RESULT:      -6.9      2.341      4.136
REMARK  Name = 
REMARK  16 active torsions:
REMARK  status: ('A' for Active; 'I' for Inactive)
REMARK    1  A    between atoms: C_1  and  O_2
REMARK    2  A    between atoms: O_2  and  C_3
REMARK    3  A    between atoms: C_6  and  C_7
REMARK    4  A    between atoms: C_9  and  C_10
REMARK    5  A    between atoms: C_11  and  C_12
REMARK    6  A    between atoms: C_12  and  C_13
REMARK    7  A    between atoms: C_13  and  N_14
REMARK    8  A    between atoms: C_15  and  C_17
REMARK    9  A    between atoms: C_19  and  O_20
REMARK   10  A    between atoms: O_20  and  C_21
REMARK   11  A    between atoms: C_22  and  O_23
REMARK   12  A    between atoms: O_23  and  C_24
REMARK   13  A    between atoms: C_25  and  O_26
REMARK   14  A    between atoms: O_26  and  C_27
REMARK   15  A    between atoms: C_31  and  O_32
REMARK   16  A    between atoms: O_32  and  C_33
REMARK                            x       y       z     vdW  Elec       q    Type
REMARK                         _______ _______ _______ _____ _____    ______ ____
ROOT
ATOM      1  C   UNL     1       0.257  10.555  19.299  0.00  0.00    +0.000 C 
ENDROOT
BRANCH   1   6
ATOM      2  C   UNL     1       2.574   7.491  18.627  0.00  0.00    +0.000 A 
ATOM      3  N   UNL     1       2.169   7.327  19.866  0.00  0.00    +0.000 NA
ATOM      4  C   UNL     1       1.349   8.374  20.251  0.00  0.00    +0.000 A 
ATOM      5  C   UNL     1       0.909   8.409  21.669  0.00  0.00    +0.000 C 
ATOM      6  C   UNL     1       1.070   9.295  19.250  0.00  0.00    +0.000 A 
ATOM      7  S   UNL     1       1.893   8.836  17.820  0.00  0.00    +0.000 S 
BRANCH   2  11
ATOM      8  C   UNL     1       5.334   4.927  16.595  0.00  0.00    +0.000 A 
ATOM      9  C   UNL     1       4.129   4.427  17.120  0.00  0.00    +0.000 A 
ATOM     10  C   UNL     1       3.224   5.268  17.765  0.00  0.00    +0.000 A 
ATOM     11  C   UNL     1       3.524   6.619  17.940  0.00  0.00    +0.000 A 
ATOM     12  C   UNL     1       4.763   7.091  17.487  0.00  0.00    +0.000 A 
ATOM     13  C   UNL     1       5.676   6.265  16.820  0.00  0.00    +0.000 A 
BRANCH   8  15
ATOM     14  C   UNL     1       5.972   4.104  14.477  0.00  0.00    +0.000 C 
ATOM     15  O   UNL     1       6.185   4.119  15.892  0.00  0.00    +0.000 OA
ENDBRANCH   8  15
BRANCH  13  16
ATOM     16  O   UNL     1       6.798   6.959  16.466  0.00  0.00    +0.000 OA
ATOM     17  C   UNL     1       7.567   7.599  17.470  0.00  0.00    +0.000 C 
ENDBRANCH  13  16
ENDBRANCH   2  11
ENDBRANCH   1   6
BRANCH   1  18
ATOM     18  C   UNL     1       0.839  11.627  20.233  0.00  0.00    +0.000 C 
BRANCH  18  19
ATOM     19  N   UNL     1      -0.168  12.465  20.840  0.00  0.00    +0.000 N 
ATOM     20  C   UNL     1      -0.654  12.176  22.093  0.00  0.00    +0.000 C 
ATOM     21  O   UNL     1      -0.189  11.279  22.800  0.00  0.00    +0.000 OA
ATOM     22  H   UNL     1      -0.728  13.032  20.215  0.00  0.00    +0.000 HD
BRANCH  20  23
ATOM     23  C   UNL     1      -1.805  12.969  22.569  0.00  0.00    +0.000 A 
ATOM     24  C   UNL     1      -2.911  13.059  21.733  0.00  0.00    +0.000 A 
ATOM     25  C   UNL     1      -4.044  13.770  22.127  0.00  0.00    +0.000 A 
ATOM     26  C   UNL     1      -4.051  14.446  23.369  0.00  0.00    +0.000 A 
ATOM     27  C   UNL     1      -2.916  14.380  24.210  0.00  0.00    +0.000 A 
ATOM     28  C   UNL     1      -1.815  13.613  23.810  0.00  0.00    +0.000 A 
BRANCH  25  29
ATOM     29  O   UNL     1      -5.167  13.855  21.338  0.00  0.00    +0.000 OA
ATOM     30  C   UNL     1      -5.891  12.637  21.160  0.00  0.00    +0.000 C 
ENDBRANCH  25  29
BRANCH  26  31
ATOM     31  O   UNL     1      -5.186  15.181  23.630  0.00  0.00    +0.000 OA
ATOM     32  C   UNL     1      -5.136  16.576  23.352  0.00  0.00    +0.000 C 
ENDBRANCH  26  31
BRANCH  27  33
ATOM     33  O   UNL     1      -2.924  15.091  25.382  0.00  0.00    +0.000 OA
ATOM     34  C   UNL     1      -1.724  15.730  25.800  0.00  0.00    +0.000 C 
ENDBRANCH  27  33
ENDBRANCH  20  23
ENDBRANCH  18  19
ENDBRANCH   1  18
TORSDOF 10
ENDMDL
MODEL 7
REMARK VINA RESULT:      -6.9      2.634     11.470
REMARK  Name = 
REMARK  16 active torsions:
REMARK  status: ('A' for Active; 'I' for Inactive)
REMARK    1  A    between atoms: C_1  and  O_2
REMARK    2  A    between atoms: O_2  and  C_3
REMARK    3  A    between atoms: C_6  and  C_7
REMARK    4  A    between atoms: C_9  and  C_10
REMARK    5  A    between atoms: C_11  and  C_12
REMARK    6  A    between atoms: C_12  and  C_13
REMARK    7  A    between atoms: C_13  and  N_14
REMARK    8  A    between atoms: C_15  and  C_17
REMARK    9  A    between atoms: C_19  and  O_20
REMARK   10  A    between atoms: O_20  and  C_21
REMARK   11  A    between atoms: C_22  and  O_23
REMARK   12  A    between atoms: O_23  and  C_24
REMARK   13  A    between atoms: C_25  and  O_26
REMARK   14  A    between atoms: O_26  and  C_27
REMARK   15  A    between atoms: C_31  and  O_32
REMARK   16  A    between atoms: O_32  and  C_33
REMARK                            x       y       z     vdW  Elec       q    Type
REMARK                         _______ _______ _______ _____ _____    ______ ____
ROOT
ATOM      1  C   UNL     1       1.482   8.873  21.617  0.00  0.00    +0.000 C 
ENDROOT
BRANCH   1   6
ATOM      2  C   UNL     1      -1.153  11.742  21.807  0.00  0.00    +0.000 A 
ATOM      3  N   UNL     1      -0.631  11.859  20.607  0.00  0.00    +0.000 NA
ATOM      4  C   UNL     1       0.354  10.906  20.412  0.00  0.00    +0.000 A 
ATOM      5  C   UNL     1       1.137  10.983  19.151  0.00  0.00    +0.000 C 
ATOM      6  C   UNL     1       0.512  10.007  21.458  0.00  0.00    +0.000 A 
ATOM      7  S   UNL     1      -0.583  10.409  22.712  0.00  0.00    +0.000 S 
BRANCH   2  11
ATOM      8  C   UNL     1      -4.065  14.389  23.491  0.00  0.00    +0.000 A 
ATOM      9  C   UNL     1      -3.914  13.076  23.970  0.00  0.00    +0.000 A 
ATOM     10  C   UNL     1      -2.953  12.222  23.432  0.00  0.00    +0.000 A 
ATOM     11  C   UNL     1      -2.152  12.648  22.372  0.00  0.00    +0.000 A 
ATOM     12  C   UNL     1      -2.365  13.929  21.847  0.00  0.00    +0.000 A 
ATOM     13  C   UNL     1      -3.313  14.806  22.387  0.00  0.00    +0.000 A 
BRANCH   8  15
ATOM     14  C   UNL     1      -4.358  16.298  24.847  0.00  0.00    +0.000 C 
ATOM     15  O   UNL     1      -4.953  15.253  24.072  0.00  0.00    +0.000 OA
ENDBRANCH   8  15
BRANCH  13  16
ATOM     16  O   UNL     1      -3.321  15.995  21.715  0.00  0.00    +0.000 OA
ATOM     17  C   UNL     1      -4.310  16.228  20.726  0.00  0.00    +0.000 C 
ENDBRANCH  13  16
ENDBRANCH   2  11
ENDBRANCH   1   6
BRANCH   1  18
ATOM     18  C   UNL     1       1.096   7.617  20.823  0.00  0.00    +0.000 C 
BRANCH  18  19
ATOM     19  N   UNL     1       2.215   6.992  20.159  0.00  0.00    +0.000 N 
ATOM     20  C   UNL     1       2.417   7.176  18.811  0.00  0.00    +0.000 C 
ATOM     21  O   UNL     1       1.742   7.955  18.134  0.00  0.00    +0.000 OA
ATOM     22  H   UNL     1       2.621   6.181  20.610  0.00  0.00    +0.000 HD
BRANCH  20  23
ATOM     23  C   UNL     1       3.471   6.364  18.171  0.00  0.00    +0.000 A 
ATOM     24  C   UNL     1       4.570   7.036  17.650  0.00  0.00    +0.000 A 
ATOM     25  C   UNL     1       5.616   6.332  17.054  0.00  0.00    +0.000 A 
ATOM     26  C   UNL     1       5.538   4.925  16.936  0.00  0.00    +0.000 A 
ATOM     27  C   UNL     1       4.408   4.241  17.440  0.00  0.00    +0.000 A 
ATOM     28  C   UNL     1       3.399   4.970  18.083  0.00  0.00    +0.000 A 
BRANCH  25  29
ATOM     29  O   UNL     1       6.732   6.961  16.555  0.00  0.00    +0.000 OA
ATOM     30  C   UNL     1       7.605   7.536  17.527  0.00  0.00    +0.000 C 
ENDBRANCH  25  29
BRANCH  26  31
ATOM     31  O   UNL     1       6.584   4.333  16.265  0.00  0.00    +0.000 OA
ATOM     32  C   UNL     1       6.425   4.123  14.867  0.00  0.00    +0.000 C 
ENDBRANCH  26  31
BRANCH  27  33
ATOM     33  O   UNL     1       4.327   2.884  17.263  0.00  0.00    +0.000 OA
ATOM     34  C   UNL     1       3.364   2.154  18.015  0.00  0.00    +0.000 C 
ENDBRANCH  27  33
ENDBRANCH  20  23
ENDBRANCH  18  19
ENDBRANCH   1  18
TORSDOF 10
ENDMDL
MODEL 8
REMARK VINA RESULT:      -6.9      2.533      4.547
REMARK  Name = 
REMARK  16 active torsions:
REMARK  status: ('A' for Active; 'I' for Inactive)
REMARK    1  A    between atoms: C_1  and  O_2
REMARK    2  A    between atoms: O_2  and  C_3
REMARK    3  A    between atoms: C_6  and  C_7
REMARK    4  A    between atoms: C_9  and  C_10
REMARK    5  A    between atoms: C_11  and  C_12
REMARK    6  A    between atoms: C_12  and  C_13
REMARK    7  A    between atoms: C_13  and  N_14
REMARK    8  A    between atoms: C_15  and  C_17
REMARK    9  A    between atoms: C_19  and  O_20
REMARK   10  A    between atoms: O_20  and  C_21
REMARK   11  A    between atoms: C_22  and  O_23
REMARK   12  A    between atoms: O_23  and  C_24
REMARK   13  A    between atoms: C_25  and  O_26
REMARK   14  A    between atoms: O_26  and  C_27
REMARK   15  A    between atoms: C_31  and  O_32
REMARK   16  A    between atoms: O_32  and  C_33
REMARK                            x       y       z     vdW  Elec       q    Type
REMARK                         _______ _______ _______ _____ _____    ______ ____
ROOT
ATOM      1  C   UNL     1       0.394  10.646  19.500  0.00  0.00    +0.000 C 
ENDROOT
BRANCH   1   6
ATOM      2  C   UNL     1       2.497   7.465  18.681  0.00  0.00    +0.000 A 
ATOM      3  N   UNL     1       2.146   7.309  19.938  0.00  0.00    +0.000 NA
ATOM      4  C   UNL     1       1.407   8.396  20.373  0.00  0.00    +0.000 A 
ATOM      5  C   UNL     1       1.041   8.437  21.813  0.00  0.00    +0.000 C 
ATOM      6  C   UNL     1       1.131   9.343  19.398  0.00  0.00    +0.000 A 
ATOM      7  S   UNL     1       1.854   8.857  17.923  0.00  0.00    +0.000 S 
BRANCH   2  11
ATOM      8  C   UNL     1       5.055   4.802  16.517  0.00  0.00    +0.000 A 
ATOM      9  C   UNL     1       5.176   6.196  16.381  0.00  0.00    +0.000 A 
ATOM     10  C   UNL     1       4.354   7.061  17.101  0.00  0.00    +0.000 A 
ATOM     11  C   UNL     1       3.362   6.551  17.938  0.00  0.00    +0.000 A 
ATOM     12  C   UNL     1       3.194   5.161  18.005  0.00  0.00    +0.000 A 
ATOM     13  C   UNL     1       4.023   4.277  17.304  0.00  0.00    +0.000 A 
BRANCH   8  15
ATOM     14  C   UNL     1       7.024   4.590  15.234  0.00  0.00    +0.000 C 
ATOM     15  O   UNL     1       5.914   3.953  15.873  0.00  0.00    +0.000 OA
ENDBRANCH   8  15
BRANCH  13  16
ATOM     16  O   UNL     1       3.670   2.980  17.543  0.00  0.00    +0.000 OA
ATOM     17  C   UNL     1       3.343   2.578  18.862  0.00  0.00    +0.000 C 
ENDBRANCH  13  16
ENDBRANCH   2  11
ENDBRANCH   1   6
BRANCH   1  18
ATOM     18  C   UNL     1       0.955  11.588  20.575  0.00  0.00    +0.000 C 
BRANCH  18  19
ATOM     19  N   UNL     1      -0.039  12.468  21.141  0.00  0.00    +0.000 N 
ATOM     20  C   UNL     1      -0.635  12.167  22.343  0.00  0.00    +0.000 C 
ATOM     21  O   UNL     1      -0.282  11.216  23.044  0.00  0.00    +0.000 OA
ATOM     22  H   UNL     1      -0.514  13.094  20.501  0.00  0.00    +0.000 HD
BRANCH  20  23
ATOM     23  C   UNL     1      -1.766  13.017  22.766  0.00  0.00    +0.000 A 
ATOM     24  C   UNL     1      -2.902  13.017  21.965  0.00  0.00    +0.000 A 
ATOM     25  C   UNL     1      -4.018  13.776  22.316  0.00  0.00    +0.000 A 
ATOM     26  C   UNL     1      -3.978  14.590  23.472  0.00  0.00    +0.000 A 
ATOM     27  C   UNL     1      -2.814  14.614  24.273  0.00  0.00    +0.000 A 
ATOM     28  C   UNL     1      -1.729  13.798  23.925  0.00  0.00    +0.000 A 
BRANCH  25  29
ATOM     29  O   UNL     1      -5.169  13.777  21.564  0.00  0.00    +0.000 OA
ATOM     30  C   UNL     1      -5.649  12.493  21.165  0.00  0.00    +0.000 C 
ENDBRANCH  25  29
BRANCH  26  31
ATOM     31  O   UNL     1      -5.101  15.357  23.688  0.00  0.00    +0.000 OA
ATOM     32  C   UNL     1      -5.006  16.747  23.396  0.00  0.00    +0.000 C 
ENDBRANCH  26  31
BRANCH  27  33
ATOM     33  O   UNL     1      -2.777  15.454  25.355  0.00  0.00    +0.000 OA
ATOM     34  C   UNL     1      -1.520  15.727  25.964  0.00  0.00    +0.000 C 
ENDBRANCH  27  33
ENDBRANCH  20  23
ENDBRANCH  18  19
ENDBRANCH   1  18
TORSDOF 10
ENDMDL
MODEL 9
REMARK VINA RESULT:      -6.8      2.663     11.759
REMARK  Name = 
REMARK  16 active torsions:
REMARK  status: ('A' for Active; 'I' for Inactive)
REMARK    1  A    between atoms: C_1  and  O_2
REMARK    2  A    between atoms: O_2  and  C_3
REMARK    3  A    between atoms: C_6  and  C_7
REMARK    4  A    between atoms: C_9  and  C_10
REMARK    5  A    between atoms: C_11  and  C_12
REMARK    6  A    between atoms: C_12  and  C_13
REMARK    7  A    between atoms: C_13  and  N_14
REMARK    8  A    between atoms: C_15  and  C_17
REMARK    9  A    between atoms: C_19  and  O_20
REMARK   10  A    between atoms: O_20  and  C_21
REMARK   11  A    between atoms: C_22  and  O_23
REMARK   12  A    between atoms: O_23  and  C_24
REMARK   13  A    between atoms: C_25  and  O_26
REMARK   14  A    between atoms: O_26  and  C_27
REMARK   15  A    between atoms: C_31  and  O_32
REMARK   16  A    between atoms: O_32  and  C_33
REMARK                            x       y       z     vdW  Elec       q    Type
REMARK                         _______ _______ _______ _____ _____    ______ ____
ROOT
ATOM      1  C   UNL     1       0.455  10.313  18.100  0.00  0.00    +0.000 C 
ENDROOT
BRANCH   1   6
ATOM      2  C   UNL     1      -2.153  12.231  20.275  0.00  0.00    +0.000 A 
ATOM      3  N   UNL     1      -2.791  11.970  19.157  0.00  0.00    +0.000 NA
ATOM      4  C   UNL     1      -1.961  11.306  18.269  0.00  0.00    +0.000 A 
ATOM      5  C   UNL     1      -2.490  11.050  16.904  0.00  0.00    +0.000 C 
ATOM      6  C   UNL     1      -0.705  10.992  18.768  0.00  0.00    +0.000 A 
ATOM      7  S   UNL     1      -0.573  11.585  20.369  0.00  0.00    +0.000 S 
BRANCH   2  11
ATOM      8  C   UNL     1      -3.751  14.519  23.520  0.00  0.00    +0.000 A 
ATOM      9  C   UNL     1      -2.370  14.495  23.259  0.00  0.00    +0.000 A 
ATOM     10  C   UNL     1      -1.854  13.764  22.191  0.00  0.00    +0.000 A 
ATOM     11  C   UNL     1      -2.704  13.004  21.387  0.00  0.00    +0.000 A 
ATOM     12  C   UNL     1      -4.068  12.968  21.704  0.00  0.00    +0.000 A 
ATOM     13  C   UNL     1      -4.606  13.711  22.761  0.00  0.00    +0.000 A 
BRANCH   8  15
ATOM     14  C   UNL     1      -3.351  16.246  25.078  0.00  0.00    +0.000 C 
ATOM     15  O   UNL     1      -4.267  15.301  24.518  0.00  0.00    +0.000 OA
ENDBRANCH   8  15
BRANCH  13  16
ATOM     16  O   UNL     1      -5.955  13.522  22.858  0.00  0.00    +0.000 OA
ATOM     17  C   UNL     1      -6.474  12.744  23.923  0.00  0.00    +0.000 C 
ENDBRANCH  13  16
ENDBRANCH   2  11
ENDBRANCH   1   6
BRANCH   1  18
ATOM     18  C   UNL     1       1.205   9.335  19.016  0.00  0.00    +0.000 C 
BRANCH  18  19
ATOM     19  N   UNL     1       2.057   8.416  18.298  0.00  0.00    +0.000 N 
ATOM     20  C   UNL     1       2.461   7.238  18.881  0.00  0.00    +0.000 C 
ATOM     21  O   UNL     1       2.039   6.855  19.974  0.00  0.00    +0.000 OA
ATOM     22  H   UNL     1       2.603   8.799  17.536  0.00  0.00    +0.000 HD
BRANCH  20  23
ATOM     23  C   UNL     1       3.472   6.441  18.158  0.00  0.00    +0.000 A 
ATOM     24  C   UNL     1       3.232   5.080  18.015  0.00  0.00    +0.000 A 
ATOM     25  C   UNL     1       4.130   4.269  17.322  0.00  0.00    +0.000 A 
ATOM     26  C   UNL     1       5.320   4.827  16.800  0.00  0.00    +0.000 A 
ATOM     27  C   UNL     1       5.581   6.206  16.968  0.00  0.00    +0.000 A 
ATOM     28  C   UNL     1       4.633   7.005  17.621  0.00  0.00    +0.000 A 
BRANCH  25  29
ATOM     29  O   UNL     1       3.910   2.925  17.135  0.00  0.00    +0.000 OA
ATOM     30  C   UNL     1       2.835   2.363  17.888  0.00  0.00    +0.000 C 
ENDBRANCH  25  29
BRANCH  26  31
ATOM     31  O   UNL     1       6.175   3.929  16.201  0.00  0.00    +0.000 OA
ATOM     32  C   UNL     1       6.224   3.926  14.779  0.00  0.00    +0.000 C 
ENDBRANCH  26  31
BRANCH  27  33
ATOM     33  O   UNL     1       6.767   6.713  16.505  0.00  0.00    +0.000 OA
ATOM     34  C   UNL     1       7.566   7.493  17.386  0.00  0.00    +0.000 C 
ENDBRANCH  27  33
ENDBRANCH  20  23
ENDBRANCH  18  19
ENDBRANCH   1  18
TORSDOF 10
ENDMDL
