MODEL 1
REMARK VINA RESULT:      -7.9      0.000      0.000
REMARK  Name = 
REMARK  15 active torsions:
REMARK  status: ('A' for Active; 'I' for Inactive)
REMARK    1  A    between atoms: C_1  and  C_2
REMARK    2  A    between atoms: C_2  and  C_3
REMARK    3  A    between atoms: C_3  and  C_4
REMARK    4  A    between atoms: C_4  and  C_5
REMARK    5  A    between atoms: C_8  and  O_9
REMARK    6  A    between atoms: O_9  and  C_10
REMARK    7  A    between atoms: C_10  and  C_11
REMARK    8  A    between atoms: C_15  and  C_16
REMARK    9  A    between atoms: C_15  and  O_17
REMARK   10  A    between atoms: O_17  and  C_18
REMARK   11  A    between atoms: C_18  and  C_20
REMARK   12  A    between atoms: C_20  and  C_21
REMARK   13  A    between atoms: C_21  and  C_22
REMARK   14  A    between atoms: C_22  and  O_24
REMARK   15  A    between atoms: O_24  and  C_25
REMARK                            x       y       z     vdW  Elec       q    Type
REMARK                         _______ _______ _______ _____ _____    ______ ____
ROOT
ATOM      1  C   UNL     1       1.507   8.474  19.743  0.00  0.00    +0.000 C 
ATOM      2  C   UNL     1       1.931   7.287  20.220  0.00  0.00    +0.000 C 
ATOM      3  C   UNL     1       2.901   6.511  19.457  0.00  0.00    +0.000 C 
ATOM      4  C   UNL     1       3.268   5.282  19.883  0.00  0.00    +0.000 C 
ATOM      5  C   UNL     1       4.049   4.474  18.910  0.00  0.00    +0.000 C 
ATOM      6  O   UNL     1       3.667   3.325  18.676  0.00  0.00    +0.000 OA
ATOM      7  C   UNL     1       5.099   5.209  18.040  0.00  0.00    +0.000 C 
ATOM      8  C   UNL     1       6.212   5.974  18.784  0.00  0.00    +0.000 C 
ATOM      9  C   UNL     1       4.331   6.322  17.298  0.00  0.00    +0.000 C 
ATOM     10  O   UNL     1       4.523   6.642  16.126  0.00  0.00    +0.000 OA
ATOM     11  C   UNL     1       3.354   7.069  18.170  0.00  0.00    +0.000 C 
ATOM     12  C   UNL     1       2.908   8.283  17.813  0.00  0.00    +0.000 C 
ATOM     13  O   UNL     1       2.022   9.030  18.568  0.00  0.00    +0.000 OA
ENDROOT
BRANCH   1  14
ATOM     14  C   UNL     1       0.408   9.265  20.394  0.00  0.00    +0.000 C 
BRANCH  14  15
ATOM     15  C   UNL     1       0.109   8.711  21.790  0.00  0.00    +0.000 C 
BRANCH  15  17
ATOM     16  C   UNL     1      -0.314  11.155  22.146  0.00  0.00    +0.000 C 
ATOM     17  C   UNL     1      -0.502   9.758  22.719  0.00  0.00    +0.000 C 
ENDBRANCH  15  17
ENDBRANCH  14  15
ENDBRANCH   1  14
BRANCH   4  18
ATOM     18  O   UNL     1       2.622   4.654  20.998  0.00  0.00    +0.000 OA
BRANCH  18  19
ATOM     19  C   UNL     1       1.543   3.829  20.791  0.00  0.00    +0.000 C 
ATOM     20  C   UNL     1       1.669   2.557  21.625  0.00  0.00    +0.000 C 
ATOM     21  O   UNL     1       0.655   4.013  19.968  0.00  0.00    +0.000 OA
ENDBRANCH  18  19
ENDBRANCH   4  18
BRANCH   7  22
ATOM     22  O   UNL     1       5.703   4.295  17.110  0.00  0.00    +0.000 OA
BRANCH  22  23
ATOM     23  C   UNL     1       6.988   4.584  16.753  0.00  0.00    +0.000 C 
ATOM     24  O   UNL     1       7.987   4.238  17.374  0.00  0.00    +0.000 OA
BRANCH  23  25
ATOM     25  C   UNL     1       7.064   5.340  15.452  0.00  0.00    +0.000 C 
BRANCH  25  26
ATOM     26  C   UNL     1       6.890   4.436  14.241  0.00  0.00    +0.000 C 
BRANCH  26  27
ATOM     27  C   UNL     1       7.678   4.961  13.063  0.00  0.00    +0.000 C 
ATOM     28  O   UNL     1       8.579   5.784  13.124  0.00  0.00    +0.000 OA
BRANCH  27  29
ATOM     29  O   UNL     1       7.232   4.378  11.916  0.00  0.00    +0.000 OA
ATOM     30  C   UNL     1       6.350   3.282  12.148  0.00  0.00    +0.000 C 
ENDBRANCH  27  29
ENDBRANCH  26  27
ENDBRANCH  25  26
ENDBRANCH  23  25
ENDBRANCH  22  23
ENDBRANCH   7  22
TORSDOF 11
ENDMDL
MODEL 2
REMARK VINA RESULT:      -7.5      0.897      1.174
REMARK  Name = 
REMARK  15 active torsions:
REMARK  status: ('A' for Active; 'I' for Inactive)
REMARK    1  A    between atoms: C_1  and  C_2
REMARK    2  A    between atoms: C_2  and  C_3
REMARK    3  A    between atoms: C_3  and  C_4
REMARK    4  A    between atoms: C_4  and  C_5
REMARK    5  A    between atoms: C_8  and  O_9
REMARK    6  A    between atoms: O_9  and  C_10
REMARK    7  A    between atoms: C_10  and  C_11
REMARK    8  A    between atoms: C_15  and  C_16
REMARK    9  A    between atoms: C_15  and  O_17
REMARK   10  A    between atoms: O_17  and  C_18
REMARK   11  A    between atoms: C_18  and  C_20
REMARK   12  A    between atoms: C_20  and  C_21
REMARK   13  A    between atoms: C_21  and  C_22
REMARK   14  A    between atoms: C_22  and  O_24
REMARK   15  A    between atoms: O_24  and  C_25
REMARK                            x       y       z     vdW  Elec       q    Type
REMARK                         _______ _______ _______ _____ _____    ______ ____
ROOT
ATOM      1  C   UNL     1       1.699   8.490  19.641  0.00  0.00    +0.000 C 
ATOM      2  C   UNL     1       2.007   7.229  20.004  0.00  0.00    +0.000 C 
ATOM      3  C   UNL     1       2.922   6.447  19.180  0.00  0.00    +0.000 C 
ATOM      4  C   UNL     1       3.171   5.155  19.486  0.00  0.00    +0.000 C 
ATOM      5  C   UNL     1       3.898   4.379  18.449  0.00  0.00    +0.000 C 
ATOM      6  O   UNL     1       3.423   3.297  18.097  0.00  0.00    +0.000 OA
ATOM      7  C   UNL     1       5.027   5.099  17.669  0.00  0.00    +0.000 C 
ATOM      8  C   UNL     1       6.186   5.686  18.498  0.00  0.00    +0.000 C 
ATOM      9  C   UNL     1       4.375   6.343  17.031  0.00  0.00    +0.000 C 
ATOM     10  O   UNL     1       4.619   6.756  15.898  0.00  0.00    +0.000 OA
ATOM     11  C   UNL     1       3.448   7.085  17.960  0.00  0.00    +0.000 C 
ATOM     12  C   UNL     1       3.119   8.363  17.719  0.00  0.00    +0.000 C 
ATOM     13  O   UNL     1       2.285   9.109  18.533  0.00  0.00    +0.000 OA
ENDROOT
BRANCH   1  14
ATOM     14  C   UNL     1       0.659   9.308  20.353  0.00  0.00    +0.000 C 
BRANCH  14  15
ATOM     15  C   UNL     1       0.123   8.547  21.569  0.00  0.00    +0.000 C 
BRANCH  15  17
ATOM     16  C   UNL     1      -0.882  10.260  23.096  0.00  0.00    +0.000 C 
ATOM     17  C   UNL     1       0.296   9.324  22.871  0.00  0.00    +0.000 C 
ENDBRANCH  15  17
ENDBRANCH  14  15
ENDBRANCH   1  14
BRANCH   4  18
ATOM     18  O   UNL     1       2.448   4.482  20.526  0.00  0.00    +0.000 OA
BRANCH  18  19
ATOM     19  C   UNL     1       2.651   3.141  20.745  0.00  0.00    +0.000 C 
ATOM     20  C   UNL     1       1.374   2.352  20.475  0.00  0.00    +0.000 C 
ATOM     21  O   UNL     1       3.670   2.642  21.207  0.00  0.00    +0.000 OA
ENDBRANCH  18  19
ENDBRANCH   4  18
BRANCH   7  22
ATOM     22  O   UNL     1       5.569   4.230  16.661  0.00  0.00    +0.000 OA
BRANCH  22  23
ATOM     23  C   UNL     1       6.871   4.461  16.323  0.00  0.00    +0.000 C 
ATOM     24  O   UNL     1       7.814   4.453  17.105  0.00  0.00    +0.000 OA
BRANCH  23  25
ATOM     25  C   UNL     1       7.048   4.674  14.842  0.00  0.00    +0.000 C 
BRANCH  25  26
ATOM     26  C   UNL     1       5.906   4.087  14.027  0.00  0.00    +0.000 C 
BRANCH  26  27
ATOM     27  C   UNL     1       6.369   3.733  12.633  0.00  0.00    +0.000 C 
ATOM     28  O   UNL     1       7.301   4.258  12.042  0.00  0.00    +0.000 OA
BRANCH  27  29
ATOM     29  O   UNL     1       5.590   2.736  12.129  0.00  0.00    +0.000 OA
ATOM     30  C   UNL     1       4.386   3.213  11.531  0.00  0.00    +0.000 C 
ENDBRANCH  27  29
ENDBRANCH  26  27
ENDBRANCH  25  26
ENDBRANCH  23  25
ENDBRANCH  22  23
ENDBRANCH   7  22
TORSDOF 11
ENDMDL
MODEL 3
REMARK VINA RESULT:      -7.1      0.833      1.087
REMARK  Name = 
REMARK  15 active torsions:
REMARK  status: ('A' for Active; 'I' for Inactive)
REMARK    1  A    between atoms: C_1  and  C_2
REMARK    2  A    between atoms: C_2  and  C_3
REMARK    3  A    between atoms: C_3  and  C_4
REMARK    4  A    between atoms: C_4  and  C_5
REMARK    5  A    between atoms: C_8  and  O_9
REMARK    6  A    between atoms: O_9  and  C_10
REMARK    7  A    between atoms: C_10  and  C_11
REMARK    8  A    between atoms: C_15  and  C_16
REMARK    9  A    between atoms: C_15  and  O_17
REMARK   10  A    between atoms: O_17  and  C_18
REMARK   11  A    between atoms: C_18  and  C_20
REMARK   12  A    between atoms: C_20  and  C_21
REMARK   13  A    between atoms: C_21  and  C_22
REMARK   14  A    between atoms: C_22  and  O_24
REMARK   15  A    between atoms: O_24  and  C_25
REMARK                            x       y       z     vdW  Elec       q    Type
REMARK                         _______ _______ _______ _____ _____    ______ ____
ROOT
ATOM      1  C   UNL     1       1.318   8.308  20.134  0.00  0.00    +0.000 C 
ATOM      2  C   UNL     1       1.801   7.120  20.550  0.00  0.00    +0.000 C 
ATOM      3  C   UNL     1       2.772   6.411  19.726  0.00  0.00    +0.000 C 
ATOM      4  C   UNL     1       3.198   5.182  20.090  0.00  0.00    +0.000 C 
ATOM      5  C   UNL     1       3.974   4.442  19.062  0.00  0.00    +0.000 C 
ATOM      6  O   UNL     1       3.628   3.289  18.795  0.00  0.00    +0.000 OA
ATOM      7  C   UNL     1       4.967   5.249  18.188  0.00  0.00    +0.000 C 
ATOM      8  C   UNL     1       6.076   6.026  18.924  0.00  0.00    +0.000 C 
ATOM      9  C   UNL     1       4.134   6.359  17.516  0.00  0.00    +0.000 C 
ATOM     10  O   UNL     1       4.274   6.730  16.351  0.00  0.00    +0.000 OA
ATOM     11  C   UNL     1       3.160   7.035  18.447  0.00  0.00    +0.000 C 
ATOM     12  C   UNL     1       2.659   8.244  18.153  0.00  0.00    +0.000 C 
ATOM     13  O   UNL     1       1.772   8.927  18.966  0.00  0.00    +0.000 OA
ENDROOT
BRANCH   1  14
ATOM     14  C   UNL     1       0.213   9.031  20.851  0.00  0.00    +0.000 C 
BRANCH  14  15
ATOM     15  C   UNL     1       0.392  10.546  20.717  0.00  0.00    +0.000 C 
BRANCH  15  17
ATOM     16  C   UNL     1      -0.767  10.509  22.938  0.00  0.00    +0.000 C 
ATOM     17  C   UNL     1      -0.487  11.330  21.688  0.00  0.00    +0.000 C 
ENDBRANCH  15  17
ENDBRANCH  14  15
ENDBRANCH   1  14
BRANCH   4  18
ATOM     18  O   UNL     1       2.613   4.488  21.200  0.00  0.00    +0.000 OA
BRANCH  18  19
ATOM     19  C   UNL     1       1.565   3.625  20.995  0.00  0.00    +0.000 C 
ATOM     20  C   UNL     1       1.800   2.307  21.727  0.00  0.00    +0.000 C 
ATOM     21  O   UNL     1       0.622   3.819  20.239  0.00  0.00    +0.000 OA
ENDBRANCH  18  19
ENDBRANCH   4  18
BRANCH   7  22
ATOM     22  O   UNL     1       5.572   4.395  17.203  0.00  0.00    +0.000 OA
BRANCH  22  23
ATOM     23  C   UNL     1       6.863   4.696  16.877  0.00  0.00    +0.000 C 
ATOM     24  O   UNL     1       7.852   4.326  17.498  0.00  0.00    +0.000 OA
BRANCH  23  25
ATOM     25  C   UNL     1       6.958   5.503  15.608  0.00  0.00    +0.000 C 
BRANCH  25  26
ATOM     26  C   UNL     1       7.314   4.650  14.400  0.00  0.00    +0.000 C 
BRANCH  26  27
ATOM     27  C   UNL     1       6.066   4.126  13.728  0.00  0.00    +0.000 C 
ATOM     28  O   UNL     1       4.920   4.357  14.084  0.00  0.00    +0.000 OA
BRANCH  27  29
ATOM     29  O   UNL     1       6.409   3.352  12.661  0.00  0.00    +0.000 OA
ATOM     30  C   UNL     1       5.315   3.081  11.787  0.00  0.00    +0.000 C 
ENDBRANCH  27  29
ENDBRANCH  26  27
ENDBRANCH  25  26
ENDBRANCH  23  25
ENDBRANCH  22  23
ENDBRANCH   7  22
TORSDOF 11
ENDMDL
MODEL 4
REMARK VINA RESULT:      -7.1      1.332      1.601
REMARK  Name = 
REMARK  15 active torsions:
REMARK  status: ('A' for Active; 'I' for Inactive)
REMARK    1  A    between atoms: C_1  and  C_2
REMARK    2  A    between atoms: C_2  and  C_3
REMARK    3  A    between atoms: C_3  and  C_4
REMARK    4  A    between atoms: C_4  and  C_5
REMARK    5  A    between atoms: C_8  and  O_9
REMARK    6  A    between atoms: O_9  and  C_10
REMARK    7  A    between atoms: C_10  and  C_11
REMARK    8  A    between atoms: C_15  and  C_16
REMARK    9  A    between atoms: C_15  and  O_17
REMARK   10  A    between atoms: O_17  and  C_18
REMARK   11  A    between atoms: C_18  and  C_20
REMARK   12  A    between atoms: C_20  and  C_21
REMARK   13  A    between atoms: C_21  and  C_22
REMARK   14  A    between atoms: C_22  and  O_24
REMARK   15  A    between atoms: O_24  and  C_25
REMARK                            x       y       z     vdW  Elec       q    Type
REMARK                         _______ _______ _______ _____ _____    ______ ____
ROOT
ATOM      1  C   UNL     1       1.853   8.471  18.973  0.00  0.00    +0.000 C 
ATOM      2  C   UNL     1       1.819   7.140  19.186  0.00  0.00    +0.000 C 
ATOM      3  C   UNL     1       2.756   6.276  18.481  0.00  0.00    +0.000 C 
ATOM      4  C   UNL     1       2.675   4.934  18.620  0.00  0.00    +0.000 C 
ATOM      5  C   UNL     1       3.493   4.140  17.667  0.00  0.00    +0.000 C 
ATOM      6  O   UNL     1       2.935   3.234  17.042  0.00  0.00    +0.000 OA
ATOM      7  C   UNL     1       4.898   4.679  17.299  0.00  0.00    +0.000 C 
ATOM      8  C   UNL     1       5.888   4.900  18.460  0.00  0.00    +0.000 C 
ATOM      9  C   UNL     1       4.675   6.098  16.740  0.00  0.00    +0.000 C 
ATOM     10  O   UNL     1       5.278   6.574  15.779  0.00  0.00    +0.000 OA
ATOM     11  C   UNL     1       3.691   6.916  17.538  0.00  0.00    +0.000 C 
ATOM     12  C   UNL     1       3.676   8.254  17.440  0.00  0.00    +0.000 C 
ATOM     13  O   UNL     1       2.811   9.068  18.149  0.00  0.00    +0.000 OA
ENDROOT
BRANCH   1  14
ATOM     14  C   UNL     1       0.832   9.412  19.549  0.00  0.00    +0.000 C 
BRANCH  14  15
ATOM     15  C   UNL     1       0.261   8.845  20.852  0.00  0.00    +0.000 C 
BRANCH  15  17
ATOM     16  C   UNL     1      -0.062   9.526  23.243  0.00  0.00    +0.000 C 
ATOM     17  C   UNL     1       0.929   9.437  22.091  0.00  0.00    +0.000 C 
ENDBRANCH  15  17
ENDBRANCH  14  15
ENDBRANCH   1  14
BRANCH   4  18
ATOM     18  O   UNL     1       1.595   4.323  19.339  0.00  0.00    +0.000 OA
BRANCH  18  19
ATOM     19  C   UNL     1       1.851   3.307  20.227  0.00  0.00    +0.000 C 
ATOM     20  C   UNL     1       2.277   3.868  21.581  0.00  0.00    +0.000 C 
ATOM     21  O   UNL     1       1.857   2.112  19.958  0.00  0.00    +0.000 OA
ENDBRANCH  18  19
ENDBRANCH   4  18
BRANCH   7  22
ATOM     22  O   UNL     1       5.515   3.831  16.316  0.00  0.00    +0.000 OA
BRANCH  22  23
ATOM     23  C   UNL     1       6.715   4.265  15.835  0.00  0.00    +0.000 C 
ATOM     24  O   UNL     1       7.714   4.471  16.514  0.00  0.00    +0.000 OA
BRANCH  23  25
ATOM     25  C   UNL     1       6.710   4.416  14.336  0.00  0.00    +0.000 C 
BRANCH  25  26
ATOM     26  C   UNL     1       5.554   3.677  13.679  0.00  0.00    +0.000 C 
BRANCH  26  27
ATOM     27  C   UNL     1       5.855   3.394  12.226  0.00  0.00    +0.000 C 
ATOM     28  O   UNL     1       6.832   2.787  11.811  0.00  0.00    +0.000 OA
BRANCH  27  29
ATOM     29  O   UNL     1       4.873   3.919  11.442  0.00  0.00    +0.000 OA
ATOM     30  C   UNL     1       3.836   2.987  11.141  0.00  0.00    +0.000 C 
ENDBRANCH  27  29
ENDBRANCH  26  27
ENDBRANCH  25  26
ENDBRANCH  23  25
ENDBRANCH  22  23
ENDBRANCH   7  22
TORSDOF 11
ENDMDL
MODEL 5
REMARK VINA RESULT:      -7.0      0.894      1.201
REMARK  Name = 
REMARK  15 active torsions:
REMARK  status: ('A' for Active; 'I' for Inactive)
REMARK    1  A    between atoms: C_1  and  C_2
REMARK    2  A    between atoms: C_2  and  C_3
REMARK    3  A    between atoms: C_3  and  C_4
REMARK    4  A    between atoms: C_4  and  C_5
REMARK    5  A    between atoms: C_8  and  O_9
REMARK    6  A    between atoms: O_9  and  C_10
REMARK    7  A    between atoms: C_10  and  C_11
REMARK    8  A    between atoms: C_15  and  C_16
REMARK    9  A    between atoms: C_15  and  O_17
REMARK   10  A    between atoms: O_17  and  C_18
REMARK   11  A    between atoms: C_18  and  C_20
REMARK   12  A    between atoms: C_20  and  C_21
REMARK   13  A    between atoms: C_21  and  C_22
REMARK   14  A    between atoms: C_22  and  O_24
REMARK   15  A    between atoms: O_24  and  C_25
REMARK                            x       y       z     vdW  Elec       q    Type
REMARK                         _______ _______ _______ _____ _____    ______ ____
ROOT
ATOM      1  C   UNL     1       1.758   8.367  19.772  0.00  0.00    +0.000 C 
ATOM      2  C   UNL     1       2.138   7.159  20.236  0.00  0.00    +0.000 C 
ATOM      3  C   UNL     1       3.015   6.323  19.427  0.00  0.00    +0.000 C 
ATOM      4  C   UNL     1       3.333   5.077  19.843  0.00  0.00    +0.000 C 
ATOM      5  C   UNL     1       4.008   4.218  18.836  0.00  0.00    +0.000 C 
ATOM      6  O   UNL     1       3.547   3.092  18.634  0.00  0.00    +0.000 OA
ATOM      7  C   UNL     1       5.049   4.884  17.901  0.00  0.00    +0.000 C 
ATOM      8  C   UNL     1       6.245   5.586  18.574  0.00  0.00    +0.000 C 
ATOM      9  C   UNL     1       4.307   6.036  17.193  0.00  0.00    +0.000 C 
ATOM     10  O   UNL     1       4.450   6.336  16.009  0.00  0.00    +0.000 OA
ATOM     11  C   UNL     1       3.426   6.845  18.111  0.00  0.00    +0.000 C 
ATOM     12  C   UNL     1       3.033   8.081  17.768  0.00  0.00    +0.000 C 
ATOM     13  O   UNL     1       2.237   8.883  18.565  0.00  0.00    +0.000 OA
ENDROOT
BRANCH   1  14
ATOM     14  C   UNL     1       0.745   9.225  20.476  0.00  0.00    +0.000 C 
BRANCH  14  15
ATOM     15  C   UNL     1       0.499   8.703  21.895  0.00  0.00    +0.000 C 
BRANCH  15  17
ATOM     16  C   UNL     1      -0.360  11.052  22.054  0.00  0.00    +0.000 C 
ATOM     17  C   UNL     1      -0.061   9.775  22.826  0.00  0.00    +0.000 C 
ENDBRANCH  15  17
ENDBRANCH  14  15
ENDBRANCH   1  14
BRANCH   4  18
ATOM     18  O   UNL     1       2.715   4.495  20.999  0.00  0.00    +0.000 OA
BRANCH  18  19
ATOM     19  C   UNL     1       1.528   3.816  20.874  0.00  0.00    +0.000 C 
ATOM     20  C   UNL     1       1.513   2.585  21.776  0.00  0.00    +0.000 C 
ATOM     21  O   UNL     1       0.641   4.076  20.070  0.00  0.00    +0.000 OA
ENDBRANCH  18  19
ENDBRANCH   4  18
BRANCH   7  22
ATOM     22  O   UNL     1       5.545   3.930  16.948  0.00  0.00    +0.000 OA
BRANCH  22  23
ATOM     23  C   UNL     1       6.321   4.445  15.950  0.00  0.00    +0.000 C 
ATOM     24  O   UNL     1       7.403   4.998  16.113  0.00  0.00    +0.000 OA
BRANCH  23  25
ATOM     25  C   UNL     1       5.730   4.208  14.584  0.00  0.00    +0.000 C 
BRANCH  25  26
ATOM     26  C   UNL     1       6.782   3.844  13.548  0.00  0.00    +0.000 C 
BRANCH  26  27
ATOM     27  C   UNL     1       6.133   3.340  12.280  0.00  0.00    +0.000 C 
ATOM     28  O   UNL     1       4.942   3.412  12.017  0.00  0.00    +0.000 OA
BRANCH  27  29
ATOM     29  O   UNL     1       7.078   2.788  11.469  0.00  0.00    +0.000 OA
ATOM     30  C   UNL     1       6.781   1.446  11.091  0.00  0.00    +0.000 C 
ENDBRANCH  27  29
ENDBRANCH  26  27
ENDBRANCH  25  26
ENDBRANCH  23  25
ENDBRANCH  22  23
ENDBRANCH   7  22
TORSDOF 11
ENDMDL
MODEL 6
REMARK VINA RESULT:      -6.9      0.935      1.119
REMARK  Name = 
REMARK  15 active torsions:
REMARK  status: ('A' for Active; 'I' for Inactive)
REMARK    1  A    between atoms: C_1  and  C_2
REMARK    2  A    between atoms: C_2  and  C_3
REMARK    3  A    between atoms: C_3  and  C_4
REMARK    4  A    between atoms: C_4  and  C_5
REMARK    5  A    between atoms: C_8  and  O_9
REMARK    6  A    between atoms: O_9  and  C_10
REMARK    7  A    between atoms: C_10  and  C_11
REMARK    8  A    between atoms: C_15  and  C_16
REMARK    9  A    between atoms: C_15  and  O_17
REMARK   10  A    between atoms: O_17  and  C_18
REMARK   11  A    between atoms: C_18  and  C_20
REMARK   12  A    between atoms: C_20  and  C_21
REMARK   13  A    between atoms: C_21  and  C_22
REMARK   14  A    between atoms: C_22  and  O_24
REMARK   15  A    between atoms: O_24  and  C_25
REMARK                            x       y       z     vdW  Elec       q    Type
REMARK                         _______ _______ _______ _____ _____    ______ ____
ROOT
ATOM      1  C   UNL     1       1.387   8.498  19.945  0.00  0.00    +0.000 C 
ATOM      2  C   UNL     1       1.795   7.299  20.408  0.00  0.00    +0.000 C 
ATOM      3  C   UNL     1       2.726   6.502  19.619  0.00  0.00    +0.000 C 
ATOM      4  C   UNL     1       3.074   5.264  20.031  0.00  0.00    +0.000 C 
ATOM      5  C   UNL     1       3.810   4.440  19.037  0.00  0.00    +0.000 C 
ATOM      6  O   UNL     1       3.395   3.301  18.810  0.00  0.00    +0.000 OA
ATOM      7  C   UNL     1       4.855   5.153  18.143  0.00  0.00    +0.000 C 
ATOM      8  C   UNL     1       6.004   5.888  18.859  0.00  0.00    +0.000 C 
ATOM      9  C   UNL     1       4.095   6.285  17.423  0.00  0.00    +0.000 C 
ATOM     10  O   UNL     1       4.265   6.604  16.247  0.00  0.00    +0.000 OA
ATOM     11  C   UNL     1       3.159   7.053  18.321  0.00  0.00    +0.000 C 
ATOM     12  C   UNL     1       2.734   8.278  17.979  0.00  0.00    +0.000 C 
ATOM     13  O   UNL     1       1.885   9.044  18.758  0.00  0.00    +0.000 OA
ENDROOT
BRANCH   1  14
ATOM     14  C   UNL     1       0.324   9.312  20.625  0.00  0.00    +0.000 C 
BRANCH  14  15
ATOM     15  C   UNL     1      -0.494  10.091  19.591  0.00  0.00    +0.000 C 
BRANCH  15  17
ATOM     16  C   UNL     1      -1.172  12.330  18.692  0.00  0.00    +0.000 C 
ATOM     17  C   UNL     1      -0.329  11.603  19.729  0.00  0.00    +0.000 C 
ENDBRANCH  15  17
ENDBRANCH  14  15
ENDBRANCH   1  14
BRANCH   4  18
ATOM     18  O   UNL     1       2.441   4.648  21.161  0.00  0.00    +0.000 OA
BRANCH  18  19
ATOM     19  C   UNL     1       1.392   3.781  20.973  0.00  0.00    +0.000 C 
ATOM     20  C   UNL     1       1.587   2.512  21.796  0.00  0.00    +0.000 C 
ATOM     21  O   UNL     1       0.479   3.933  20.171  0.00  0.00    +0.000 OA
ENDBRANCH  18  19
ENDBRANCH   4  18
BRANCH   7  22
ATOM     22  O   UNL     1       5.413   4.227  17.195  0.00  0.00    +0.000 OA
BRANCH  22  23
ATOM     23  C   UNL     1       6.482   4.688  16.483  0.00  0.00    +0.000 C 
ATOM     24  O   UNL     1       7.631   4.759  16.903  0.00  0.00    +0.000 OA
BRANCH  23  25
ATOM     25  C   UNL     1       6.112   5.055  15.069  0.00  0.00    +0.000 C 
BRANCH  25  26
ATOM     26  C   UNL     1       6.773   4.152  14.040  0.00  0.00    +0.000 C 
BRANCH  26  27
ATOM     27  C   UNL     1       7.671   4.951  13.123  0.00  0.00    +0.000 C 
ATOM     28  O   UNL     1       8.454   5.818  13.480  0.00  0.00    +0.000 OA
BRANCH  27  29
ATOM     29  O   UNL     1       7.476   4.560  11.834  0.00  0.00    +0.000 OA
ATOM     30  C   UNL     1       6.663   3.394  11.716  0.00  0.00    +0.000 C 
ENDBRANCH  27  29
ENDBRANCH  26  27
ENDBRANCH  25  26
ENDBRANCH  23  25
ENDBRANCH  22  23
ENDBRANCH   7  22
TORSDOF 11
ENDMDL
MODEL 7
REMARK VINA RESULT:      -6.8      1.451      1.877
REMARK  Name = 
REMARK  15 active torsions:
REMARK  status: ('A' for Active; 'I' for Inactive)
REMARK    1  A    between atoms: C_1  and  C_2
REMARK    2  A    between atoms: C_2  and  C_3
REMARK    3  A    between atoms: C_3  and  C_4
REMARK    4  A    between atoms: C_4  and  C_5
REMARK    5  A    between atoms: C_8  and  O_9
REMARK    6  A    between atoms: O_9  and  C_10
REMARK    7  A    between atoms: C_10  and  C_11
REMARK    8  A    between atoms: C_15  and  C_16
REMARK    9  A    between atoms: C_15  and  O_17
REMARK   10  A    between atoms: O_17  and  C_18
REMARK   11  A    between atoms: C_18  and  C_20
REMARK   12  A    between atoms: C_20  and  C_21
REMARK   13  A    between atoms: C_21  and  C_22
REMARK   14  A    between atoms: C_22  and  O_24
REMARK   15  A    between atoms: O_24  and  C_25
REMARK                            x       y       z     vdW  Elec       q    Type
REMARK                         _______ _______ _______ _____ _____    ______ ____
ROOT
ATOM      1  C   UNL     1       1.965   7.540  19.917  0.00  0.00    +0.000 C 
ATOM      2  C   UNL     1       2.199   6.213  19.973  0.00  0.00    +0.000 C 
ATOM      3  C   UNL     1       3.066   5.593  18.979  0.00  0.00    +0.000 C 
ATOM      4  C   UNL     1       3.238   4.253  18.975  0.00  0.00    +0.000 C 
ATOM      5  C   UNL     1       3.919   3.699  17.776  0.00  0.00    +0.000 C 
ATOM      6  O   UNL     1       3.381   2.757  17.189  0.00  0.00    +0.000 OA
ATOM      7  C   UNL     1       5.089   4.514  17.169  0.00  0.00    +0.000 C 
ATOM      8  C   UNL     1       6.280   4.825  18.097  0.00  0.00    +0.000 C 
ATOM      9  C   UNL     1       4.512   5.907  16.845  0.00  0.00    +0.000 C 
ATOM     10  O   UNL     1       4.780   6.558  15.836  0.00  0.00    +0.000 OA
ATOM     11  C   UNL     1       3.630   6.466  17.933  0.00  0.00    +0.000 C 
ATOM     12  C   UNL     1       3.376   7.781  17.999  0.00  0.00    +0.000 C 
ATOM     13  O   UNL     1       2.588   8.364  18.975  0.00  0.00    +0.000 OA
ENDROOT
BRANCH   1  14
ATOM     14  C   UNL     1       0.975   8.229  20.813  0.00  0.00    +0.000 C 
BRANCH  14  15
ATOM     15  C   UNL     1       0.826   9.699  20.410  0.00  0.00    +0.000 C 
BRANCH  15  17
ATOM     16  C   UNL     1      -0.659  11.324  19.212  0.00  0.00    +0.000 C 
ATOM     17  C   UNL     1      -0.617  10.074  20.078  0.00  0.00    +0.000 C 
ENDBRANCH  15  17
ENDBRANCH  14  15
ENDBRANCH   1  14
BRANCH   4  18
ATOM     18  O   UNL     1       2.477   3.400  19.839  0.00  0.00    +0.000 OA
BRANCH  18  19
ATOM     19  C   UNL     1       3.076   2.816  20.929  0.00  0.00    +0.000 C 
ATOM     20  C   UNL     1       4.363   2.106  20.520  0.00  0.00    +0.000 C 
ATOM     21  O   UNL     1       2.601   2.759  22.056  0.00  0.00    +0.000 OA
ENDBRANCH  18  19
ENDBRANCH   4  18
BRANCH   7  22
ATOM     22  O   UNL     1       5.579   3.873  15.980  0.00  0.00    +0.000 OA
BRANCH  22  23
ATOM     23  C   UNL     1       6.696   4.430  15.429  0.00  0.00    +0.000 C 
ATOM     24  O   UNL     1       7.805   4.449  15.951  0.00  0.00    +0.000 OA
BRANCH  23  25
ATOM     25  C   UNL     1       6.439   4.984  14.051  0.00  0.00    +0.000 C 
BRANCH  25  26
ATOM     26  C   UNL     1       7.157   4.198  12.964  0.00  0.00    +0.000 C 
BRANCH  26  27
ATOM     27  C   UNL     1       6.197   3.279  12.245  0.00  0.00    +0.000 C 
ATOM     28  O   UNL     1       4.983   3.417  12.201  0.00  0.00    +0.000 OA
BRANCH  27  29
ATOM     29  O   UNL     1       6.888   2.268  11.650  0.00  0.00    +0.000 OA
ATOM     30  C   UNL     1       6.045   1.249  11.116  0.00  0.00    +0.000 C 
ENDBRANCH  27  29
ENDBRANCH  26  27
ENDBRANCH  25  26
ENDBRANCH  23  25
ENDBRANCH  22  23
ENDBRANCH   7  22
TORSDOF 11
ENDMDL
MODEL 8
REMARK VINA RESULT:      -6.8      1.426      1.784
REMARK  Name = 
REMARK  15 active torsions:
REMARK  status: ('A' for Active; 'I' for Inactive)
REMARK    1  A    between atoms: C_1  and  C_2
REMARK    2  A    between atoms: C_2  and  C_3
REMARK    3  A    between atoms: C_3  and  C_4
REMARK    4  A    between atoms: C_4  and  C_5
REMARK    5  A    between atoms: C_8  and  O_9
REMARK    6  A    between atoms: O_9  and  C_10
REMARK    7  A    between atoms: C_10  and  C_11
REMARK    8  A    between atoms: C_15  and  C_16
REMARK    9  A    between atoms: C_15  and  O_17
REMARK   10  A    between atoms: O_17  and  C_18
REMARK   11  A    between atoms: C_18  and  C_20
REMARK   12  A    between atoms: C_20  and  C_21
REMARK   13  A    between atoms: C_21  and  C_22
REMARK   14  A    between atoms: C_22  and  O_24
REMARK   15  A    between atoms: O_24  and  C_25
REMARK                            x       y       z     vdW  Elec       q    Type
REMARK                         _______ _______ _______ _____ _____    ______ ____
ROOT
ATOM      1  C   UNL     1       1.550   7.302  20.364  0.00  0.00    +0.000 C 
ATOM      2  C   UNL     1       1.707   5.962  20.348  0.00  0.00    +0.000 C 
ATOM      3  C   UNL     1       2.572   5.353  19.346  0.00  0.00    +0.000 C 
ATOM      4  C   UNL     1       2.670   4.008  19.266  0.00  0.00    +0.000 C 
ATOM      5  C   UNL     1       3.360   3.486  18.057  0.00  0.00    +0.000 C 
ATOM      6  O   UNL     1       2.791   2.612  17.399  0.00  0.00    +0.000 OA
ATOM      7  C   UNL     1       4.593   4.267  17.538  0.00  0.00    +0.000 C 
ATOM      8  C   UNL     1       5.768   4.454  18.519  0.00  0.00    +0.000 C 
ATOM      9  C   UNL     1       4.106   5.707  17.281  0.00  0.00    +0.000 C 
ATOM     10  O   UNL     1       4.445   6.399  16.322  0.00  0.00    +0.000 OA
ATOM     11  C   UNL     1       3.220   6.251  18.372  0.00  0.00    +0.000 C 
ATOM     12  C   UNL     1       3.037   7.573  18.510  0.00  0.00    +0.000 C 
ATOM     13  O   UNL     1       2.249   8.142  19.494  0.00  0.00    +0.000 OA
ENDROOT
BRANCH   1  14
ATOM     14  C   UNL     1       0.569   7.993  21.268  0.00  0.00    +0.000 C 
BRANCH  14  15
ATOM     15  C   UNL     1       0.837   9.500  21.292  0.00  0.00    +0.000 C 
BRANCH  15  17
ATOM     16  C   UNL     1       0.325  11.195  19.518  0.00  0.00    +0.000 C 
ATOM     17  C   UNL     1      -0.263  10.303  20.601  0.00  0.00    +0.000 C 
ENDBRANCH  15  17
ENDBRANCH  14  15
ENDBRANCH   1  14
BRANCH   4  18
ATOM     18  O   UNL     1       1.833   3.150  20.053  0.00  0.00    +0.000 OA
BRANCH  18  19
ATOM     19  C   UNL     1       2.285   2.666  21.256  0.00  0.00    +0.000 C 
ATOM     20  C   UNL     1       3.683   2.073  21.107  0.00  0.00    +0.000 C 
ATOM     21  O   UNL     1       1.629   2.600  22.288  0.00  0.00    +0.000 OA
ENDBRANCH  18  19
ENDBRANCH   4  18
BRANCH   7  22
ATOM     22  O   UNL     1       5.088   3.669  16.328  0.00  0.00    +0.000 OA
BRANCH  22  23
ATOM     23  C   UNL     1       6.196   4.257  15.792  0.00  0.00    +0.000 C 
ATOM     24  O   UNL     1       7.276   4.375  16.358  0.00  0.00    +0.000 OA
BRANCH  23  25
ATOM     25  C   UNL     1       5.973   4.710  14.371  0.00  0.00    +0.000 C 
BRANCH  25  26
ATOM     26  C   UNL     1       6.983   4.113  13.404  0.00  0.00    +0.000 C 
BRANCH  26  27
ATOM     27  C   UNL     1       6.284   3.367  12.291  0.00  0.00    +0.000 C 
ATOM     28  O   UNL     1       6.800   2.526  11.570  0.00  0.00    +0.000 OA
BRANCH  27  29
ATOM     29  O   UNL     1       4.987   3.774  12.209  0.00  0.00    +0.000 OA
ATOM     30  C   UNL     1       4.209   2.995  11.303  0.00  0.00    +0.000 C 
ENDBRANCH  27  29
ENDBRANCH  26  27
ENDBRANCH  25  26
ENDBRANCH  23  25
ENDBRANCH  22  23
ENDBRANCH   7  22
TORSDOF 11
ENDMDL
MODEL 9
REMARK VINA RESULT:      -6.7      1.333      1.634
REMARK  Name = 
REMARK  15 active torsions:
REMARK  status: ('A' for Active; 'I' for Inactive)
REMARK    1  A    between atoms: C_1  and  C_2
REMARK    2  A    between atoms: C_2  and  C_3
REMARK    3  A    between atoms: C_3  and  C_4
REMARK    4  A    between atoms: C_4  and  C_5
REMARK    5  A    between atoms: C_8  and  O_9
REMARK    6  A    between atoms: O_9  and  C_10
REMARK    7  A    between atoms: C_10  and  C_11
REMARK    8  A    between atoms: C_15  and  C_16
REMARK    9  A    between atoms: C_15  and  O_17
REMARK   10  A    between atoms: O_17  and  C_18
REMARK   11  A    between atoms: C_18  and  C_20
REMARK   12  A    between atoms: C_20  and  C_21
REMARK   13  A    between atoms: C_21  and  C_22
REMARK   14  A    between atoms: C_22  and  O_24
REMARK   15  A    between atoms: O_24  and  C_25
REMARK                            x       y       z     vdW  Elec       q    Type
REMARK                         _______ _______ _______ _____ _____    ______ ____
ROOT
ATOM      1  C   UNL     1       1.483   8.934  19.073  0.00  0.00    +0.000 C 
ATOM      2  C   UNL     1       1.614   7.643  19.439  0.00  0.00    +0.000 C 
ATOM      3  C   UNL     1       2.620   6.812  18.791  0.00  0.00    +0.000 C 
ATOM      4  C   UNL     1       2.703   5.496  19.089  0.00  0.00    +0.000 C 
ATOM      5  C   UNL     1       3.573   4.690  18.193  0.00  0.00    +0.000 C 
ATOM      6  O   UNL     1       3.103   3.659  17.706  0.00  0.00    +0.000 OA
ATOM      7  C   UNL     1       4.890   5.336  17.695  0.00  0.00    +0.000 C 
ATOM      8  C   UNL     1       5.890   5.805  18.770  0.00  0.00    +0.000 C 
ATOM      9  C   UNL     1       4.481   6.644  16.988  0.00  0.00    +0.000 C 
ATOM     10  O   UNL     1       4.987   7.065  15.948  0.00  0.00    +0.000 OA
ATOM     11  C   UNL     1       3.437   7.435  17.734  0.00  0.00    +0.000 C 
ATOM     12  C   UNL     1       3.261   8.741  17.484  0.00  0.00    +0.000 C 
ATOM     13  O   UNL     1       2.333   9.531  18.137  0.00  0.00    +0.000 OA
ENDROOT
BRANCH   1  14
ATOM     14  C   UNL     1       0.380   9.816  19.587  0.00  0.00    +0.000 C 
BRANCH  14  15
ATOM     15  C   UNL     1      -0.658  10.065  18.489  0.00  0.00    +0.000 C 
BRANCH  15  17
ATOM     16  C   UNL     1      -2.428  11.593  17.586  0.00  0.00    +0.000 C 
ATOM     17  C   UNL     1      -1.544  11.273  18.783  0.00  0.00    +0.000 C 
ENDBRANCH  15  17
ENDBRANCH  14  15
ENDBRANCH   1  14
BRANCH   4  18
ATOM     18  O   UNL     1       1.731   4.858  19.927  0.00  0.00    +0.000 OA
BRANCH  18  19
ATOM     19  C   UNL     1       2.039   3.678  20.560  0.00  0.00    +0.000 C 
ATOM     20  C   UNL     1       1.084   2.569  20.128  0.00  0.00    +0.000 C 
ATOM     21  O   UNL     1       2.880   3.542  21.439  0.00  0.00    +0.000 OA
ENDBRANCH  18  19
ENDBRANCH   4  18
BRANCH   7  22
ATOM     22  O   UNL     1       5.566   4.451  16.786  0.00  0.00    +0.000 OA
BRANCH  22  23
ATOM     23  C   UNL     1       6.929   4.509  16.812  0.00  0.00    +0.000 C 
ATOM     24  O   UNL     1       7.630   4.180  17.762  0.00  0.00    +0.000 OA
BRANCH  23  25
ATOM     25  C   UNL     1       7.507   4.976  15.501  0.00  0.00    +0.000 C 
BRANCH  25  26
ATOM     26  C   UNL     1       6.663   4.555  14.309  0.00  0.00    +0.000 C 
BRANCH  26  27
ATOM     27  C   UNL     1       7.371   4.873  13.012  0.00  0.00    +0.000 C 
ATOM     28  O   UNL     1       8.168   5.784  12.845  0.00  0.00    +0.000 OA
BRANCH  27  29
ATOM     29  O   UNL     1       6.987   3.988  12.050  0.00  0.00    +0.000 OA
ATOM     30  C   UNL     1       5.836   3.228  12.412  0.00  0.00    +0.000 C 
ENDBRANCH  27  29
ENDBRANCH  26  27
ENDBRANCH  25  26
ENDBRANCH  23  25
ENDBRANCH  22  23
ENDBRANCH   7  22
TORSDOF 11
ENDMDL
