MODEL 1
REMARK VINA RESULT:      -7.2      0.000      0.000
REMARK  Name = 
REMARK  8 active torsions:
REMARK  status: ('A' for Active; 'I' for Inactive)
REMARK    1  A    between atoms: N_1  and  N_2
REMARK    2  A    between atoms: C_3  and  C_4
REMARK    3  A    between atoms: C_4  and  O_5
REMARK    4  A    between atoms: O_5  and  C_6
REMARK    5  A    between atoms: C_15  and  S_16
REMARK    6  A    between atoms: S_16  and  C_17
REMARK    7  A    between atoms: C_17  and  C_18
REMARK    8  A    between atoms: N_20  and  C_21
REMARK                            x       y       z     vdW  Elec       q    Type
REMARK                         _______ _______ _______ _____ _____    ______ ____
ROOT
ATOM      1  N   UNL     1       5.006   5.997  17.789  0.00  0.00    +0.000 N 
ATOM      2  C   UNL     1       4.268   5.924  18.950  0.00  0.00    +0.000 A 
ATOM      3  N   UNL     1       4.981   5.287  19.866  0.00  0.00    +0.000 NA
ATOM      4  N   UNL     1       6.198   4.950  19.316  0.00  0.00    +0.000 NA
ATOM      5  C   UNL     1       6.199   5.372  18.073  0.00  0.00    +0.000 A 
ENDROOT
BRANCH   1   6
ATOM      6  N   UNL     1       4.618   6.598  16.542  0.00  0.00    +0.000 N 
ATOM      7  H   UNL     1       3.638   6.447  16.313  0.00  0.00    +0.000 HD
ATOM      8  H   UNL     1       5.146   6.186  15.772  0.00  0.00    +0.000 HD
ENDBRANCH   1   6
BRANCH   2   9
ATOM      9  C   UNL     1       2.920   6.529  19.143  0.00  0.00    +0.000 C 
BRANCH   9  10
ATOM     10  O   UNL     1       1.997   5.804  18.324  0.00  0.00    +0.000 OA
BRANCH  10  11
ATOM     11  C   UNL     1       1.779   4.487  18.652  0.00  0.00    +0.000 A 
ATOM     12  C   UNL     1       1.246   4.281  19.930  0.00  0.00    +0.000 A 
ATOM     13  C   UNL     1       1.001   2.987  20.408  0.00  0.00    +0.000 A 
ATOM     14  C   UNL     1       1.284   1.882  19.608  0.00  0.00    +0.000 A 
ATOM     15  C   UNL     1       1.804   2.073  18.330  0.00  0.00    +0.000 A 
ATOM     16  C   UNL     1       2.046   3.366  17.860  0.00  0.00    +0.000 A 
ATOM     17  F   UNL     1       2.555   3.487  16.625  0.00  0.00    +0.000 F 
ENDBRANCH  10  11
ENDBRANCH   9  10
ENDBRANCH   2   9
BRANCH   5  18
ATOM     18  S   UNL     1       7.477   5.181  16.919  0.00  0.00    +0.000 S 
BRANCH  18  19
ATOM     19  C   UNL     1       6.866   3.810  15.897  0.00  0.00    +0.000 C 
BRANCH  19  20
ATOM     20  C   UNL     1       6.509   4.283  14.501  0.00  0.00    +0.000 C 
ATOM     21  O   UNL     1       6.456   5.476  14.195  0.00  0.00    +0.000 OA
ATOM     22  N   UNL     1       6.271   3.246  13.619  0.00  0.00    +0.000 N 
ATOM     23  H   UNL     1       6.176   2.307  14.008  0.00  0.00    +0.000 HD
BRANCH  22  24
ATOM     24  C   UNL     1       5.984   3.415  12.235  0.00  0.00    +0.000 C 
ATOM     25  C   UNL     1       5.554   2.200  11.451  0.00  0.00    +0.000 C 
ATOM     26  C   UNL     1       4.593   3.332  11.669  0.00  0.00    +0.000 C 
ENDBRANCH  22  24
ENDBRANCH  19  20
ENDBRANCH  18  19
ENDBRANCH   5  18
TORSDOF 8
ENDMDL
MODEL 2
REMARK VINA RESULT:      -7.0      1.697      2.130
REMARK  Name = 
REMARK  8 active torsions:
REMARK  status: ('A' for Active; 'I' for Inactive)
REMARK    1  A    between atoms: N_1  and  N_2
REMARK    2  A    between atoms: C_3  and  C_4
REMARK    3  A    between atoms: C_4  and  O_5
REMARK    4  A    between atoms: O_5  and  C_6
REMARK    5  A    between atoms: C_15  and  S_16
REMARK    6  A    between atoms: S_16  and  C_17
REMARK    7  A    between atoms: C_17  and  C_18
REMARK    8  A    between atoms: N_20  and  C_21
REMARK                            x       y       z     vdW  Elec       q    Type
REMARK                         _______ _______ _______ _____ _____    ______ ____
ROOT
ATOM      1  N   UNL     1       5.885   5.232  16.921  0.00  0.00    +0.000 N 
ATOM      2  C   UNL     1       6.153   4.999  18.252  0.00  0.00    +0.000 A 
ATOM      3  N   UNL     1       7.338   4.416  18.350  0.00  0.00    +0.000 NA
ATOM      4  N   UNL     1       7.862   4.275  17.084  0.00  0.00    +0.000 NA
ATOM      5  C   UNL     1       6.983   4.759  16.238  0.00  0.00    +0.000 A 
ENDROOT
BRANCH   1   6
ATOM      6  N   UNL     1       4.711   5.841  16.358  0.00  0.00    +0.000 N 
ATOM      7  H   UNL     1       4.629   5.699  15.354  0.00  0.00    +0.000 HD
ATOM      8  H   UNL     1       4.738   6.852  16.491  0.00  0.00    +0.000 HD
ENDBRANCH   1   6
BRANCH   2   9
ATOM      9  C   UNL     1       5.272   5.406  19.383  0.00  0.00    +0.000 C 
BRANCH   9  10
ATOM     10  O   UNL     1       3.954   5.596  18.860  0.00  0.00    +0.000 OA
BRANCH  10  11
ATOM     11  C   UNL     1       2.989   4.706  19.269  0.00  0.00    +0.000 A 
ATOM     12  C   UNL     1       2.770   4.673  20.652  0.00  0.00    +0.000 A 
ATOM     13  C   UNL     1       1.837   3.791  21.211  0.00  0.00    +0.000 A 
ATOM     14  C   UNL     1       1.108   2.932  20.391  0.00  0.00    +0.000 A 
ATOM     15  C   UNL     1       1.308   2.963  19.013  0.00  0.00    +0.000 A 
ATOM     16  C   UNL     1       2.239   3.845  18.461  0.00  0.00    +0.000 A 
ATOM     17  F   UNL     1       2.395   3.823  17.130  0.00  0.00    +0.000 F 
ENDBRANCH  10  11
ENDBRANCH   9  10
ENDBRANCH   2   9
BRANCH   5  18
ATOM     18  S   UNL     1       7.127   4.803  14.512  0.00  0.00    +0.000 S 
BRANCH  18  19
ATOM     19  C   UNL     1       5.860   3.610  13.993  0.00  0.00    +0.000 C 
BRANCH  19  20
ATOM     20  C   UNL     1       5.813   3.483  12.482  0.00  0.00    +0.000 C 
ATOM     21  O   UNL     1       6.815   3.258  11.800  0.00  0.00    +0.000 OA
ATOM     22  N   UNL     1       4.540   3.628  11.964  0.00  0.00    +0.000 N 
ATOM     23  H   UNL     1       3.812   3.976  12.589  0.00  0.00    +0.000 HD
BRANCH  22  24
ATOM     24  C   UNL     1       4.210   3.486  10.586  0.00  0.00    +0.000 C 
ATOM     25  C   UNL     1       2.914   2.797  10.239  0.00  0.00    +0.000 C 
ATOM     26  C   UNL     1       3.097   4.253   9.926  0.00  0.00    +0.000 C 
ENDBRANCH  22  24
ENDBRANCH  19  20
ENDBRANCH  18  19
ENDBRANCH   5  18
TORSDOF 8
ENDMDL
MODEL 3
REMARK VINA RESULT:      -7.0      1.039      1.432
REMARK  Name = 
REMARK  8 active torsions:
REMARK  status: ('A' for Active; 'I' for Inactive)
REMARK    1  A    between atoms: N_1  and  N_2
REMARK    2  A    between atoms: C_3  and  C_4
REMARK    3  A    between atoms: C_4  and  O_5
REMARK    4  A    between atoms: O_5  and  C_6
REMARK    5  A    between atoms: C_15  and  S_16
REMARK    6  A    between atoms: S_16  and  C_17
REMARK    7  A    between atoms: C_17  and  C_18
REMARK    8  A    between atoms: N_20  and  C_21
REMARK                            x       y       z     vdW  Elec       q    Type
REMARK                         _______ _______ _______ _____ _____    ______ ____
ROOT
ATOM      1  N   UNL     1       4.938   6.133  17.755  0.00  0.00    +0.000 N 
ATOM      2  C   UNL     1       4.240   5.992  18.934  0.00  0.00    +0.000 A 
ATOM      3  N   UNL     1       4.984   5.306  19.788  0.00  0.00    +0.000 NA
ATOM      4  N   UNL     1       6.182   5.004  19.179  0.00  0.00    +0.000 NA
ATOM      5  C   UNL     1       6.140   5.496  17.962  0.00  0.00    +0.000 A 
ENDROOT
BRANCH   1   6
ATOM      6  N   UNL     1       4.507   6.803  16.558  0.00  0.00    +0.000 N 
ATOM      7  H   UNL     1       4.797   7.777  16.518  0.00  0.00    +0.000 HD
ATOM      8  H   UNL     1       3.488   6.817  16.508  0.00  0.00    +0.000 HD
ENDBRANCH   1   6
BRANCH   2   9
ATOM      9  C   UNL     1       2.898   6.582  19.207  0.00  0.00    +0.000 C 
BRANCH   9  10
ATOM     10  O   UNL     1       1.944   5.877  18.408  0.00  0.00    +0.000 OA
BRANCH  10  11
ATOM     11  C   UNL     1       1.814   4.528  18.641  0.00  0.00    +0.000 A 
ATOM     12  C   UNL     1       2.312   3.705  17.624  0.00  0.00    +0.000 A 
ATOM     13  C   UNL     1       2.219   2.311  17.715  0.00  0.00    +0.000 A 
ATOM     14  C   UNL     1       1.627   1.722  18.832  0.00  0.00    +0.000 A 
ATOM     15  C   UNL     1       1.138   2.528  19.857  0.00  0.00    +0.000 A 
ATOM     16  C   UNL     1       1.235   3.918  19.759  0.00  0.00    +0.000 A 
ATOM     17  F   UNL     1       0.738   4.643  20.772  0.00  0.00    +0.000 F 
ENDBRANCH  10  11
ENDBRANCH   9  10
ENDBRANCH   2   9
BRANCH   5  18
ATOM     18  S   UNL     1       7.378   5.374  16.757  0.00  0.00    +0.000 S 
BRANCH  18  19
ATOM     19  C   UNL     1       6.872   3.891  15.839  0.00  0.00    +0.000 C 
BRANCH  19  20
ATOM     20  C   UNL     1       6.241   4.257  14.510  0.00  0.00    +0.000 C 
ATOM     21  O   UNL     1       5.640   5.318  14.327  0.00  0.00    +0.000 OA
ATOM     22  N   UNL     1       6.427   3.295  13.535  0.00  0.00    +0.000 N 
ATOM     23  H   UNL     1       6.789   2.387  13.831  0.00  0.00    +0.000 HD
BRANCH  22  24
ATOM     24  C   UNL     1       5.995   3.422  12.185  0.00  0.00    +0.000 C 
ATOM     25  C   UNL     1       5.560   2.170  11.464  0.00  0.00    +0.000 C 
ATOM     26  C   UNL     1       4.562   3.251  11.762  0.00  0.00    +0.000 C 
ENDBRANCH  22  24
ENDBRANCH  19  20
ENDBRANCH  18  19
ENDBRANCH   5  18
TORSDOF 8
ENDMDL
MODEL 4
REMARK VINA RESULT:      -6.9      5.112      8.443
REMARK  Name = 
REMARK  8 active torsions:
REMARK  status: ('A' for Active; 'I' for Inactive)
REMARK    1  A    between atoms: N_1  and  N_2
REMARK    2  A    between atoms: C_3  and  C_4
REMARK    3  A    between atoms: C_4  and  O_5
REMARK    4  A    between atoms: O_5  and  C_6
REMARK    5  A    between atoms: C_15  and  S_16
REMARK    6  A    between atoms: S_16  and  C_17
REMARK    7  A    between atoms: C_17  and  C_18
REMARK    8  A    between atoms: N_20  and  C_21
REMARK                            x       y       z     vdW  Elec       q    Type
REMARK                         _______ _______ _______ _____ _____    ______ ____
ROOT
ATOM      1  N   UNL     1       7.430   6.343  18.478  0.00  0.00    +0.000 N 
ATOM      2  C   UNL     1       7.871   7.590  18.094  0.00  0.00    +0.000 A 
ATOM      3  N   UNL     1       7.269   7.924  16.963  0.00  0.00    +0.000 NA
ATOM      4  N   UNL     1       6.418   6.903  16.603  0.00  0.00    +0.000 NA
ATOM      5  C   UNL     1       6.527   5.960  17.511  0.00  0.00    +0.000 A 
ENDROOT
BRANCH   1   6
ATOM      6  N   UNL     1       7.824   5.594  19.640  0.00  0.00    +0.000 N 
ATOM      7  H   UNL     1       8.820   5.390  19.665  0.00  0.00    +0.000 HD
ATOM      8  H   UNL     1       7.358   4.686  19.650  0.00  0.00    +0.000 HD
ENDBRANCH   1   6
BRANCH   2   9
ATOM      9  C   UNL     1       8.819   8.436  18.874  0.00  0.00    +0.000 C 
BRANCH   9  10
ATOM     10  O   UNL     1       8.562   9.802  18.534  0.00  0.00    +0.000 OA
BRANCH  10  11
ATOM     11  C   UNL     1       9.510  10.724  18.908  0.00  0.00    +0.000 A 
ATOM     12  C   UNL     1      10.251  11.265  17.850  0.00  0.00    +0.000 A 
ATOM     13  C   UNL     1      11.272  12.194  18.088  0.00  0.00    +0.000 A 
ATOM     14  C   UNL     1      11.562  12.595  19.391  0.00  0.00    +0.000 A 
ATOM     15  C   UNL     1      10.825  12.073  20.451  0.00  0.00    +0.000 A 
ATOM     16  C   UNL     1       9.808  11.148  20.207  0.00  0.00    +0.000 A 
ATOM     17  F   UNL     1       9.139  10.673  21.268  0.00  0.00    +0.000 F 
ENDBRANCH  10  11
ENDBRANCH   9  10
ENDBRANCH   2   9
BRANCH   5  18
ATOM     18  S   UNL     1       5.696   4.440  17.526  0.00  0.00    +0.000 S 
BRANCH  18  19
ATOM     19  C   UNL     1       3.967   4.948  17.302  0.00  0.00    +0.000 C 
BRANCH  19  20
ATOM     20  C   UNL     1       3.014   3.905  17.851  0.00  0.00    +0.000 C 
ATOM     21  O   UNL     1       2.209   3.298  17.141  0.00  0.00    +0.000 OA
ATOM     22  N   UNL     1       3.156   3.699  19.210  0.00  0.00    +0.000 N 
ATOM     23  H   UNL     1       3.728   4.365  19.732  0.00  0.00    +0.000 HD
BRANCH  22  24
ATOM     24  C   UNL     1       2.431   2.728  19.958  0.00  0.00    +0.000 C 
ATOM     25  C   UNL     1       2.322   2.927  21.450  0.00  0.00    +0.000 C 
ATOM     26  C   UNL     1       1.095   3.009  20.590  0.00  0.00    +0.000 C 
ENDBRANCH  22  24
ENDBRANCH  19  20
ENDBRANCH  18  19
ENDBRANCH   5  18
TORSDOF 8
ENDMDL
MODEL 5
REMARK VINA RESULT:      -6.9      2.442      6.689
REMARK  Name = 
REMARK  8 active torsions:
REMARK  status: ('A' for Active; 'I' for Inactive)
REMARK    1  A    between atoms: N_1  and  N_2
REMARK    2  A    between atoms: C_3  and  C_4
REMARK    3  A    between atoms: C_4  and  O_5
REMARK    4  A    between atoms: O_5  and  C_6
REMARK    5  A    between atoms: C_15  and  S_16
REMARK    6  A    between atoms: S_16  and  C_17
REMARK    7  A    between atoms: C_17  and  C_18
REMARK    8  A    between atoms: N_20  and  C_21
REMARK                            x       y       z     vdW  Elec       q    Type
REMARK                         _______ _______ _______ _____ _____    ______ ____
ROOT
ATOM      1  N   UNL     1       5.367   5.839  17.512  0.00  0.00    +0.000 N 
ATOM      2  C   UNL     1       6.403   4.939  17.631  0.00  0.00    +0.000 A 
ATOM      3  N   UNL     1       6.253   4.266  18.761  0.00  0.00    +0.000 NA
ATOM      4  N   UNL     1       5.110   4.711  19.387  0.00  0.00    +0.000 NA
ATOM      5  C   UNL     1       4.593   5.656  18.636  0.00  0.00    +0.000 A 
ENDROOT
BRANCH   1   6
ATOM      6  N   UNL     1       5.138   6.774  16.445  0.00  0.00    +0.000 N 
ATOM      7  H   UNL     1       5.310   6.379  15.524  0.00  0.00    +0.000 HD
ATOM      8  H   UNL     1       5.775   7.568  16.527  0.00  0.00    +0.000 HD
ENDBRANCH   1   6
BRANCH   2   9
ATOM      9  C   UNL     1       7.467   4.725  16.609  0.00  0.00    +0.000 C 
BRANCH   9  10
ATOM     10  O   UNL     1       7.174   5.571  15.493  0.00  0.00    +0.000 OA
BRANCH  10  11
ATOM     11  C   UNL     1       6.960   4.952  14.284  0.00  0.00    +0.000 A 
ATOM     12  C   UNL     1       5.845   4.107  14.247  0.00  0.00    +0.000 A 
ATOM     13  C   UNL     1       5.525   3.388  13.088  0.00  0.00    +0.000 A 
ATOM     14  C   UNL     1       6.318   3.511  11.948  0.00  0.00    +0.000 A 
ATOM     15  C   UNL     1       7.424   4.358  11.968  0.00  0.00    +0.000 A 
ATOM     16  C   UNL     1       7.737   5.072  13.127  0.00  0.00    +0.000 A 
ATOM     17  F   UNL     1       8.818   5.864  13.089  0.00  0.00    +0.000 F 
ENDBRANCH  10  11
ENDBRANCH   9  10
ENDBRANCH   2   9
BRANCH   5  18
ATOM     18  S   UNL     1       3.164   6.576  18.973  0.00  0.00    +0.000 S 
BRANCH  18  19
ATOM     19  C   UNL     1       1.933   5.771  17.908  0.00  0.00    +0.000 C 
BRANCH  19  20
ATOM     20  C   UNL     1       1.699   4.333  18.329  0.00  0.00    +0.000 C 
ATOM     21  O   UNL     1       1.350   3.455  17.538  0.00  0.00    +0.000 OA
ATOM     22  N   UNL     1       1.932   4.115  19.673  0.00  0.00    +0.000 N 
ATOM     23  H   UNL     1       2.053   4.934  20.271  0.00  0.00    +0.000 HD
BRANCH  22  24
ATOM     24  C   UNL     1       1.852   2.844  20.310  0.00  0.00    +0.000 C 
ATOM     25  C   UNL     1       2.771   2.581  21.477  0.00  0.00    +0.000 C 
ATOM     26  C   UNL     1       1.287   2.652  21.691  0.00  0.00    +0.000 C 
ENDBRANCH  22  24
ENDBRANCH  19  20
ENDBRANCH  18  19
ENDBRANCH   5  18
TORSDOF 8
ENDMDL
MODEL 6
REMARK VINA RESULT:      -6.9      1.098      1.644
REMARK  Name = 
REMARK  8 active torsions:
REMARK  status: ('A' for Active; 'I' for Inactive)
REMARK    1  A    between atoms: N_1  and  N_2
REMARK    2  A    between atoms: C_3  and  C_4
REMARK    3  A    between atoms: C_4  and  O_5
REMARK    4  A    between atoms: O_5  and  C_6
REMARK    5  A    between atoms: C_15  and  S_16
REMARK    6  A    between atoms: S_16  and  C_17
REMARK    7  A    between atoms: C_17  and  C_18
REMARK    8  A    between atoms: N_20  and  C_21
REMARK                            x       y       z     vdW  Elec       q    Type
REMARK                         _______ _______ _______ _____ _____    ______ ____
ROOT
ATOM      1  N   UNL     1       5.330   5.900  18.457  0.00  0.00    +0.000 N 
ATOM      2  C   UNL     1       4.047   6.389  18.565  0.00  0.00    +0.000 A 
ATOM      3  N   UNL     1       3.719   6.977  17.424  0.00  0.00    +0.000 NA
ATOM      4  N   UNL     1       4.781   6.865  16.555  0.00  0.00    +0.000 NA
ATOM      5  C   UNL     1       5.740   6.226  17.184  0.00  0.00    +0.000 A 
ENDROOT
BRANCH   1   6
ATOM      6  N   UNL     1       6.085   5.196  19.456  0.00  0.00    +0.000 N 
ATOM      7  H   UNL     1       6.492   5.811  20.157  0.00  0.00    +0.000 HD
ATOM      8  H   UNL     1       6.874   4.710  19.027  0.00  0.00    +0.000 HD
ENDBRANCH   1   6
BRANCH   2   9
ATOM      9  C   UNL     1       3.165   6.215  19.754  0.00  0.00    +0.000 C 
BRANCH   9  10
ATOM     10  O   UNL     1       3.367   4.889  20.253  0.00  0.00    +0.000 OA
BRANCH  10  11
ATOM     11  C   UNL     1       2.613   3.890  19.683  0.00  0.00    +0.000 A 
ATOM     12  C   UNL     1       1.264   3.885  20.059  0.00  0.00    +0.000 A 
ATOM     13  C   UNL     1       0.387   2.906  19.578  0.00  0.00    +0.000 A 
ATOM     14  C   UNL     1       0.850   1.918  18.710  0.00  0.00    +0.000 A 
ATOM     15  C   UNL     1       2.187   1.918  18.319  0.00  0.00    +0.000 A 
ATOM     16  C   UNL     1       3.056   2.898  18.802  0.00  0.00    +0.000 A 
ATOM     17  F   UNL     1       4.334   2.842  18.398  0.00  0.00    +0.000 F 
ENDBRANCH  10  11
ENDBRANCH   9  10
ENDBRANCH   2   9
BRANCH   5  18
ATOM     18  S   UNL     1       7.310   5.844  16.557  0.00  0.00    +0.000 S 
BRANCH  18  19
ATOM     19  C   UNL     1       7.007   4.270  15.705  0.00  0.00    +0.000 C 
BRANCH  19  20
ATOM     20  C   UNL     1       6.913   4.468  14.204  0.00  0.00    +0.000 C 
ATOM     21  O   UNL     1       7.511   5.369  13.612  0.00  0.00    +0.000 OA
ATOM     22  N   UNL     1       6.111   3.532  13.580  0.00  0.00    +0.000 N 
ATOM     23  H   UNL     1       5.532   2.935  14.173  0.00  0.00    +0.000 HD
BRANCH  22  24
ATOM     24  C   UNL     1       5.909   3.452  12.173  0.00  0.00    +0.000 C 
ATOM     25  C   UNL     1       5.606   2.098  11.581  0.00  0.00    +0.000 C 
ATOM     26  C   UNL     1       4.567   3.180  11.551  0.00  0.00    +0.000 C 
ENDBRANCH  22  24
ENDBRANCH  19  20
ENDBRANCH  18  19
ENDBRANCH   5  18
TORSDOF 8
ENDMDL
MODEL 7
REMARK VINA RESULT:      -6.8      2.069      2.771
REMARK  Name = 
REMARK  8 active torsions:
REMARK  status: ('A' for Active; 'I' for Inactive)
REMARK    1  A    between atoms: N_1  and  N_2
REMARK    2  A    between atoms: C_3  and  C_4
REMARK    3  A    between atoms: C_4  and  O_5
REMARK    4  A    between atoms: O_5  and  C_6
REMARK    5  A    between atoms: C_15  and  S_16
REMARK    6  A    between atoms: S_16  and  C_17
REMARK    7  A    between atoms: C_17  and  C_18
REMARK    8  A    between atoms: N_20  and  C_21
REMARK                            x       y       z     vdW  Elec       q    Type
REMARK                         _______ _______ _______ _____ _____    ______ ____
ROOT
ATOM      1  N   UNL     1       6.317   5.068  17.185  0.00  0.00    +0.000 N 
ATOM      2  C   UNL     1       5.403   5.682  18.013  0.00  0.00    +0.000 A 
ATOM      3  N   UNL     1       4.634   6.474  17.282  0.00  0.00    +0.000 NA
ATOM      4  N   UNL     1       5.030   6.375  15.967  0.00  0.00    +0.000 NA
ATOM      5  C   UNL     1       6.040   5.538  15.921  0.00  0.00    +0.000 A 
ENDROOT
BRANCH   1   6
ATOM      6  N   UNL     1       7.344   4.133  17.556  0.00  0.00    +0.000 N 
ATOM      7  H   UNL     1       7.105   3.581  18.376  0.00  0.00    +0.000 HD
ATOM      8  H   UNL     1       8.202   4.629  17.799  0.00  0.00    +0.000 HD
ENDBRANCH   1   6
BRANCH   2   9
ATOM      9  C   UNL     1       5.274   5.429  19.476  0.00  0.00    +0.000 C 
BRANCH   9  10
ATOM     10  O   UNL     1       5.036   4.029  19.656  0.00  0.00    +0.000 OA
BRANCH  10  11
ATOM     11  C   UNL     1       3.755   3.584  19.431  0.00  0.00    +0.000 A 
ATOM     12  C   UNL     1       3.614   2.731  18.330  0.00  0.00    +0.000 A 
ATOM     13  C   UNL     1       2.360   2.225  17.967  0.00  0.00    +0.000 A 
ATOM     14  C   UNL     1       1.228   2.566  18.706  0.00  0.00    +0.000 A 
ATOM     15  C   UNL     1       1.356   3.405  19.811  0.00  0.00    +0.000 A 
ATOM     16  C   UNL     1       2.610   3.905  20.168  0.00  0.00    +0.000 A 
ATOM     17  F   UNL     1       2.669   4.714  21.235  0.00  0.00    +0.000 F 
ENDBRANCH  10  11
ENDBRANCH   9  10
ENDBRANCH   2   9
BRANCH   5  18
ATOM     18  S   UNL     1       6.935   5.077  14.512  0.00  0.00    +0.000 S 
BRANCH  18  19
ATOM     19  C   UNL     1       6.121   3.525  14.034  0.00  0.00    +0.000 C 
BRANCH  19  20
ATOM     20  C   UNL     1       6.002   3.411  12.526  0.00  0.00    +0.000 C 
ATOM     21  O   UNL     1       6.967   3.167  11.798  0.00  0.00    +0.000 OA
ATOM     22  N   UNL     1       4.711   3.588  12.067  0.00  0.00    +0.000 N 
ATOM     23  H   UNL     1       4.020   3.948  12.727  0.00  0.00    +0.000 HD
BRANCH  22  24
ATOM     24  C   UNL     1       4.316   3.463  10.705  0.00  0.00    +0.000 C 
ATOM     25  C   UNL     1       2.981   2.822  10.414  0.00  0.00    +0.000 C 
ATOM     26  C   UNL     1       3.202   4.272  10.097  0.00  0.00    +0.000 C 
ENDBRANCH  22  24
ENDBRANCH  19  20
ENDBRANCH  18  19
ENDBRANCH   5  18
TORSDOF 8
ENDMDL
MODEL 8
REMARK VINA RESULT:      -6.7      3.799      5.967
REMARK  Name = 
REMARK  8 active torsions:
REMARK  status: ('A' for Active; 'I' for Inactive)
REMARK    1  A    between atoms: N_1  and  N_2
REMARK    2  A    between atoms: C_3  and  C_4
REMARK    3  A    between atoms: C_4  and  O_5
REMARK    4  A    between atoms: O_5  and  C_6
REMARK    5  A    between atoms: C_15  and  S_16
REMARK    6  A    between atoms: S_16  and  C_17
REMARK    7  A    between atoms: C_17  and  C_18
REMARK    8  A    between atoms: N_20  and  C_21
REMARK                            x       y       z     vdW  Elec       q    Type
REMARK                         _______ _______ _______ _____ _____    ______ ____
ROOT
ATOM      1  N   UNL     1       4.767   5.601  18.125  0.00  0.00    +0.000 N 
ATOM      2  C   UNL     1       3.698   5.087  18.825  0.00  0.00    +0.000 A 
ATOM      3  N   UNL     1       4.108   4.032  19.513  0.00  0.00    +0.000 NA
ATOM      4  N   UNL     1       5.453   3.854  19.278  0.00  0.00    +0.000 NA
ATOM      5  C   UNL     1       5.835   4.793  18.443  0.00  0.00    +0.000 A 
ENDROOT
BRANCH   1   6
ATOM      6  N   UNL     1       4.773   6.740  17.248  0.00  0.00    +0.000 N 
ATOM      7  H   UNL     1       5.709   7.074  17.033  0.00  0.00    +0.000 HD
ATOM      8  H   UNL     1       4.294   7.527  17.687  0.00  0.00    +0.000 HD
ENDBRANCH   1   6
BRANCH   2   9
ATOM      9  C   UNL     1       2.329   5.677  18.846  0.00  0.00    +0.000 C 
BRANCH   9  10
ATOM     10  O   UNL     1       2.258   6.569  19.963  0.00  0.00    +0.000 OA
BRANCH  10  11
ATOM     11  C   UNL     1       1.796   7.839  19.715  0.00  0.00    +0.000 A 
ATOM     12  C   UNL     1       1.993   8.290  18.404  0.00  0.00    +0.000 A 
ATOM     13  C   UNL     1       1.598   9.577  18.018  0.00  0.00    +0.000 A 
ATOM     14  C   UNL     1       0.998  10.430  18.942  0.00  0.00    +0.000 A 
ATOM     15  C   UNL     1       0.785   9.991  20.247  0.00  0.00    +0.000 A 
ATOM     16  C   UNL     1       1.181   8.706  20.624  0.00  0.00    +0.000 A 
ATOM     17  F   UNL     1       0.959   8.342  21.896  0.00  0.00    +0.000 F 
ENDBRANCH  10  11
ENDBRANCH   9  10
ENDBRANCH   2   9
BRANCH   5  18
ATOM     18  S   UNL     1       7.426   5.012  17.794  0.00  0.00    +0.000 S 
BRANCH  18  19
ATOM     19  C   UNL     1       8.092   6.328  18.853  0.00  0.00    +0.000 C 
BRANCH  19  20
ATOM     20  C   UNL     1       8.046   7.672  18.152  0.00  0.00    +0.000 C 
ATOM     21  O   UNL     1       7.433   7.853  17.098  0.00  0.00    +0.000 OA
ATOM     22  N   UNL     1       8.742   8.660  18.822  0.00  0.00    +0.000 N 
ATOM     23  H   UNL     1       9.350   8.372  19.590  0.00  0.00    +0.000 HD
BRANCH  22  24
ATOM     24  C   UNL     1       8.800  10.023  18.414  0.00  0.00    +0.000 C 
ATOM     25  C   UNL     1       9.302  11.036  19.414  0.00  0.00    +0.000 C 
ATOM     26  C   UNL     1      10.094  10.752  18.171  0.00  0.00    +0.000 C 
ENDBRANCH  22  24
ENDBRANCH  19  20
ENDBRANCH  18  19
ENDBRANCH   5  18
TORSDOF 8
ENDMDL
MODEL 9
REMARK VINA RESULT:      -6.7      5.027      8.374
REMARK  Name = 
REMARK  8 active torsions:
REMARK  status: ('A' for Active; 'I' for Inactive)
REMARK    1  A    between atoms: N_1  and  N_2
REMARK    2  A    between atoms: C_3  and  C_4
REMARK    3  A    between atoms: C_4  and  O_5
REMARK    4  A    between atoms: O_5  and  C_6
REMARK    5  A    between atoms: C_15  and  S_16
REMARK    6  A    between atoms: S_16  and  C_17
REMARK    7  A    between atoms: C_17  and  C_18
REMARK    8  A    between atoms: N_20  and  C_21
REMARK                            x       y       z     vdW  Elec       q    Type
REMARK                         _______ _______ _______ _____ _____    ______ ____
ROOT
ATOM      1  N   UNL     1       7.508   6.385  18.504  0.00  0.00    +0.000 N 
ATOM      2  C   UNL     1       7.780   7.619  17.954  0.00  0.00    +0.000 A 
ATOM      3  N   UNL     1       7.068   7.756  16.846  0.00  0.00    +0.000 NA
ATOM      4  N   UNL     1       6.314   6.617  16.668  0.00  0.00    +0.000 NA
ATOM      5  C   UNL     1       6.590   5.803  17.660  0.00  0.00    +0.000 A 
ENDROOT
BRANCH   1   6
ATOM      6  N   UNL     1       8.062   5.820  19.704  0.00  0.00    +0.000 N 
ATOM      7  H   UNL     1       7.395   5.259  20.227  0.00  0.00    +0.000 HD
ATOM      8  H   UNL     1       8.357   6.561  20.340  0.00  0.00    +0.000 HD
ENDBRANCH   1   6
BRANCH   2   9
ATOM      9  C   UNL     1       8.677   8.643  18.561  0.00  0.00    +0.000 C 
BRANCH   9  10
ATOM     10  O   UNL     1       8.208   9.930  18.148  0.00  0.00    +0.000 OA
BRANCH  10  11
ATOM     11  C   UNL     1       9.041  10.999  18.381  0.00  0.00    +0.000 A 
ATOM     12  C   UNL     1      10.055  10.760  19.316  0.00  0.00    +0.000 A 
ATOM     13  C   UNL     1      10.957  11.769  19.673  0.00  0.00    +0.000 A 
ATOM     14  C   UNL     1      10.858  13.033  19.092  0.00  0.00    +0.000 A 
ATOM     15  C   UNL     1       9.861  13.281  18.152  0.00  0.00    +0.000 A 
ATOM     16  C   UNL     1       8.964  12.269  17.801  0.00  0.00    +0.000 A 
ATOM     17  F   UNL     1       8.021  12.569  16.896  0.00  0.00    +0.000 F 
ENDBRANCH  10  11
ENDBRANCH   9  10
ENDBRANCH   2   9
BRANCH   5  18
ATOM     18  S   UNL     1       5.938   4.216  17.904  0.00  0.00    +0.000 S 
BRANCH  18  19
ATOM     19  C   UNL     1       4.257   4.388  17.238  0.00  0.00    +0.000 C 
BRANCH  19  20
ATOM     20  C   UNL     1       3.310   4.951  18.279  0.00  0.00    +0.000 C 
ATOM     21  O   UNL     1       2.684   6.000  18.112  0.00  0.00    +0.000 OA
ATOM     22  N   UNL     1       3.212   4.163  19.410  0.00  0.00    +0.000 N 
ATOM     23  H   UNL     1       3.892   3.409  19.520  0.00  0.00    +0.000 HD
BRANCH  22  24
ATOM     24  C   UNL     1       2.343   4.429  20.505  0.00  0.00    +0.000 C 
ATOM     25  C   UNL     1       1.041   3.670  20.572  0.00  0.00    +0.000 C 
ATOM     26  C   UNL     1       2.096   3.444  21.615  0.00  0.00    +0.000 C 
ENDBRANCH  22  24
ENDBRANCH  19  20
ENDBRANCH  18  19
ENDBRANCH   5  18
TORSDOF 8
ENDMDL
