MODEL 1
REMARK VINA RESULT:      -8.0      0.000      0.000
REMARK  Name = 
REMARK  3 active torsions:
REMARK  status: ('A' for Active; 'I' for Inactive)
REMARK    1  A    between atoms: C_2  and  C_3
REMARK    2  A    between atoms: C_3  and  O_4
REMARK    3  A    between atoms: O_4  and  C_5
REMARK                            x       y       z     vdW  Elec       q    Type
REMARK                         _______ _______ _______ _____ _____    ______ ____
ROOT
ATOM      1  C   UNL     1       2.158   8.021  18.321  0.00  0.00    +0.000 C 
ENDROOT
BRANCH   1   3
ATOM      2  O   UNL     1       1.783   7.510  20.624  0.00  0.00    +0.000 OA
ATOM      3  C   UNL     1       1.599   8.321  19.711  0.00  0.00    +0.000 C 
ATOM      4  N   UNL     1       0.879   9.499  19.840  0.00  0.00    +0.000 N 
ATOM      5  C   UNL     1       0.600  10.467  18.766  0.00  0.00    +0.000 C 
ATOM      6  C   UNL     1      -0.089  11.679  19.406  0.00  0.00    +0.000 C 
ATOM      7  C   UNL     1      -0.399  11.166  20.775  0.00  0.00    +0.000 A 
ATOM      8  C   UNL     1      -1.137  11.798  21.765  0.00  0.00    +0.000 A 
ATOM      9  C   UNL     1      -1.265  11.165  23.002  0.00  0.00    +0.000 A 
ATOM     10  C   UNL     1      -0.650   9.927  23.234  0.00  0.00    +0.000 A 
ATOM     11  C   UNL     1       0.096   9.301  22.229  0.00  0.00    +0.000 A 
ATOM     12  C   UNL     1       0.209   9.929  21.001  0.00  0.00    +0.000 A 
ENDBRANCH   1   3
BRANCH   1  13
ATOM     13  O   UNL     1       3.345   7.253  18.426  0.00  0.00    +0.000 OA
BRANCH  13  14
ATOM     14  C   UNL     1       3.317   5.958  17.954  0.00  0.00    +0.000 A 
ATOM     15  C   UNL     1       2.211   5.105  18.103  0.00  0.00    +0.000 A 
ATOM     16  C   UNL     1       2.235   3.821  17.569  0.00  0.00    +0.000 A 
ATOM     17  C   UNL     1       3.362   3.377  16.891  0.00  0.00    +0.000 A 
ATOM     18  C   UNL     1       4.481   4.213  16.749  0.00  0.00    +0.000 A 
ATOM     19  C   UNL     1       5.622   3.763  16.071  0.00  0.00    +0.000 A 
ATOM     20  C   UNL     1       6.725   4.596  15.942  0.00  0.00    +0.000 A 
ATOM     21  C   UNL     1       6.648   5.856  16.496  0.00  0.00    +0.000 A 
ATOM     22  N   UNL     1       5.561   6.326  17.144  0.00  0.00    +0.000 NA
ATOM     23  C   UNL     1       4.477   5.522  17.283  0.00  0.00    +0.000 A 
ENDBRANCH  13  14
ENDBRANCH   1  13
TORSDOF 3
ENDMDL
MODEL 2
REMARK VINA RESULT:      -7.8      1.380      2.620
REMARK  Name = 
REMARK  3 active torsions:
REMARK  status: ('A' for Active; 'I' for Inactive)
REMARK    1  A    between atoms: C_2  and  C_3
REMARK    2  A    between atoms: C_3  and  O_4
REMARK    3  A    between atoms: O_4  and  C_5
REMARK                            x       y       z     vdW  Elec       q    Type
REMARK                         _______ _______ _______ _____ _____    ______ ____
ROOT
ATOM      1  C   UNL     1       2.192   7.814  19.022  0.00  0.00    +0.000 C 
ENDROOT
BRANCH   1   3
ATOM      2  O   UNL     1       1.308   7.560  21.226  0.00  0.00    +0.000 OA
ATOM      3  C   UNL     1       1.451   8.316  20.261  0.00  0.00    +0.000 C 
ATOM      4  N   UNL     1       0.954   9.609  20.195  0.00  0.00    +0.000 N 
ATOM      5  C   UNL     1       1.066  10.524  19.046  0.00  0.00    +0.000 C 
ATOM      6  C   UNL     1       0.511  11.885  19.486  0.00  0.00    +0.000 C 
ATOM      7  C   UNL     1      -0.139  11.543  20.787  0.00  0.00    +0.000 A 
ATOM      8  C   UNL     1      -0.915  12.371  21.585  0.00  0.00    +0.000 A 
ATOM      9  C   UNL     1      -1.386  11.870  22.799  0.00  0.00    +0.000 A 
ATOM     10  C   UNL     1      -1.068  10.564  23.201  0.00  0.00    +0.000 A 
ATOM     11  C   UNL     1      -0.281   9.741  22.390  0.00  0.00    +0.000 A 
ATOM     12  C   UNL     1       0.174  10.240  21.182  0.00  0.00    +0.000 A 
ENDBRANCH   1   3
BRANCH   1  13
ATOM     13  O   UNL     1       3.170   6.857  19.391  0.00  0.00    +0.000 OA
BRANCH  13  14
ATOM     14  C   UNL     1       3.483   5.873  18.476  0.00  0.00    +0.000 A 
ATOM     15  C   UNL     1       4.482   6.015  17.500  0.00  0.00    +0.000 A 
ATOM     16  C   UNL     1       4.772   4.968  16.632  0.00  0.00    +0.000 A 
ATOM     17  C   UNL     1       4.064   3.778  16.726  0.00  0.00    +0.000 A 
ATOM     18  C   UNL     1       3.051   3.628  17.686  0.00  0.00    +0.000 A 
ATOM     19  C   UNL     1       2.331   2.429  17.777  0.00  0.00    +0.000 A 
ATOM     20  C   UNL     1       1.327   2.294  18.727  0.00  0.00    +0.000 A 
ATOM     21  C   UNL     1       1.078   3.366  19.557  0.00  0.00    +0.000 A 
ATOM     22  N   UNL     1       1.761   4.530  19.505  0.00  0.00    +0.000 NA
ATOM     23  C   UNL     1       2.741   4.679  18.579  0.00  0.00    +0.000 A 
ENDBRANCH  13  14
ENDBRANCH   1  13
TORSDOF 3
ENDMDL
MODEL 3
REMARK VINA RESULT:      -7.7      1.371      2.492
REMARK  Name = 
REMARK  3 active torsions:
REMARK  status: ('A' for Active; 'I' for Inactive)
REMARK    1  A    between atoms: C_2  and  C_3
REMARK    2  A    between atoms: C_3  and  O_4
REMARK    3  A    between atoms: O_4  and  C_5
REMARK                            x       y       z     vdW  Elec       q    Type
REMARK                         _______ _______ _______ _____ _____    ______ ____
ROOT
ATOM      1  C   UNL     1       2.233   8.045  18.172  0.00  0.00    +0.000 C 
ENDROOT
BRANCH   1   3
ATOM      2  O   UNL     1       1.937   7.469  20.471  0.00  0.00    +0.000 OA
ATOM      3  C   UNL     1       1.706   8.297  19.585  0.00  0.00    +0.000 C 
ATOM      4  N   UNL     1       0.961   9.453  19.764  0.00  0.00    +0.000 N 
ATOM      5  C   UNL     1       0.629  10.440  18.723  0.00  0.00    +0.000 C 
ATOM      6  C   UNL     1      -0.071  11.618  19.413  0.00  0.00    +0.000 C 
ATOM      7  C   UNL     1      -0.330  11.063  20.777  0.00  0.00    +0.000 A 
ATOM      8  C   UNL     1      -1.054  11.652  21.802  0.00  0.00    +0.000 A 
ATOM      9  C   UNL     1      -1.131  10.986  23.026  0.00  0.00    +0.000 A 
ATOM     10  C   UNL     1      -0.479   9.758  23.209  0.00  0.00    +0.000 A 
ATOM     11  C   UNL     1       0.252   9.177  22.169  0.00  0.00    +0.000 A 
ATOM     12  C   UNL     1       0.315   9.838  20.954  0.00  0.00    +0.000 A 
ENDBRANCH   1   3
BRANCH   1  13
ATOM     13  O   UNL     1       2.033   6.690  17.810  0.00  0.00    +0.000 OA
BRANCH  13  14
ATOM     14  C   UNL     1       3.130   5.854  17.819  0.00  0.00    +0.000 A 
ATOM     15  C   UNL     1       4.444   6.302  17.607  0.00  0.00    +0.000 A 
ATOM     16  C   UNL     1       5.510   5.410  17.667  0.00  0.00    +0.000 A 
ATOM     17  C   UNL     1       5.272   4.068  17.930  0.00  0.00    +0.000 A 
ATOM     18  C   UNL     1       3.962   3.604  18.126  0.00  0.00    +0.000 A 
ATOM     19  C   UNL     1       3.721   2.248  18.385  0.00  0.00    +0.000 A 
ATOM     20  C   UNL     1       2.420   1.798  18.573  0.00  0.00    +0.000 A 
ATOM     21  C   UNL     1       1.403   2.725  18.497  0.00  0.00    +0.000 A 
ATOM     22  N   UNL     1       1.600   4.040  18.262  0.00  0.00    +0.000 NA
ATOM     23  C   UNL     1       2.864   4.494  18.072  0.00  0.00    +0.000 A 
ENDBRANCH  13  14
ENDBRANCH   1  13
TORSDOF 3
ENDMDL
MODEL 4
REMARK VINA RESULT:      -7.7      1.336      1.915
REMARK  Name = 
REMARK  3 active torsions:
REMARK  status: ('A' for Active; 'I' for Inactive)
REMARK    1  A    between atoms: C_2  and  C_3
REMARK    2  A    between atoms: C_3  and  O_4
REMARK    3  A    between atoms: O_4  and  C_5
REMARK                            x       y       z     vdW  Elec       q    Type
REMARK                         _______ _______ _______ _____ _____    ______ ____
ROOT
ATOM      1  C   UNL     1       1.790   8.024  19.546  0.00  0.00    +0.000 C 
ENDROOT
BRANCH   1   3
ATOM      2  O   UNL     1       1.313   8.481  21.842  0.00  0.00    +0.000 OA
ATOM      3  C   UNL     1       1.109   8.807  20.668  0.00  0.00    +0.000 C 
ATOM      4  N   UNL     1       0.266   9.835  20.273  0.00  0.00    +0.000 N 
ATOM      5  C   UNL     1      -0.036  10.224  18.885  0.00  0.00    +0.000 C 
ATOM      6  C   UNL     1      -0.887  11.500  18.940  0.00  0.00    +0.000 C 
ATOM      7  C   UNL     1      -1.237  11.571  20.391  0.00  0.00    +0.000 A 
ATOM      8  C   UNL     1      -2.101  12.465  21.006  0.00  0.00    +0.000 A 
ATOM      9  C   UNL     1      -2.248  12.396  22.392  0.00  0.00    +0.000 A 
ATOM     10  C   UNL     1      -1.527  11.452  23.138  0.00  0.00    +0.000 A 
ATOM     11  C   UNL     1      -0.655  10.560  22.506  0.00  0.00    +0.000 A 
ATOM     12  C   UNL     1      -0.522  10.626  21.130  0.00  0.00    +0.000 A 
ENDBRANCH   1   3
BRANCH   1  13
ATOM     13  O   UNL     1       2.608   7.002  20.089  0.00  0.00    +0.000 OA
BRANCH  13  14
ATOM     14  C   UNL     1       2.274   5.694  19.807  0.00  0.00    +0.000 A 
ATOM     15  C   UNL     1       1.289   4.980  20.508  0.00  0.00    +0.000 A 
ATOM     16  C   UNL     1       0.974   3.674  20.146  0.00  0.00    +0.000 A 
ATOM     17  C   UNL     1       1.645   3.071  19.091  0.00  0.00    +0.000 A 
ATOM     18  C   UNL     1       2.645   3.767  18.393  0.00  0.00    +0.000 A 
ATOM     19  C   UNL     1       3.327   3.156  17.332  0.00  0.00    +0.000 A 
ATOM     20  C   UNL     1       4.318   3.852  16.652  0.00  0.00    +0.000 A 
ATOM     21  C   UNL     1       4.591   5.141  17.057  0.00  0.00    +0.000 A 
ATOM     22  N   UNL     1       3.945   5.764  18.066  0.00  0.00    +0.000 NA
ATOM     23  C   UNL     1       2.978   5.096  18.743  0.00  0.00    +0.000 A 
ENDBRANCH  13  14
ENDBRANCH   1  13
TORSDOF 3
ENDMDL
MODEL 5
REMARK VINA RESULT:      -7.7      3.429      6.989
REMARK  Name = 
REMARK  3 active torsions:
REMARK  status: ('A' for Active; 'I' for Inactive)
REMARK    1  A    between atoms: C_2  and  C_3
REMARK    2  A    between atoms: C_3  and  O_4
REMARK    3  A    between atoms: O_4  and  C_5
REMARK                            x       y       z     vdW  Elec       q    Type
REMARK                         _______ _______ _______ _____ _____    ______ ____
ROOT
ATOM      1  C   UNL     1       3.710   2.247  17.462  0.00  0.00    +0.000 C 
ENDROOT
BRANCH   1   3
ATOM      2  O   UNL     1       5.129   2.801  19.302  0.00  0.00    +0.000 OA
ATOM      3  C   UNL     1       4.797   3.076  18.145  0.00  0.00    +0.000 C 
ATOM      4  N   UNL     1       5.323   4.125  17.406  0.00  0.00    +0.000 N 
ATOM      5  C   UNL     1       4.922   4.512  16.042  0.00  0.00    +0.000 C 
ATOM      6  C   UNL     1       5.876   5.620  15.578  0.00  0.00    +0.000 C 
ATOM      7  C   UNL     1       6.579   5.969  16.850  0.00  0.00    +0.000 A 
ATOM      8  C   UNL     1       7.478   7.004  17.059  0.00  0.00    +0.000 A 
ATOM      9  C   UNL     1       8.068   7.125  18.317  0.00  0.00    +0.000 A 
ATOM     10  C   UNL     1       7.762   6.213  19.337  0.00  0.00    +0.000 A 
ATOM     11  C   UNL     1       6.857   5.170  19.113  0.00  0.00    +0.000 A 
ATOM     12  C   UNL     1       6.267   5.062  17.865  0.00  0.00    +0.000 A 
ENDBRANCH   1   3
BRANCH   1  13
ATOM     13  O   UNL     1       2.456   2.898  17.572  0.00  0.00    +0.000 OA
BRANCH  13  14
ATOM     14  C   UNL     1       2.047   3.296  18.827  0.00  0.00    +0.000 A 
ATOM     15  C   UNL     1       1.634   2.400  19.825  0.00  0.00    +0.000 A 
ATOM     16  C   UNL     1       1.269   2.867  21.084  0.00  0.00    +0.000 A 
ATOM     17  C   UNL     1       1.306   4.228  21.351  0.00  0.00    +0.000 A 
ATOM     18  C   UNL     1       1.701   5.138  20.357  0.00  0.00    +0.000 A 
ATOM     19  C   UNL     1       1.732   6.513  20.624  0.00  0.00    +0.000 A 
ATOM     20  C   UNL     1       2.118   7.404  19.631  0.00  0.00    +0.000 A 
ATOM     21  C   UNL     1       2.464   6.885  18.402  0.00  0.00    +0.000 A 
ATOM     22  N   UNL     1       2.457   5.566  18.114  0.00  0.00    +0.000 NA
ATOM     23  C   UNL     1       2.077   4.684  19.071  0.00  0.00    +0.000 A 
ENDBRANCH  13  14
ENDBRANCH   1  13
TORSDOF 3
ENDMDL
MODEL 6
REMARK VINA RESULT:      -7.6      1.016      1.885
REMARK  Name = 
REMARK  3 active torsions:
REMARK  status: ('A' for Active; 'I' for Inactive)
REMARK    1  A    between atoms: C_2  and  C_3
REMARK    2  A    between atoms: C_3  and  O_4
REMARK    3  A    between atoms: O_4  and  C_5
REMARK                            x       y       z     vdW  Elec       q    Type
REMARK                         _______ _______ _______ _____ _____    ______ ____
ROOT
ATOM      1  C   UNL     1       2.165   7.825  19.509  0.00  0.00    +0.000 C 
ENDROOT
BRANCH   1   3
ATOM      2  O   UNL     1       0.852   9.504  18.433  0.00  0.00    +0.000 OA
ATOM      3  C   UNL     1       1.158   8.974  19.505  0.00  0.00    +0.000 C 
ATOM      4  N   UNL     1       0.674   9.369  20.743  0.00  0.00    +0.000 N 
ATOM      5  C   UNL     1       1.048   8.791  22.045  0.00  0.00    +0.000 C 
ATOM      6  C   UNL     1       0.150   9.434  23.109  0.00  0.00    +0.000 C 
ATOM      7  C   UNL     1      -0.483  10.549  22.341  0.00  0.00    +0.000 A 
ATOM      8  C   UNL     1      -1.307  11.550  22.834  0.00  0.00    +0.000 A 
ATOM      9  C   UNL     1      -1.842  12.471  21.933  0.00  0.00    +0.000 A 
ATOM     10  C   UNL     1      -1.557  12.373  20.563  0.00  0.00    +0.000 A 
ATOM     11  C   UNL     1      -0.729  11.357  20.078  0.00  0.00    +0.000 A 
ATOM     12  C   UNL     1      -0.193  10.453  20.979  0.00  0.00    +0.000 A 
ENDBRANCH   1   3
BRANCH   1  13
ATOM     13  O   UNL     1       2.553   7.509  18.183  0.00  0.00    +0.000 OA
BRANCH  13  14
ATOM     14  C   UNL     1       2.854   6.194  17.897  0.00  0.00    +0.000 A 
ATOM     15  C   UNL     1       1.922   5.148  18.002  0.00  0.00    +0.000 A 
ATOM     16  C   UNL     1       2.281   3.848  17.662  0.00  0.00    +0.000 A 
ATOM     17  C   UNL     1       3.572   3.582  17.224  0.00  0.00    +0.000 A 
ATOM     18  C   UNL     1       4.519   4.615  17.132  0.00  0.00    +0.000 A 
ATOM     19  C   UNL     1       5.823   4.345  16.697  0.00  0.00    +0.000 A 
ATOM     20  C   UNL     1       6.753   5.373  16.615  0.00  0.00    +0.000 A 
ATOM     21  C   UNL     1       6.343   6.641  16.970  0.00  0.00    +0.000 A 
ATOM     22  N   UNL     1       5.091   6.938  17.380  0.00  0.00    +0.000 NA
ATOM     23  C   UNL     1       4.173   5.944  17.471  0.00  0.00    +0.000 A 
ENDBRANCH  13  14
ENDBRANCH   1  13
TORSDOF 3
ENDMDL
MODEL 7
REMARK VINA RESULT:      -7.6      1.513      2.989
REMARK  Name = 
REMARK  3 active torsions:
REMARK  status: ('A' for Active; 'I' for Inactive)
REMARK    1  A    between atoms: C_2  and  C_3
REMARK    2  A    between atoms: C_3  and  O_4
REMARK    3  A    between atoms: O_4  and  C_5
REMARK                            x       y       z     vdW  Elec       q    Type
REMARK                         _______ _______ _______ _____ _____    ______ ____
ROOT
ATOM      1  C   UNL     1       2.209   7.776  19.413  0.00  0.00    +0.000 C 
ENDROOT
BRANCH   1   3
ATOM      2  O   UNL     1       0.969   9.531  18.370  0.00  0.00    +0.000 OA
ATOM      3  C   UNL     1       1.247   8.963  19.431  0.00  0.00    +0.000 C 
ATOM      4  N   UNL     1       0.768   9.345  20.675  0.00  0.00    +0.000 N 
ATOM      5  C   UNL     1       1.110   8.721  21.965  0.00  0.00    +0.000 C 
ATOM      6  C   UNL     1       0.228   9.371  23.039  0.00  0.00    +0.000 C 
ATOM      7  C   UNL     1      -0.356  10.528  22.295  0.00  0.00    +0.000 A 
ATOM      8  C   UNL     1      -1.145  11.548  22.807  0.00  0.00    +0.000 A 
ATOM      9  C   UNL     1      -1.637  12.510  21.925  0.00  0.00    +0.000 A 
ATOM     10  C   UNL     1      -1.345  12.436  20.555  0.00  0.00    +0.000 A 
ATOM     11  C   UNL     1      -0.552  11.401  20.050  0.00  0.00    +0.000 A 
ATOM     12  C   UNL     1      -0.059  10.455  20.932  0.00  0.00    +0.000 A 
ENDBRANCH   1   3
BRANCH   1  13
ATOM     13  O   UNL     1       2.111   7.084  18.180  0.00  0.00    +0.000 OA
BRANCH  13  14
ATOM     14  C   UNL     1       3.137   6.229  17.840  0.00  0.00    +0.000 A 
ATOM     15  C   UNL     1       4.406   6.669  17.431  0.00  0.00    +0.000 A 
ATOM     16  C   UNL     1       5.410   5.751  17.138  0.00  0.00    +0.000 A 
ATOM     17  C   UNL     1       5.151   4.391  17.242  0.00  0.00    +0.000 A 
ATOM     18  C   UNL     1       3.881   3.936  17.632  0.00  0.00    +0.000 A 
ATOM     19  C   UNL     1       3.618   2.564  17.731  0.00  0.00    +0.000 A 
ATOM     20  C   UNL     1       2.357   2.125  18.112  0.00  0.00    +0.000 A 
ATOM     21  C   UNL     1       1.400   3.079  18.385  0.00  0.00    +0.000 A 
ATOM     22  N   UNL     1       1.623   4.409  18.313  0.00  0.00    +0.000 NA
ATOM     23  C   UNL     1       2.848   4.853  17.937  0.00  0.00    +0.000 A 
ENDBRANCH  13  14
ENDBRANCH   1  13
TORSDOF 3
ENDMDL
MODEL 8
REMARK VINA RESULT:      -7.6      1.649      2.784
REMARK  Name = 
REMARK  3 active torsions:
REMARK  status: ('A' for Active; 'I' for Inactive)
REMARK    1  A    between atoms: C_2  and  C_3
REMARK    2  A    between atoms: C_3  and  O_4
REMARK    3  A    between atoms: O_4  and  C_5
REMARK                            x       y       z     vdW  Elec       q    Type
REMARK                         _______ _______ _______ _____ _____    ______ ____
ROOT
ATOM      1  C   UNL     1       2.745   5.444  18.099  0.00  0.00    +0.000 C 
ENDROOT
BRANCH   1   3
ATOM      2  O   UNL     1       2.192   5.677  20.411  0.00  0.00    +0.000 OA
ATOM      3  C   UNL     1       2.286   6.244  19.318  0.00  0.00    +0.000 C 
ATOM      4  N   UNL     1       1.972   7.575  19.094  0.00  0.00    +0.000 N 
ATOM      5  C   UNL     1       2.029   8.275  17.799  0.00  0.00    +0.000 C 
ATOM      6  C   UNL     1       1.747   9.759  18.064  0.00  0.00    +0.000 C 
ATOM      7  C   UNL     1       1.269   9.730  19.479  0.00  0.00    +0.000 A 
ATOM      8  C   UNL     1       0.752  10.786  20.216  0.00  0.00    +0.000 A 
ATOM      9  C   UNL     1       0.412  10.559  21.550  0.00  0.00    +0.000 A 
ATOM     10  C   UNL     1       0.602   9.296  22.127  0.00  0.00    +0.000 A 
ATOM     11  C   UNL     1       1.129   8.240  21.376  0.00  0.00    +0.000 A 
ATOM     12  C   UNL     1       1.454   8.469  20.050  0.00  0.00    +0.000 A 
ENDBRANCH   1   3
BRANCH   1  13
ATOM     13  O   UNL     1       3.724   4.492  18.477  0.00  0.00    +0.000 OA
BRANCH  13  14
ATOM     14  C   UNL     1       5.050   4.844  18.337  0.00  0.00    +0.000 A 
ATOM     15  C   UNL     1       5.849   5.284  19.404  0.00  0.00    +0.000 A 
ATOM     16  C   UNL     1       7.192   5.588  19.200  0.00  0.00    +0.000 A 
ATOM     17  C   UNL     1       7.741   5.463  17.932  0.00  0.00    +0.000 A 
ATOM     18  C   UNL     1       6.949   5.042  16.852  0.00  0.00    +0.000 A 
ATOM     19  C   UNL     1       7.502   4.923  15.570  0.00  0.00    +0.000 A 
ATOM     20  C   UNL     1       6.707   4.510  14.508  0.00  0.00    +0.000 A 
ATOM     21  C   UNL     1       5.383   4.228  14.767  0.00  0.00    +0.000 A 
ATOM     22  N   UNL     1       4.822   4.320  15.992  0.00  0.00    +0.000 NA
ATOM     23  C   UNL     1       5.583   4.726  17.038  0.00  0.00    +0.000 A 
ENDBRANCH  13  14
ENDBRANCH   1  13
TORSDOF 3
ENDMDL
MODEL 9
REMARK VINA RESULT:      -7.6      1.488      2.668
REMARK  Name = 
REMARK  3 active torsions:
REMARK  status: ('A' for Active; 'I' for Inactive)
REMARK    1  A    between atoms: C_2  and  C_3
REMARK    2  A    between atoms: C_3  and  O_4
REMARK    3  A    between atoms: O_4  and  C_5
REMARK                            x       y       z     vdW  Elec       q    Type
REMARK                         _______ _______ _______ _____ _____    ______ ____
ROOT
ATOM      1  C   UNL     1       1.516   7.775  20.901  0.00  0.00    +0.000 C 
ENDROOT
BRANCH   1   3
ATOM      2  O   UNL     1       1.112   9.359  19.160  0.00  0.00    +0.000 OA
ATOM      3  C   UNL     1       0.903   9.057  20.339  0.00  0.00    +0.000 C 
ATOM      4  N   UNL     1       0.163   9.823  21.226  0.00  0.00    +0.000 N 
ATOM      5  C   UNL     1      -0.072   9.519  22.648  0.00  0.00    +0.000 C 
ATOM      6  C   UNL     1      -1.067  10.557  23.183  0.00  0.00    +0.000 C 
ATOM      7  C   UNL     1      -1.100  11.550  22.068  0.00  0.00    +0.000 A 
ATOM      8  C   UNL     1      -1.748  12.777  22.051  0.00  0.00    +0.000 A 
ATOM      9  C   UNL     1      -1.700  13.535  20.881  0.00  0.00    +0.000 A 
ATOM     10  C   UNL     1      -1.021  13.057  19.751  0.00  0.00    +0.000 A 
ATOM     11  C   UNL     1      -0.375  11.817  19.779  0.00  0.00    +0.000 A 
ATOM     12  C   UNL     1      -0.418  11.074  20.946  0.00  0.00    +0.000 A 
ENDBRANCH   1   3
BRANCH   1  13
ATOM     13  O   UNL     1       2.323   7.147  19.920  0.00  0.00    +0.000 OA
BRANCH  13  14
ATOM     14  C   UNL     1       2.208   5.781  19.772  0.00  0.00    +0.000 A 
ATOM     15  C   UNL     1       1.386   4.983  20.583  0.00  0.00    +0.000 A 
ATOM     16  C   UNL     1       1.286   3.614  20.355  0.00  0.00    +0.000 A 
ATOM     17  C   UNL     1       2.012   3.033  19.324  0.00  0.00    +0.000 A 
ATOM     18  C   UNL     1       2.851   3.817  18.516  0.00  0.00    +0.000 A 
ATOM     19  C   UNL     1       3.589   3.229  17.479  0.00  0.00    +0.000 A 
ATOM     20  C   UNL     1       4.420   4.013  16.690  0.00  0.00    +0.000 A 
ATOM     21  C   UNL     1       4.484   5.362  16.965  0.00  0.00    +0.000 A 
ATOM     22  N   UNL     1       3.777   5.962  17.947  0.00  0.00    +0.000 NA
ATOM     23  C   UNL     1       2.965   5.210  18.730  0.00  0.00    +0.000 A 
ENDBRANCH  13  14
ENDBRANCH   1  13
TORSDOF 3
ENDMDL
