MODEL 1
REMARK VINA RESULT:      -8.3      0.000      0.000
REMARK  Name = 
REMARK  6 active torsions:
REMARK  status: ('A' for Active; 'I' for Inactive)
REMARK    1  A    between atoms: C_1  and  C_2
REMARK    2  A    between atoms: C_8  and  N_9
REMARK    3  A    between atoms: C_12  and  C_13
REMARK    4  A    between atoms: C_13  and  N_14
REMARK    5  A    between atoms: C_15  and  C_17
REMARK    6  A    between atoms: C_21  and  C_22
REMARK                            x       y       z     vdW  Elec       q    Type
REMARK                         _______ _______ _______ _____ _____    ______ ____
ROOT
ATOM      1  C   UNL     1       3.783   2.904  19.032  0.00  0.00    +0.000 C 
ENDROOT
BRANCH   1   5
ATOM      2  N   UNL     1       2.237   5.691  19.820  0.00  0.00    +0.000 N 
ATOM      3  C   UNL     1       1.403   4.563  20.242  0.00  0.00    +0.000 C 
ATOM      4  C   UNL     1       2.362   3.650  20.995  0.00  0.00    +0.000 C 
ATOM      5  C   UNL     1       3.685   3.828  20.255  0.00  0.00    +0.000 C 
ATOM      6  C   UNL     1       3.660   5.313  19.861  0.00  0.00    +0.000 C 
BRANCH   2  14
ATOM      7  C   UNL     1       2.734   7.635  17.605  0.00  0.00    +0.000 C 
ATOM      8  C   UNL     1       2.076   7.978  18.916  0.00  0.00    +0.000 A 
ATOM      9  C   UNL     1       1.641   9.314  19.065  0.00  0.00    +0.000 A 
ATOM     10  C   UNL     1       0.968   9.729  20.208  0.00  0.00    +0.000 A 
ATOM     11  C   UNL     1       0.743   8.811  21.219  0.00  0.00    +0.000 A 
ATOM     12 CL   UNL     1      -0.091   9.306  22.643  0.00  0.00    +0.000 Cl
ATOM     13  C   UNL     1       1.183   7.489  21.092  0.00  0.00    +0.000 A 
ATOM     14  C   UNL     1       1.855   7.023  19.943  0.00  0.00    +0.000 A 
ENDBRANCH   2  14
ENDBRANCH   1   5
BRANCH   1  15
ATOM     15  N   UNL     1       4.726   3.382  18.044  0.00  0.00    +0.000 N 
ATOM     16  C   UNL     1       4.330   3.910  16.837  0.00  0.00    +0.000 C 
ATOM     17  O   UNL     1       3.158   3.989  16.483  0.00  0.00    +0.000 OA
ATOM     18  H   UNL     1       5.726   3.362  18.227  0.00  0.00    +0.000 HD
BRANCH  16  19
ATOM     19  C   UNL     1       5.441   4.363  16.005  0.00  0.00    +0.000 A 
ATOM     20  N   UNL     1       5.740   3.846  14.754  0.00  0.00    +0.000 NA
ATOM     21  C   UNL     1       6.782   4.556  14.376  0.00  0.00    +0.000 A 
ATOM     22  O   UNL     1       7.192   5.503  15.263  0.00  0.00    +0.000 OA
ATOM     23  C   UNL     1       6.339   5.360  16.325  0.00  0.00    +0.000 A 
BRANCH  23  24
ATOM     24  C   UNL     1       6.511   6.234  17.513  0.00  0.00    +0.000 C 
ATOM     25  C   UNL     1       7.614   7.265  17.336  0.00  0.00    +0.000 C 
ATOM     26  C   UNL     1       8.193   7.367  18.725  0.00  0.00    +0.000 C 
ATOM     27  C   UNL     1       8.057   5.952  19.235  0.00  0.00    +0.000 C 
ATOM     28  O   UNL     1       6.872   5.411  18.640  0.00  0.00    +0.000 OA
ENDBRANCH  23  24
ENDBRANCH  16  19
ENDBRANCH   1  15
TORSDOF 5
ENDMDL
MODEL 2
REMARK VINA RESULT:      -8.0      1.409      2.642
REMARK  Name = 
REMARK  6 active torsions:
REMARK  status: ('A' for Active; 'I' for Inactive)
REMARK    1  A    between atoms: C_1  and  C_2
REMARK    2  A    between atoms: C_8  and  N_9
REMARK    3  A    between atoms: C_12  and  C_13
REMARK    4  A    between atoms: C_13  and  N_14
REMARK    5  A    between atoms: C_15  and  C_17
REMARK    6  A    between atoms: C_21  and  C_22
REMARK                            x       y       z     vdW  Elec       q    Type
REMARK                         _______ _______ _______ _____ _____    ______ ____
ROOT
ATOM      1  C   UNL     1       3.560   2.321  19.993  0.00  0.00    +0.000 C 
ENDROOT
BRANCH   1   5
ATOM      2  N   UNL     1       2.036   5.229  20.017  0.00  0.00    +0.000 N 
ATOM      3  C   UNL     1       1.125   4.233  19.449  0.00  0.00    +0.000 C 
ATOM      4  C   UNL     1       1.180   3.073  20.436  0.00  0.00    +0.000 C 
ATOM      5  C   UNL     1       2.622   3.090  20.934  0.00  0.00    +0.000 C 
ATOM      6  C   UNL     1       2.949   4.592  20.982  0.00  0.00    +0.000 C 
BRANCH   2  14
ATOM      7  C   UNL     1       2.981   7.162  17.941  0.00  0.00    +0.000 C 
ATOM      8  C   UNL     1       2.168   7.534  19.154  0.00  0.00    +0.000 A 
ATOM      9  C   UNL     1       1.812   8.896  19.272  0.00  0.00    +0.000 A 
ATOM     10  C   UNL     1       1.015   9.343  20.318  0.00  0.00    +0.000 A 
ATOM     11  C   UNL     1       0.583   8.431  21.265  0.00  0.00    +0.000 A 
ATOM     12 CL   UNL     1      -0.407   8.967  22.569  0.00  0.00    +0.000 Cl
ATOM     13  C   UNL     1       0.942   7.082  21.170  0.00  0.00    +0.000 A 
ATOM     14  C   UNL     1       1.736   6.584  20.116  0.00  0.00    +0.000 A 
ENDBRANCH   2  14
ENDBRANCH   1   5
BRANCH   1  15
ATOM     15  N   UNL     1       4.706   3.104  19.584  0.00  0.00    +0.000 N 
ATOM     16  C   UNL     1       4.760   3.766  18.379  0.00  0.00    +0.000 C 
ATOM     17  O   UNL     1       3.864   3.723  17.542  0.00  0.00    +0.000 OA
ATOM     18  H   UNL     1       5.511   3.207  20.196  0.00  0.00    +0.000 HD
BRANCH  16  19
ATOM     19  C   UNL     1       5.992   4.523  18.182  0.00  0.00    +0.000 A 
ATOM     20  N   UNL     1       6.873   4.857  19.199  0.00  0.00    +0.000 NA
ATOM     21  C   UNL     1       7.830   5.503  18.567  0.00  0.00    +0.000 A 
ATOM     22  O   UNL     1       7.664   5.617  17.220  0.00  0.00    +0.000 OA
ATOM     23  C   UNL     1       6.464   5.003  16.978  0.00  0.00    +0.000 A 
BRANCH  23  24
ATOM     24  C   UNL     1       5.942   4.959  15.589  0.00  0.00    +0.000 C 
ATOM     25  C   UNL     1       5.901   3.552  15.016  0.00  0.00    +0.000 C 
ATOM     26  C   UNL     1       6.230   3.780  13.562  0.00  0.00    +0.000 C 
ATOM     27  C   UNL     1       7.206   4.931  13.629  0.00  0.00    +0.000 C 
ATOM     28  O   UNL     1       6.815   5.738  14.746  0.00  0.00    +0.000 OA
ENDBRANCH  23  24
ENDBRANCH  16  19
ENDBRANCH   1  15
TORSDOF 5
ENDMDL
MODEL 3
REMARK VINA RESULT:      -7.4      2.632      4.442
REMARK  Name = 
REMARK  6 active torsions:
REMARK  status: ('A' for Active; 'I' for Inactive)
REMARK    1  A    between atoms: C_1  and  C_2
REMARK    2  A    between atoms: C_8  and  N_9
REMARK    3  A    between atoms: C_12  and  C_13
REMARK    4  A    between atoms: C_13  and  N_14
REMARK    5  A    between atoms: C_15  and  C_17
REMARK    6  A    between atoms: C_21  and  C_22
REMARK                            x       y       z     vdW  Elec       q    Type
REMARK                         _______ _______ _______ _____ _____    ______ ____
ROOT
ATOM      1  C   UNL     1       1.062   6.725  20.832  0.00  0.00    +0.000 C 
ENDROOT
BRANCH   1   5
ATOM      2  N   UNL     1       0.273   9.841  20.166  0.00  0.00    +0.000 N 
ATOM      3  C   UNL     1      -0.142   9.541  21.539  0.00  0.00    +0.000 C 
ATOM      4  C   UNL     1       1.083   8.882  22.163  0.00  0.00    +0.000 C 
ATOM      5  C   UNL     1       1.705   8.108  21.004  0.00  0.00    +0.000 C 
ATOM      6  C   UNL     1       1.443   9.025  19.800  0.00  0.00    +0.000 C 
BRANCH   2  14
ATOM      7  C   UNL     1      -1.939  10.117  18.174  0.00  0.00    +0.000 C 
ATOM      8  C   UNL     1      -1.006  11.228  18.580  0.00  0.00    +0.000 A 
ATOM      9  C   UNL     1      -1.241  12.489  17.987  0.00  0.00    +0.000 A 
ATOM     10  C   UNL     1      -0.482  13.600  18.332  0.00  0.00    +0.000 A 
ATOM     11  C   UNL     1       0.533  13.451  19.261  0.00  0.00    +0.000 A 
ATOM     12 CL   UNL     1       1.485  14.818  19.702  0.00  0.00    +0.000 Cl
ATOM     13  C   UNL     1       0.788  12.205  19.844  0.00  0.00    +0.000 A 
ATOM     14  C   UNL     1       0.031  11.057  19.535  0.00  0.00    +0.000 A 
ENDBRANCH   2  14
ENDBRANCH   1   5
BRANCH   1  15
ATOM     15  N   UNL     1       2.039   5.665  20.704  0.00  0.00    +0.000 N 
ATOM     16  C   UNL     1       2.389   5.122  19.490  0.00  0.00    +0.000 C 
ATOM     17  O   UNL     1       1.884   5.461  18.425  0.00  0.00    +0.000 OA
ATOM     18  H   UNL     1       2.521   5.301  21.522  0.00  0.00    +0.000 HD
BRANCH  16  19
ATOM     19  C   UNL     1       3.418   4.091  19.585  0.00  0.00    +0.000 A 
ATOM     20  N   UNL     1       3.157   2.746  19.801  0.00  0.00    +0.000 NA
ATOM     21  C   UNL     1       4.356   2.202  19.791  0.00  0.00    +0.000 A 
ATOM     22  O   UNL     1       5.385   3.067  19.577  0.00  0.00    +0.000 OA
ATOM     23  C   UNL     1       4.778   4.290  19.469  0.00  0.00    +0.000 A 
BRANCH  23  24
ATOM     24  C   UNL     1       5.616   5.496  19.251  0.00  0.00    +0.000 C 
ATOM     25  C   UNL     1       5.818   5.820  17.780  0.00  0.00    +0.000 C 
ATOM     26  C   UNL     1       7.225   6.362  17.754  0.00  0.00    +0.000 C 
ATOM     27  C   UNL     1       7.907   5.539  18.821  0.00  0.00    +0.000 C 
ATOM     28  O   UNL     1       6.919   5.258  19.819  0.00  0.00    +0.000 OA
ENDBRANCH  23  24
ENDBRANCH  16  19
ENDBRANCH   1  15
TORSDOF 5
ENDMDL
MODEL 4
REMARK VINA RESULT:      -7.4      3.620      5.810
REMARK  Name = 
REMARK  6 active torsions:
REMARK  status: ('A' for Active; 'I' for Inactive)
REMARK    1  A    between atoms: C_1  and  C_2
REMARK    2  A    between atoms: C_8  and  N_9
REMARK    3  A    between atoms: C_12  and  C_13
REMARK    4  A    between atoms: C_13  and  N_14
REMARK    5  A    between atoms: C_15  and  C_17
REMARK    6  A    between atoms: C_21  and  C_22
REMARK                            x       y       z     vdW  Elec       q    Type
REMARK                         _______ _______ _______ _____ _____    ______ ____
ROOT
ATOM      1  C   UNL     1       1.520   8.775  21.238  0.00  0.00    +0.000 C 
ENDROOT
BRANCH   1   5
ATOM      2  N   UNL     1      -0.523  11.225  22.016  0.00  0.00    +0.000 N 
ATOM      3  C   UNL     1      -0.324  11.230  20.564  0.00  0.00    +0.000 C 
ATOM      4  C   UNL     1      -0.540   9.778  20.153  0.00  0.00    +0.000 C 
ATOM      5  C   UNL     1       0.002   8.984  21.338  0.00  0.00    +0.000 C 
ATOM      6  C   UNL     1      -0.387   9.856  22.542  0.00  0.00    +0.000 C 
BRANCH   2  14
ATOM      7  C   UNL     1       0.300  14.098  22.061  0.00  0.00    +0.000 C 
ATOM      8  C   UNL     1      -0.924  13.545  22.744  0.00  0.00    +0.000 A 
ATOM      9  C   UNL     1      -1.741  14.482  23.416  0.00  0.00    +0.000 A 
ATOM     10  C   UNL     1      -2.925  14.094  24.029  0.00  0.00    +0.000 A 
ATOM     11  C   UNL     1      -3.291  12.760  23.991  0.00  0.00    +0.000 A 
ATOM     12 CL   UNL     1      -4.757  12.260  24.747  0.00  0.00    +0.000 Cl
ATOM     13  C   UNL     1      -2.483  11.818  23.345  0.00  0.00    +0.000 A 
ATOM     14  C   UNL     1      -1.282  12.172  22.695  0.00  0.00    +0.000 A 
ENDBRANCH   2  14
ENDBRANCH   1   5
BRANCH   1  15
ATOM     15  N   UNL     1       1.879   7.401  20.961  0.00  0.00    +0.000 N 
ATOM     16  C   UNL     1       2.279   6.977  19.715  0.00  0.00    +0.000 C 
ATOM     17  O   UNL     1       2.332   7.711  18.733  0.00  0.00    +0.000 OA
ATOM     18  H   UNL     1       1.868   6.702  21.698  0.00  0.00    +0.000 HD
BRANCH  16  19
ATOM     19  C   UNL     1       2.628   5.560  19.663  0.00  0.00    +0.000 A 
ATOM     20  N   UNL     1       1.740   4.528  19.925  0.00  0.00    +0.000 NA
ATOM     21  C   UNL     1       2.471   3.449  19.741  0.00  0.00    +0.000 A 
ATOM     22  O   UNL     1       3.761   3.677  19.371  0.00  0.00    +0.000 OA
ATOM     23  C   UNL     1       3.866   5.042  19.346  0.00  0.00    +0.000 A 
BRANCH  23  24
ATOM     24  C   UNL     1       5.171   5.660  18.998  0.00  0.00    +0.000 C 
ATOM     25  C   UNL     1       5.210   6.205  17.580  0.00  0.00    +0.000 C 
ATOM     26  C   UNL     1       6.635   5.939  17.165  0.00  0.00    +0.000 C 
ATOM     27  C   UNL     1       6.938   4.638  17.872  0.00  0.00    +0.000 C 
ATOM     28  O   UNL     1       6.197   4.653  19.097  0.00  0.00    +0.000 OA
ENDBRANCH  23  24
ENDBRANCH  16  19
ENDBRANCH   1  15
TORSDOF 5
ENDMDL
MODEL 5
REMARK VINA RESULT:      -7.3      4.485      8.247
REMARK  Name = 
REMARK  6 active torsions:
REMARK  status: ('A' for Active; 'I' for Inactive)
REMARK    1  A    between atoms: C_1  and  C_2
REMARK    2  A    between atoms: C_8  and  N_9
REMARK    3  A    between atoms: C_12  and  C_13
REMARK    4  A    between atoms: C_13  and  N_14
REMARK    5  A    between atoms: C_15  and  C_17
REMARK    6  A    between atoms: C_21  and  C_22
REMARK                            x       y       z     vdW  Elec       q    Type
REMARK                         _______ _______ _______ _____ _____    ______ ____
ROOT
ATOM      1  C   UNL     1       1.863   7.259  20.453  0.00  0.00    +0.000 C 
ENDROOT
BRANCH   1   5
ATOM      2  N   UNL     1       4.090   5.625  18.676  0.00  0.00    +0.000 N 
ATOM      3  C   UNL     1       3.577   4.729  19.716  0.00  0.00    +0.000 C 
ATOM      4  C   UNL     1       2.063   4.873  19.619  0.00  0.00    +0.000 C 
ATOM      5  C   UNL     1       1.864   6.334  19.227  0.00  0.00    +0.000 C 
ATOM      6  C   UNL     1       3.057   6.604  18.296  0.00  0.00    +0.000 C 
BRANCH   2  14
ATOM      7  C   UNL     1       6.942   5.504  19.561  0.00  0.00    +0.000 C 
ATOM      8  C   UNL     1       6.464   5.211  18.163  0.00  0.00    +0.000 A 
ATOM      9  C   UNL     1       7.454   4.819  17.234  0.00  0.00    +0.000 A 
ATOM     10  C   UNL     1       7.121   4.467  15.932  0.00  0.00    +0.000 A 
ATOM     11  C   UNL     1       5.794   4.525  15.545  0.00  0.00    +0.000 A 
ATOM     12 CL   UNL     1       5.361   4.092  13.934  0.00  0.00    +0.000 Cl
ATOM     13  C   UNL     1       4.805   4.928  16.449  0.00  0.00    +0.000 A 
ATOM     14  C   UNL     1       5.098   5.277  17.784  0.00  0.00    +0.000 A 
ENDBRANCH   2  14
ENDBRANCH   1   5
BRANCH   1  15
ATOM     15  N   UNL     1       1.471   8.614  20.131  0.00  0.00    +0.000 N 
ATOM     16  C   UNL     1       0.426   9.252  20.758  0.00  0.00    +0.000 C 
ATOM     17  O   UNL     1      -0.279   8.721  21.611  0.00  0.00    +0.000 OA
ATOM     18  H   UNL     1       1.981   9.152  19.435  0.00  0.00    +0.000 HD
BRANCH  16  19
ATOM     19  C   UNL     1       0.224  10.625  20.307  0.00  0.00    +0.000 A 
ATOM     20  N   UNL     1       1.000  11.701  20.711  0.00  0.00    +0.000 NA
ATOM     21  C   UNL     1       0.479  12.712  20.048  0.00  0.00    +0.000 A 
ATOM     22  O   UNL     1      -0.566  12.398  19.234  0.00  0.00    +0.000 OA
ATOM     23  C   UNL     1      -0.744  11.053  19.422  0.00  0.00    +0.000 A 
BRANCH  23  24
ATOM     24  C   UNL     1      -1.837  10.361  18.695  0.00  0.00    +0.000 C 
ATOM     25  C   UNL     1      -1.422   9.884  17.313  0.00  0.00    +0.000 C 
ATOM     26  C   UNL     1      -2.684  10.067  16.509  0.00  0.00    +0.000 C 
ATOM     27  C   UNL     1      -3.284  11.306  17.130  0.00  0.00    +0.000 C 
ATOM     28  O   UNL     1      -2.928  11.286  18.517  0.00  0.00    +0.000 OA
ENDBRANCH  23  24
ENDBRANCH  16  19
ENDBRANCH   1  15
TORSDOF 5
ENDMDL
MODEL 6
REMARK VINA RESULT:      -7.2      1.307      2.678
REMARK  Name = 
REMARK  6 active torsions:
REMARK  status: ('A' for Active; 'I' for Inactive)
REMARK    1  A    between atoms: C_1  and  C_2
REMARK    2  A    between atoms: C_8  and  N_9
REMARK    3  A    between atoms: C_12  and  C_13
REMARK    4  A    between atoms: C_13  and  N_14
REMARK    5  A    between atoms: C_15  and  C_17
REMARK    6  A    between atoms: C_21  and  C_22
REMARK                            x       y       z     vdW  Elec       q    Type
REMARK                         _______ _______ _______ _____ _____    ______ ____
ROOT
ATOM      1  C   UNL     1       4.155   2.639  19.512  0.00  0.00    +0.000 C 
ENDROOT
BRANCH   1   5
ATOM      2  N   UNL     1       2.382   5.400  19.637  0.00  0.00    +0.000 N 
ATOM      3  C   UNL     1       1.569   4.354  19.011  0.00  0.00    +0.000 C 
ATOM      4  C   UNL     1       1.712   3.160  19.946  0.00  0.00    +0.000 C 
ATOM      5  C   UNL     1       3.140   3.280  20.469  0.00  0.00    +0.000 C 
ATOM      6  C   UNL     1       3.334   4.800  20.589  0.00  0.00    +0.000 C 
BRANCH   2  14
ATOM      7  C   UNL     1       2.986   7.450  17.548  0.00  0.00    +0.000 C 
ATOM      8  C   UNL     1       2.232   7.721  18.824  0.00  0.00    +0.000 A 
ATOM      9  C   UNL     1       1.758   9.041  19.001  0.00  0.00    +0.000 A 
ATOM     10  C   UNL     1       1.000   9.390  20.111  0.00  0.00    +0.000 A 
ATOM     11  C   UNL     1       0.727   8.424  21.064  0.00  0.00    +0.000 A 
ATOM     12 CL   UNL     1      -0.212   8.839  22.448  0.00  0.00    +0.000 Cl
ATOM     13  C   UNL     1       1.204   7.118  20.910  0.00  0.00    +0.000 A 
ATOM     14  C   UNL     1       1.963   6.717  19.791  0.00  0.00    +0.000 A 
ENDBRANCH   2  14
ENDBRANCH   1   5
BRANCH   1  15
ATOM     15  N   UNL     1       5.062   3.604  18.930  0.00  0.00    +0.000 N 
ATOM     16  C   UNL     1       4.932   4.058  17.638  0.00  0.00    +0.000 C 
ATOM     17  O   UNL     1       4.065   3.664  16.864  0.00  0.00    +0.000 OA
ATOM     18  H   UNL     1       5.823   3.998  19.477  0.00  0.00    +0.000 HD
BRANCH  16  19
ATOM     19  C   UNL     1       5.932   5.054  17.265  0.00  0.00    +0.000 A 
ATOM     20  N   UNL     1       6.244   6.170  18.027  0.00  0.00    +0.000 NA
ATOM     21  C   UNL     1       7.193   6.755  17.327  0.00  0.00    +0.000 A 
ATOM     22  O   UNL     1       7.543   6.120  16.175  0.00  0.00    +0.000 OA
ATOM     23  C   UNL     1       6.709   5.035  16.125  0.00  0.00    +0.000 A 
BRANCH  23  24
ATOM     24  C   UNL     1       6.795   4.110  14.967  0.00  0.00    +0.000 C 
ATOM     25  C   UNL     1       7.497   4.726  13.767  0.00  0.00    +0.000 C 
ATOM     26  C   UNL     1       6.749   4.126  12.605  0.00  0.00    +0.000 C 
ATOM     27  C   UNL     1       5.342   4.024  13.145  0.00  0.00    +0.000 C 
ATOM     28  O   UNL     1       5.458   3.770  14.550  0.00  0.00    +0.000 OA
ENDBRANCH  23  24
ENDBRANCH  16  19
ENDBRANCH   1  15
TORSDOF 5
ENDMDL
MODEL 7
REMARK VINA RESULT:      -7.1      3.473      6.858
REMARK  Name = 
REMARK  6 active torsions:
REMARK  status: ('A' for Active; 'I' for Inactive)
REMARK    1  A    between atoms: C_1  and  C_2
REMARK    2  A    between atoms: C_8  and  N_9
REMARK    3  A    between atoms: C_12  and  C_13
REMARK    4  A    between atoms: C_13  and  N_14
REMARK    5  A    between atoms: C_15  and  C_17
REMARK    6  A    between atoms: C_21  and  C_22
REMARK                            x       y       z     vdW  Elec       q    Type
REMARK                         _______ _______ _______ _____ _____    ______ ____
ROOT
ATOM      1  C   UNL     1       1.772   3.224  19.716  0.00  0.00    +0.000 C 
ENDROOT
BRANCH   1   5
ATOM      2  N   UNL     1       4.457   3.798  17.916  0.00  0.00    +0.000 N 
ATOM      3  C   UNL     1       4.873   3.502  19.289  0.00  0.00    +0.000 C 
ATOM      4  C   UNL     1       4.105   2.236  19.647  0.00  0.00    +0.000 C 
ATOM      5  C   UNL     1       2.780   2.396  18.907  0.00  0.00    +0.000 C 
ATOM      6  C   UNL     1       3.199   3.098  17.605  0.00  0.00    +0.000 C 
BRANCH   2  14
ATOM      7  C   UNL     1       6.928   5.370  18.515  0.00  0.00    +0.000 C 
ATOM      8  C   UNL     1       6.520   4.902  17.143  0.00  0.00    +0.000 A 
ATOM      9  C   UNL     1       7.409   5.212  16.088  0.00  0.00    +0.000 A 
ATOM     10  C   UNL     1       7.165   4.778  14.791  0.00  0.00    +0.000 A 
ATOM     11  C   UNL     1       6.019   4.047  14.537  0.00  0.00    +0.000 A 
ATOM     12 CL   UNL     1       5.699   3.500  12.934  0.00  0.00    +0.000 Cl
ATOM     13  C   UNL     1       5.121   3.747  15.568  0.00  0.00    +0.000 A 
ATOM     14  C   UNL     1       5.339   4.153  16.901  0.00  0.00    +0.000 A 
ENDBRANCH   2  14
ENDBRANCH   1   5
BRANCH   1  15
ATOM     15  N   UNL     1       1.748   4.616  19.322  0.00  0.00    +0.000 N 
ATOM     16  C   UNL     1       2.075   5.636  20.186  0.00  0.00    +0.000 C 
ATOM     17  O   UNL     1       2.379   5.458  21.361  0.00  0.00    +0.000 OA
ATOM     18  H   UNL     1       1.506   4.884  18.372  0.00  0.00    +0.000 HD
BRANCH  16  19
ATOM     19  C   UNL     1       2.019   6.960  19.575  0.00  0.00    +0.000 A 
ATOM     20  N   UNL     1       2.355   7.226  18.256  0.00  0.00    +0.000 NA
ATOM     21  C   UNL     1       2.135   8.519  18.145  0.00  0.00    +0.000 A 
ATOM     22  O   UNL     1       1.673   9.130  19.270  0.00  0.00    +0.000 OA
ATOM     23  C   UNL     1       1.622   8.124  20.199  0.00  0.00    +0.000 A 
BRANCH  23  24
ATOM     24  C   UNL     1       1.176   8.439  21.580  0.00  0.00    +0.000 C 
ATOM     25  C   UNL     1      -0.304   8.171  21.801  0.00  0.00    +0.000 C 
ATOM     26  C   UNL     1      -0.697   9.270  22.755  0.00  0.00    +0.000 C 
ATOM     27  C   UNL     1       0.176  10.418  22.302  0.00  0.00    +0.000 C 
ATOM     28  O   UNL     1       1.398   9.842  21.825  0.00  0.00    +0.000 OA
ENDBRANCH  23  24
ENDBRANCH  16  19
ENDBRANCH   1  15
TORSDOF 5
ENDMDL
MODEL 8
REMARK VINA RESULT:      -6.9      4.115      7.978
REMARK  Name = 
REMARK  6 active torsions:
REMARK  status: ('A' for Active; 'I' for Inactive)
REMARK    1  A    between atoms: C_1  and  C_2
REMARK    2  A    between atoms: C_8  and  N_9
REMARK    3  A    between atoms: C_12  and  C_13
REMARK    4  A    between atoms: C_13  and  N_14
REMARK    5  A    between atoms: C_15  and  C_17
REMARK    6  A    between atoms: C_21  and  C_22
REMARK                            x       y       z     vdW  Elec       q    Type
REMARK                         _______ _______ _______ _____ _____    ______ ____
ROOT
ATOM      1  C   UNL     1       2.053   7.132  20.904  0.00  0.00    +0.000 C 
ENDROOT
BRANCH   1   5
ATOM      2  N   UNL     1       4.031   5.599  18.779  0.00  0.00    +0.000 N 
ATOM      3  C   UNL     1       3.225   4.591  19.474  0.00  0.00    +0.000 C 
ATOM      4  C   UNL     1       1.800   5.122  19.380  0.00  0.00    +0.000 C 
ATOM      5  C   UNL     1       1.974   6.637  19.453  0.00  0.00    +0.000 C 
ATOM      6  C   UNL     1       3.288   6.867  18.688  0.00  0.00    +0.000 C 
BRANCH   2  14
ATOM      7  C   UNL     1       6.905   5.498  19.595  0.00  0.00    +0.000 C 
ATOM      8  C   UNL     1       6.399   5.237  18.200  0.00  0.00    +0.000 A 
ATOM      9  C   UNL     1       7.373   4.887  17.238  0.00  0.00    +0.000 A 
ATOM     10  C   UNL     1       7.015   4.567  15.935  0.00  0.00    +0.000 A 
ATOM     11  C   UNL     1       5.678   4.613  15.580  0.00  0.00    +0.000 A 
ATOM     12 CL   UNL     1       5.214   4.219  13.968  0.00  0.00    +0.000 Cl
ATOM     13  C   UNL     1       4.704   4.975  16.517  0.00  0.00    +0.000 A 
ATOM     14  C   UNL     1       5.023   5.292  17.854  0.00  0.00    +0.000 A 
ENDBRANCH   2  14
ENDBRANCH   1   5
BRANCH   1  15
ATOM     15  N   UNL     1       1.031   8.108  21.217  0.00  0.00    +0.000 N 
ATOM     16  C   UNL     1       1.265   9.190  22.033  0.00  0.00    +0.000 C 
ATOM     17  O   UNL     1       2.339   9.402  22.588  0.00  0.00    +0.000 OA
ATOM     18  H   UNL     1       0.099   8.032  20.818  0.00  0.00    +0.000 HD
BRANCH  16  19
ATOM     19  C   UNL     1       0.109  10.067  22.189  0.00  0.00    +0.000 A 
ATOM     20  N   UNL     1      -0.590  10.233  23.375  0.00  0.00    +0.000 NA
ATOM     21  C   UNL     1      -1.516  11.113  23.057  0.00  0.00    +0.000 A 
ATOM     22  O   UNL     1      -1.485  11.550  21.768  0.00  0.00    +0.000 OA
ATOM     23  C   UNL     1      -0.449  10.855  21.203  0.00  0.00    +0.000 A 
BRANCH  23  24
ATOM     24  C   UNL     1      -0.135  11.066  19.768  0.00  0.00    +0.000 C 
ATOM     25  C   UNL     1      -0.671   9.959  18.874  0.00  0.00    +0.000 C 
ATOM     26  C   UNL     1       0.392   9.851  17.811  0.00  0.00    +0.000 C 
ATOM     27  C   UNL     1       1.654  10.149  18.586  0.00  0.00    +0.000 C 
ATOM     28  O   UNL     1       1.298  11.086  19.610  0.00  0.00    +0.000 OA
ENDBRANCH  23  24
ENDBRANCH  16  19
ENDBRANCH   1  15
TORSDOF 5
ENDMDL
MODEL 9
REMARK VINA RESULT:      -6.8      3.421      6.047
REMARK  Name = 
REMARK  6 active torsions:
REMARK  status: ('A' for Active; 'I' for Inactive)
REMARK    1  A    between atoms: C_1  and  C_2
REMARK    2  A    between atoms: C_8  and  N_9
REMARK    3  A    between atoms: C_12  and  C_13
REMARK    4  A    between atoms: C_13  and  N_14
REMARK    5  A    between atoms: C_15  and  C_17
REMARK    6  A    between atoms: C_21  and  C_22
REMARK                            x       y       z     vdW  Elec       q    Type
REMARK                         _______ _______ _______ _____ _____    ______ ____
ROOT
ATOM      1  C   UNL     1       1.818   9.910  18.131  0.00  0.00    +0.000 C 
ENDROOT
BRANCH   1   5
ATOM      2  N   UNL     1      -0.014  11.714  20.172  0.00  0.00    +0.000 N 
ATOM      3  C   UNL     1      -0.682  11.666  18.869  0.00  0.00    +0.000 C 
ATOM      4  C   UNL     1      -0.675  10.188  18.501  0.00  0.00    +0.000 C 
ATOM      5  C   UNL     1       0.639   9.676  19.086  0.00  0.00    +0.000 C 
ATOM      6  C   UNL     1       0.773  10.487  20.385  0.00  0.00    +0.000 C 
BRANCH   2  14
ATOM      7  C   UNL     1       1.338  14.247  21.005  0.00  0.00    +0.000 C 
ATOM      8  C   UNL     1       0.131  13.655  21.685  0.00  0.00    +0.000 A 
ATOM      9  C   UNL     1      -0.399  14.391  22.768  0.00  0.00    +0.000 A 
ATOM     10  C   UNL     1      -1.545  13.972  23.431  0.00  0.00    +0.000 A 
ATOM     11  C   UNL     1      -2.159  12.800  23.026  0.00  0.00    +0.000 A 
ATOM     12 CL   UNL     1      -3.582  12.264  23.836  0.00  0.00    +0.000 Cl
ATOM     13  C   UNL     1      -1.636  12.051  21.966  0.00  0.00    +0.000 A 
ATOM     14  C   UNL     1      -0.484  12.450  21.255  0.00  0.00    +0.000 A 
ENDBRANCH   2  14
ENDBRANCH   1   5
BRANCH   1  15
ATOM     15  N   UNL     1       2.438   8.677  17.696  0.00  0.00    +0.000 N 
ATOM     16  C   UNL     1       2.640   7.611  18.542  0.00  0.00    +0.000 C 
ATOM     17  O   UNL     1       2.347   7.625  19.733  0.00  0.00    +0.000 OA
ATOM     18  H   UNL     1       2.727   8.553  16.729  0.00  0.00    +0.000 HD
BRANCH  16  19
ATOM     19  C   UNL     1       3.249   6.455  17.890  0.00  0.00    +0.000 A 
ATOM     20  N   UNL     1       4.442   6.495  17.185  0.00  0.00    +0.000 NA
ATOM     21  C   UNL     1       4.608   5.247  16.803  0.00  0.00    +0.000 A 
ATOM     22  O   UNL     1       3.635   4.382  17.201  0.00  0.00    +0.000 OA
ATOM     23  C   UNL     1       2.746   5.171  17.883  0.00  0.00    +0.000 A 
BRANCH  23  24
ATOM     24  C   UNL     1       1.520   4.553  18.450  0.00  0.00    +0.000 C 
ATOM     25  C   UNL     1       1.634   4.271  19.940  0.00  0.00    +0.000 C 
ATOM     26  C   UNL     1       0.848   2.994  20.092  0.00  0.00    +0.000 C 
ATOM     27  C   UNL     1       1.140   2.279  18.794  0.00  0.00    +0.000 C 
ATOM     28  O   UNL     1       1.295   3.291  17.792  0.00  0.00    +0.000 OA
ENDBRANCH  23  24
ENDBRANCH  16  19
ENDBRANCH   1  15
TORSDOF 5
ENDMDL
