MODEL 1
REMARK VINA RESULT:      -7.9      0.000      0.000
REMARK  Name = 
REMARK  13 active torsions:
REMARK  status: ('A' for Active; 'I' for Inactive)
REMARK    1  A    between atoms: C_1  and  C_2
REMARK    2  A    between atoms: C_2  and  O_3
REMARK    3  A    between atoms: O_3  and  C_4
REMARK    4  A    between atoms: C_4  and  C_6
REMARK    5  A    between atoms: C_7  and  S_8
REMARK    6  A    between atoms: S_8  and  N_11
REMARK    7  A    between atoms: N_11  and  C_12
REMARK    8  A    between atoms: C_12  and  C_13
REMARK    9  A    between atoms: N_15  and  C_16
REMARK   10  A    between atoms: C_21  and  C_22
REMARK   11  A    between atoms: C_27  and  C_28
REMARK   12  A    between atoms: N_29  and  C_30
REMARK   13  A    between atoms: C_31  and  C_32
REMARK                            x       y       z     vdW  Elec       q    Type
REMARK                         _______ _______ _______ _____ _____    ______ ____
ROOT
ATOM      1  N   UNL     1       0.563   9.915  18.013  0.00  0.00    +0.000 NA
ATOM      2  H   UNL     1       0.233  10.148  17.067  0.00  0.00    +0.000 HD
ENDROOT
BRANCH   1   3
ATOM      3  S   UNL     1       0.040  11.127  19.074  0.00  0.00    +0.000 S 
ATOM      4  O   UNL     1       0.664  12.364  18.668  0.00  0.00    +0.000 OA
ATOM      5  O   UNL     1       0.193  10.605  20.415  0.00  0.00    +0.000 OA
BRANCH   3   7
ATOM      6  C   UNL     1      -2.437  12.205  19.843  0.00  0.00    +0.000 A 
ATOM      7  C   UNL     1      -1.691  11.372  18.941  0.00  0.00    +0.000 A 
ATOM      8  C   UNL     1      -2.567  10.932  17.950  0.00  0.00    +0.000 A 
ATOM      9  C   UNL     1      -2.364  10.069  16.748  0.00  0.00    +0.000 C 
ATOM     10  N   UNL     1      -3.803  11.490  18.220  0.00  0.00    +0.000 N 
ATOM     11  C   UNL     1      -5.011  11.308  17.428  0.00  0.00    +0.000 C 
ATOM     12  C   UNL     1      -3.741  12.273  19.347  0.00  0.00    +0.000 A 
ATOM     13  C   UNL     1      -4.930  13.012  19.887  0.00  0.00    +0.000 C 
BRANCH   6  14
ATOM     14  C   UNL     1      -1.966  12.836  21.076  0.00  0.00    +0.000 C 
ATOM     15  O   UNL     1      -1.374  13.909  21.080  0.00  0.00    +0.000 OA
BRANCH  14  16
ATOM     16  O   UNL     1      -2.138  12.026  22.159  0.00  0.00    +0.000 OA
BRANCH  16  18
ATOM     17  C   UNL     1      -4.037  12.609  23.500  0.00  0.00    +0.000 C 
ATOM     18  C   UNL     1      -2.520  12.637  23.397  0.00  0.00    +0.000 C 
ENDBRANCH  16  18
ENDBRANCH  14  16
ENDBRANCH   6  14
ENDBRANCH   3   7
ENDBRANCH   1   3
BRANCH   1  19
ATOM     19  C   UNL     1       2.001   9.583  18.101  0.00  0.00    +0.000 C 
BRANCH  19  20
ATOM     20  C   UNL     1       2.245   8.173  18.625  0.00  0.00    +0.000 C 
ATOM     21  O   UNL     1       2.115   7.938  19.826  0.00  0.00    +0.000 OA
ATOM     22  N   UNL     1       2.589   7.245  17.649  0.00  0.00    +0.000 N 
ATOM     23  H   UNL     1       2.764   7.637  16.726  0.00  0.00    +0.000 HD
BRANCH  22  24
ATOM     24  C   UNL     1       2.883   5.879  17.866  0.00  0.00    +0.000 A 
ATOM     25  C   UNL     1       4.024   5.260  17.358  0.00  0.00    +0.000 A 
ATOM     26  C   UNL     1       4.237   3.891  17.536  0.00  0.00    +0.000 A 
ATOM     27  C   UNL     1       3.310   3.108  18.226  0.00  0.00    +0.000 A 
ATOM     28 CL   UNL     1       3.668   1.423  18.334  0.00  0.00    +0.000 Cl
ATOM     29  C   UNL     1       2.170   3.700  18.778  0.00  0.00    +0.000 A 
ATOM     30  C   UNL     1       1.982   5.099  18.605  0.00  0.00    +0.000 A 
BRANCH  29  31
ATOM     31  C   UNL     1       1.112   2.936  19.536  0.00  0.00    +0.000 C 
ATOM     32  F   UNL     1       1.549   1.985  20.401  0.00  0.00    +0.000 F 
ATOM     33  F   UNL     1       0.323   3.766  20.277  0.00  0.00    +0.000 F 
ATOM     34  F   UNL     1       0.259   2.285  18.692  0.00  0.00    +0.000 F 
ENDBRANCH  29  31
ENDBRANCH  22  24
ENDBRANCH  19  20
ENDBRANCH   1  19
TORSDOF 9
ENDMDL
MODEL 2
REMARK VINA RESULT:      -7.8      0.963      1.295
REMARK  Name = 
REMARK  13 active torsions:
REMARK  status: ('A' for Active; 'I' for Inactive)
REMARK    1  A    between atoms: C_1  and  C_2
REMARK    2  A    between atoms: C_2  and  O_3
REMARK    3  A    between atoms: O_3  and  C_4
REMARK    4  A    between atoms: C_4  and  C_6
REMARK    5  A    between atoms: C_7  and  S_8
REMARK    6  A    between atoms: S_8  and  N_11
REMARK    7  A    between atoms: N_11  and  C_12
REMARK    8  A    between atoms: C_12  and  C_13
REMARK    9  A    between atoms: N_15  and  C_16
REMARK   10  A    between atoms: C_21  and  C_22
REMARK   11  A    between atoms: C_27  and  C_28
REMARK   12  A    between atoms: N_29  and  C_30
REMARK   13  A    between atoms: C_31  and  C_32
REMARK                            x       y       z     vdW  Elec       q    Type
REMARK                         _______ _______ _______ _____ _____    ______ ____
ROOT
ATOM      1  N   UNL     1       1.018  10.049  17.932  0.00  0.00    +0.000 NA
ATOM      2  H   UNL     1       0.658  10.388  17.030  0.00  0.00    +0.000 HD
ENDROOT
BRANCH   1   3
ATOM      3  S   UNL     1       0.789  11.266  19.088  0.00  0.00    +0.000 S 
ATOM      4  O   UNL     1       1.406  12.470  18.585  0.00  0.00    +0.000 OA
ATOM      5  O   UNL     1       1.157  10.702  20.369  0.00  0.00    +0.000 OA
BRANCH   3   7
ATOM      6  C   UNL     1      -1.410  12.565  20.256  0.00  0.00    +0.000 A 
ATOM      7  C   UNL     1      -0.916  11.624  19.291  0.00  0.00    +0.000 A 
ATOM      8  C   UNL     1      -2.002  11.183  18.536  0.00  0.00    +0.000 A 
ATOM      9  C   UNL     1      -2.102  10.230  17.390  0.00  0.00    +0.000 C 
ATOM     10  N   UNL     1      -3.122  11.844  19.006  0.00  0.00    +0.000 N 
ATOM     11  C   UNL     1      -4.476  11.695  18.494  0.00  0.00    +0.000 C 
ATOM     12  C   UNL     1      -2.783  12.693  20.032  0.00  0.00    +0.000 A 
ATOM     13  C   UNL     1      -3.791  13.548  20.742  0.00  0.00    +0.000 C 
BRANCH   6  14
ATOM     14  C   UNL     1      -0.659  13.241  21.314  0.00  0.00    +0.000 C 
ATOM     15  O   UNL     1      -0.328  14.419  21.234  0.00  0.00    +0.000 OA
BRANCH  14  16
ATOM     16  O   UNL     1      -0.266  12.375  22.292  0.00  0.00    +0.000 OA
BRANCH  16  18
ATOM     17  C   UNL     1      -0.860  10.240  23.202  0.00  0.00    +0.000 C 
ATOM     18  C   UNL     1      -1.287  11.688  23.024  0.00  0.00    +0.000 C 
ENDBRANCH  16  18
ENDBRANCH  14  16
ENDBRANCH   6  14
ENDBRANCH   3   7
ENDBRANCH   1   3
BRANCH   1  19
ATOM     19  C   UNL     1       2.384   9.486  17.880  0.00  0.00    +0.000 C 
BRANCH  19  20
ATOM     20  C   UNL     1       2.451   8.062  18.421  0.00  0.00    +0.000 C 
ATOM     21  O   UNL     1       2.019   7.817  19.547  0.00  0.00    +0.000 OA
ATOM     22  N   UNL     1       3.002   7.136  17.543  0.00  0.00    +0.000 N 
ATOM     23  H   UNL     1       3.412   7.533  16.700  0.00  0.00    +0.000 HD
BRANCH  22  24
ATOM     24  C   UNL     1       3.194   5.758  17.800  0.00  0.00    +0.000 A 
ATOM     25  C   UNL     1       4.304   5.051  17.341  0.00  0.00    +0.000 A 
ATOM     26  C   UNL     1       4.417   3.675  17.556  0.00  0.00    +0.000 A 
ATOM     27  C   UNL     1       3.419   2.975  18.235  0.00  0.00    +0.000 A 
ATOM     28 CL   UNL     1       3.656   1.272  18.392  0.00  0.00    +0.000 Cl
ATOM     29  C   UNL     1       2.307   3.657  18.739  0.00  0.00    +0.000 A 
ATOM     30  C   UNL     1       2.221   5.060  18.529  0.00  0.00    +0.000 A 
BRANCH  29  31
ATOM     31  C   UNL     1       1.177   2.986  19.482  0.00  0.00    +0.000 C 
ATOM     32  F   UNL     1       0.304   3.801  20.128  0.00  0.00    +0.000 F 
ATOM     33  F   UNL     1       0.413   2.219  18.653  0.00  0.00    +0.000 F 
ATOM     34  F   UNL     1       1.642   2.131  20.439  0.00  0.00    +0.000 F 
ENDBRANCH  29  31
ENDBRANCH  22  24
ENDBRANCH  19  20
ENDBRANCH   1  19
TORSDOF 9
ENDMDL
MODEL 3
REMARK VINA RESULT:      -7.7      2.031      3.534
REMARK  Name = 
REMARK  13 active torsions:
REMARK  status: ('A' for Active; 'I' for Inactive)
REMARK    1  A    between atoms: C_1  and  C_2
REMARK    2  A    between atoms: C_2  and  O_3
REMARK    3  A    between atoms: O_3  and  C_4
REMARK    4  A    between atoms: C_4  and  C_6
REMARK    5  A    between atoms: C_7  and  S_8
REMARK    6  A    between atoms: S_8  and  N_11
REMARK    7  A    between atoms: N_11  and  C_12
REMARK    8  A    between atoms: C_12  and  C_13
REMARK    9  A    between atoms: N_15  and  C_16
REMARK   10  A    between atoms: C_21  and  C_22
REMARK   11  A    between atoms: C_27  and  C_28
REMARK   12  A    between atoms: N_29  and  C_30
REMARK   13  A    between atoms: C_31  and  C_32
REMARK                            x       y       z     vdW  Elec       q    Type
REMARK                         _______ _______ _______ _____ _____    ______ ____
ROOT
ATOM      1  N   UNL     1      -0.271  10.839  21.152  0.00  0.00    +0.000 NA
ATOM      2  H   UNL     1       0.011  11.452  20.374  0.00  0.00    +0.000 HD
ENDROOT
BRANCH   1   3
ATOM      3  S   UNL     1      -0.938  11.803  22.374  0.00  0.00    +0.000 S 
ATOM      4  O   UNL     1      -0.142  13.004  22.469  0.00  0.00    +0.000 OA
ATOM      5  O   UNL     1      -1.150  10.942  23.518  0.00  0.00    +0.000 OA
BRANCH   3   7
ATOM      6  C   UNL     1      -3.025  12.424  20.601  0.00  0.00    +0.000 A 
ATOM      7  C   UNL     1      -2.563  12.311  21.956  0.00  0.00    +0.000 A 
ATOM      8  C   UNL     1      -3.647  12.564  22.795  0.00  0.00    +0.000 A 
ATOM      9  C   UNL     1      -3.780  12.571  24.283  0.00  0.00    +0.000 C 
ATOM     10  N   UNL     1      -4.742  12.806  21.986  0.00  0.00    +0.000 N 
ATOM     11  C   UNL     1      -6.091  13.102  22.445  0.00  0.00    +0.000 C 
ATOM     12  C   UNL     1      -4.391  12.709  20.662  0.00  0.00    +0.000 A 
ATOM     13  C   UNL     1      -5.373  12.918  19.546  0.00  0.00    +0.000 C 
BRANCH   6  14
ATOM     14  C   UNL     1      -2.237  12.314  19.374  0.00  0.00    +0.000 C 
ATOM     15  O   UNL     1      -1.367  13.125  19.078  0.00  0.00    +0.000 OA
BRANCH  14  16
ATOM     16  O   UNL     1      -2.689  11.312  18.567  0.00  0.00    +0.000 OA
BRANCH  16  18
ATOM     17  C   UNL     1      -2.428   9.894  16.653  0.00  0.00    +0.000 C 
ATOM     18  C   UNL     1      -1.721  10.571  17.816  0.00  0.00    +0.000 C 
ENDBRANCH  16  18
ENDBRANCH  14  16
ENDBRANCH   6  14
ENDBRANCH   3   7
ENDBRANCH   1   3
BRANCH   1  19
ATOM     19  C   UNL     1       0.771   9.891  21.600  0.00  0.00    +0.000 C 
BRANCH  19  20
ATOM     20  C   UNL     1       1.190   8.919  20.502  0.00  0.00    +0.000 C 
ATOM     21  O   UNL     1       1.187   9.288  19.328  0.00  0.00    +0.000 OA
ATOM     22  N   UNL     1       1.569   7.662  20.958  0.00  0.00    +0.000 N 
ATOM     23  H   UNL     1       1.400   7.494  21.947  0.00  0.00    +0.000 HD
BRANCH  22  24
ATOM     24  C   UNL     1       1.985   6.576  20.152  0.00  0.00    +0.000 A 
ATOM     25  C   UNL     1       2.730   6.741  18.986  0.00  0.00    +0.000 A 
ATOM     26  C   UNL     1       3.056   5.646  18.182  0.00  0.00    +0.000 A 
ATOM     27  C   UNL     1       2.640   4.359  18.527  0.00  0.00    +0.000 A 
ATOM     28 CL   UNL     1       3.067   3.100  17.425  0.00  0.00    +0.000 Cl
ATOM     29  C   UNL     1       1.919   4.151  19.706  0.00  0.00    +0.000 A 
ATOM     30  C   UNL     1       1.616   5.275  20.523  0.00  0.00    +0.000 A 
BRANCH  29  31
ATOM     31  C   UNL     1       1.424   2.799  20.160  0.00  0.00    +0.000 C 
ATOM     32  F   UNL     1       0.571   2.150  19.325  0.00  0.00    +0.000 F 
ATOM     33  F   UNL     1       2.453   1.931  20.374  0.00  0.00    +0.000 F 
ATOM     34  F   UNL     1       0.764   2.878  21.352  0.00  0.00    +0.000 F 
ENDBRANCH  29  31
ENDBRANCH  22  24
ENDBRANCH  19  20
ENDBRANCH   1  19
TORSDOF 9
ENDMDL
MODEL 4
REMARK VINA RESULT:      -7.7      0.782      1.298
REMARK  Name = 
REMARK  13 active torsions:
REMARK  status: ('A' for Active; 'I' for Inactive)
REMARK    1  A    between atoms: C_1  and  C_2
REMARK    2  A    between atoms: C_2  and  O_3
REMARK    3  A    between atoms: O_3  and  C_4
REMARK    4  A    between atoms: C_4  and  C_6
REMARK    5  A    between atoms: C_7  and  S_8
REMARK    6  A    between atoms: S_8  and  N_11
REMARK    7  A    between atoms: N_11  and  C_12
REMARK    8  A    between atoms: C_12  and  C_13
REMARK    9  A    between atoms: N_15  and  C_16
REMARK   10  A    between atoms: C_21  and  C_22
REMARK   11  A    between atoms: C_27  and  C_28
REMARK   12  A    between atoms: N_29  and  C_30
REMARK   13  A    between atoms: C_31  and  C_32
REMARK                            x       y       z     vdW  Elec       q    Type
REMARK                         _______ _______ _______ _____ _____    ______ ____
ROOT
ATOM      1  N   UNL     1       0.644   9.883  17.918  0.00  0.00    +0.000 NA
ATOM      2  H   UNL     1       0.322  10.169  16.983  0.00  0.00    +0.000 HD
ENDROOT
BRANCH   1   3
ATOM      3  S   UNL     1       0.149  11.057  19.033  0.00  0.00    +0.000 S 
ATOM      4  O   UNL     1       0.804  12.296  18.686  0.00  0.00    +0.000 OA
ATOM      5  O   UNL     1       0.285  10.470  20.349  0.00  0.00    +0.000 OA
BRANCH   3   7
ATOM      6  C   UNL     1      -2.317  12.093  19.892  0.00  0.00    +0.000 A 
ATOM      7  C   UNL     1      -1.575  11.351  18.910  0.00  0.00    +0.000 A 
ATOM      8  C   UNL     1      -2.447  11.043  17.867  0.00  0.00    +0.000 A 
ATOM      9  C   UNL     1      -2.245  10.315  16.577  0.00  0.00    +0.000 C 
ATOM     10  N   UNL     1      -3.676  11.592  18.184  0.00  0.00    +0.000 N 
ATOM     11  C   UNL     1      -4.876  11.524  17.364  0.00  0.00    +0.000 C 
ATOM     12  C   UNL     1      -3.613  12.243  19.392  0.00  0.00    +0.000 A 
ATOM     13  C   UNL     1      -4.795  12.941  19.999  0.00  0.00    +0.000 C 
BRANCH   6  14
ATOM     14  C   UNL     1      -1.850  12.572  21.193  0.00  0.00    +0.000 C 
ATOM     15  O   UNL     1      -2.249  12.097  22.249  0.00  0.00    +0.000 OA
BRANCH  14  16
ATOM     16  O   UNL     1      -1.058  13.676  21.073  0.00  0.00    +0.000 OA
BRANCH  16  18
ATOM     17  C   UNL     1       0.936  14.899  21.592  0.00  0.00    +0.000 C 
ATOM     18  C   UNL     1      -0.119  13.941  22.121  0.00  0.00    +0.000 C 
ENDBRANCH  16  18
ENDBRANCH  14  16
ENDBRANCH   6  14
ENDBRANCH   3   7
ENDBRANCH   1   3
BRANCH   1  19
ATOM     19  C   UNL     1       2.072   9.512  17.993  0.00  0.00    +0.000 C 
BRANCH  19  20
ATOM     20  C   UNL     1       2.284   8.105  18.540  0.00  0.00    +0.000 C 
ATOM     21  O   UNL     1       2.096   7.881  19.735  0.00  0.00    +0.000 OA
ATOM     22  N   UNL     1       2.669   7.167  17.588  0.00  0.00    +0.000 N 
ATOM     23  H   UNL     1       2.890   7.550  16.672  0.00  0.00    +0.000 HD
BRANCH  22  24
ATOM     24  C   UNL     1       2.944   5.801  17.831  0.00  0.00    +0.000 A 
ATOM     25  C   UNL     1       4.091   5.165  17.359  0.00  0.00    +0.000 A 
ATOM     26  C   UNL     1       4.287   3.796  17.560  0.00  0.00    +0.000 A 
ATOM     27  C   UNL     1       3.336   3.031  18.237  0.00  0.00    +0.000 A 
ATOM     28 CL   UNL     1       3.675   1.345  18.377  0.00  0.00    +0.000 Cl
ATOM     29  C   UNL     1       2.188   3.641  18.753  0.00  0.00    +0.000 A 
ATOM     30  C   UNL     1       2.018   5.039  18.558  0.00  0.00    +0.000 A 
BRANCH  29  31
ATOM     31  C   UNL     1       1.105   2.897  19.495  0.00  0.00    +0.000 C 
ATOM     32  F   UNL     1       1.511   2.027  20.455  0.00  0.00    +0.000 F 
ATOM     33  F   UNL     1       0.244   3.750  20.120  0.00  0.00    +0.000 F 
ATOM     34  F   UNL     1       0.331   2.158  18.648  0.00  0.00    +0.000 F 
ENDBRANCH  29  31
ENDBRANCH  22  24
ENDBRANCH  19  20
ENDBRANCH   1  19
TORSDOF 9
ENDMDL
MODEL 5
REMARK VINA RESULT:      -7.6      1.787      3.348
REMARK  Name = 
REMARK  13 active torsions:
REMARK  status: ('A' for Active; 'I' for Inactive)
REMARK    1  A    between atoms: C_1  and  C_2
REMARK    2  A    between atoms: C_2  and  O_3
REMARK    3  A    between atoms: O_3  and  C_4
REMARK    4  A    between atoms: C_4  and  C_6
REMARK    5  A    between atoms: C_7  and  S_8
REMARK    6  A    between atoms: S_8  and  N_11
REMARK    7  A    between atoms: N_11  and  C_12
REMARK    8  A    between atoms: C_12  and  C_13
REMARK    9  A    between atoms: N_15  and  C_16
REMARK   10  A    between atoms: C_21  and  C_22
REMARK   11  A    between atoms: C_27  and  C_28
REMARK   12  A    between atoms: N_29  and  C_30
REMARK   13  A    between atoms: C_31  and  C_32
REMARK                            x       y       z     vdW  Elec       q    Type
REMARK                         _______ _______ _______ _____ _____    ______ ____
ROOT
ATOM      1  N   UNL     1      -0.028  10.098  20.755  0.00  0.00    +0.000 NA
ATOM      2  H   UNL     1      -0.881   9.834  20.243  0.00  0.00    +0.000 HD
ENDROOT
BRANCH   1   3
ATOM      3  S   UNL     1      -0.378  11.448  21.715  0.00  0.00    +0.000 S 
ATOM      4  O   UNL     1       0.556  12.491  21.363  0.00  0.00    +0.000 OA
ATOM      5  O   UNL     1      -0.506  10.973  23.076  0.00  0.00    +0.000 OA
BRANCH   3   7
ATOM      6  C   UNL     1      -2.557  12.049  20.048  0.00  0.00    +0.000 A 
ATOM      7  C   UNL     1      -1.979  12.069  21.363  0.00  0.00    +0.000 A 
ATOM      8  C   UNL     1      -2.948  12.550  22.242  0.00  0.00    +0.000 A 
ATOM      9  C   UNL     1      -2.936  12.772  23.720  0.00  0.00    +0.000 C 
ATOM     10  N   UNL     1      -4.088  12.799  21.499  0.00  0.00    +0.000 N 
ATOM     11  C   UNL     1      -5.352  13.299  22.020  0.00  0.00    +0.000 C 
ATOM     12  C   UNL     1      -3.877  12.487  20.178  0.00  0.00    +0.000 A 
ATOM     13  C   UNL     1      -4.937  12.650  19.128  0.00  0.00    +0.000 C 
BRANCH   6  14
ATOM     14  C   UNL     1      -1.905  11.690  18.788  0.00  0.00    +0.000 C 
ATOM     15  O   UNL     1      -1.264  12.499  18.127  0.00  0.00    +0.000 OA
BRANCH  14  16
ATOM     16  O   UNL     1      -2.221  10.423  18.395  0.00  0.00    +0.000 OA
BRANCH  16  18
ATOM     17  C   UNL     1      -3.067   9.922  16.210  0.00  0.00    +0.000 C 
ATOM     18  C   UNL     1      -1.825  10.013  17.082  0.00  0.00    +0.000 C 
ENDBRANCH  16  18
ENDBRANCH  14  16
ENDBRANCH   6  14
ENDBRANCH   3   7
ENDBRANCH   1   3
BRANCH   1  19
ATOM     19  C   UNL     1       1.181  10.224  19.915  0.00  0.00    +0.000 C 
BRANCH  19  20
ATOM     20  C   UNL     1       1.499   8.945  19.148  0.00  0.00    +0.000 C 
ATOM     21  O   UNL     1       1.319   8.902  17.932  0.00  0.00    +0.000 OA
ATOM     22  N   UNL     1       2.000   7.912  19.932  0.00  0.00    +0.000 N 
ATOM     23  H   UNL     1       1.975   8.082  20.935  0.00  0.00    +0.000 HD
BRANCH  22  24
ATOM     24  C   UNL     1       2.359   6.621  19.477  0.00  0.00    +0.000 A 
ATOM     25  C   UNL     1       2.796   6.372  18.177  0.00  0.00    +0.000 A 
ATOM     26  C   UNL     1       3.070   5.070  17.750  0.00  0.00    +0.000 A 
ATOM     27  C   UNL     1       2.910   3.987  18.615  0.00  0.00    +0.000 A 
ATOM     28 CL   UNL     1       3.235   2.428  17.949  0.00  0.00    +0.000 Cl
ATOM     29  C   UNL     1       2.504   4.202  19.935  0.00  0.00    +0.000 A 
ATOM     30  C   UNL     1       2.252   5.536  20.358  0.00  0.00    +0.000 A 
BRANCH  29  31
ATOM     31  C   UNL     1       2.301   3.095  20.941  0.00  0.00    +0.000 C 
ATOM     32  F   UNL     1       1.889   3.466  22.181  0.00  0.00    +0.000 F 
ATOM     33  F   UNL     1       1.381   2.185  20.511  0.00  0.00    +0.000 F 
ATOM     34  F   UNL     1       3.447   2.383  21.145  0.00  0.00    +0.000 F 
ENDBRANCH  29  31
ENDBRANCH  22  24
ENDBRANCH  19  20
ENDBRANCH   1  19
TORSDOF 9
ENDMDL
MODEL 6
REMARK VINA RESULT:      -7.4      7.350     10.071
REMARK  Name = 
REMARK  13 active torsions:
REMARK  status: ('A' for Active; 'I' for Inactive)
REMARK    1  A    between atoms: C_1  and  C_2
REMARK    2  A    between atoms: C_2  and  O_3
REMARK    3  A    between atoms: O_3  and  C_4
REMARK    4  A    between atoms: C_4  and  C_6
REMARK    5  A    between atoms: C_7  and  S_8
REMARK    6  A    between atoms: S_8  and  N_11
REMARK    7  A    between atoms: N_11  and  C_12
REMARK    8  A    between atoms: C_12  and  C_13
REMARK    9  A    between atoms: N_15  and  C_16
REMARK   10  A    between atoms: C_21  and  C_22
REMARK   11  A    between atoms: C_27  and  C_28
REMARK   12  A    between atoms: N_29  and  C_30
REMARK   13  A    between atoms: C_31  and  C_32
REMARK                            x       y       z     vdW  Elec       q    Type
REMARK                         _______ _______ _______ _____ _____    ______ ____
ROOT
ATOM      1  N   UNL     1       6.478   6.006  17.463  0.00  0.00    +0.000 NA
ATOM      2  H   UNL     1       6.906   5.070  17.452  0.00  0.00    +0.000 HD
ENDROOT
BRANCH   1   3
ATOM      3  S   UNL     1       4.899   5.878  16.866  0.00  0.00    +0.000 S 
ATOM      4  O   UNL     1       4.761   4.571  16.266  0.00  0.00    +0.000 OA
ATOM      5  O   UNL     1       4.634   7.087  16.117  0.00  0.00    +0.000 OA
BRANCH   3   7
ATOM      6  C   UNL     1       3.529   4.890  19.111  0.00  0.00    +0.000 A 
ATOM      7  C   UNL     1       3.728   5.957  18.169  0.00  0.00    +0.000 A 
ATOM      8  C   UNL     1       2.926   7.025  18.565  0.00  0.00    +0.000 A 
ATOM      9  C   UNL     1       2.729   8.393  17.996  0.00  0.00    +0.000 C 
ATOM     10  N   UNL     1       2.271   6.639  19.721  0.00  0.00    +0.000 N 
ATOM     11  C   UNL     1       1.340   7.455  20.486  0.00  0.00    +0.000 C 
ATOM     12  C   UNL     1       2.635   5.362  20.074  0.00  0.00    +0.000 A 
ATOM     13  C   UNL     1       2.088   4.671  21.289  0.00  0.00    +0.000 C 
BRANCH   6  14
ATOM     14  C   UNL     1       4.100   3.544  19.073  0.00  0.00    +0.000 C 
ATOM     15  O   UNL     1       5.199   3.283  19.549  0.00  0.00    +0.000 OA
BRANCH  14  16
ATOM     16  O   UNL     1       3.338   2.689  18.333  0.00  0.00    +0.000 OA
BRANCH  16  18
ATOM     17  C   UNL     1       1.011   2.252  18.703  0.00  0.00    +0.000 C 
ATOM     18  C   UNL     1       2.433   1.827  19.031  0.00  0.00    +0.000 C 
ENDBRANCH  16  18
ENDBRANCH  14  16
ENDBRANCH   6  14
ENDBRANCH   3   7
ENDBRANCH   1   3
BRANCH   1  19
ATOM     19  C   UNL     1       7.299   7.066  16.839  0.00  0.00    +0.000 C 
BRANCH  19  20
ATOM     20  C   UNL     1       8.014   7.935  17.867  0.00  0.00    +0.000 C 
ATOM     21  O   UNL     1       8.487   7.417  18.878  0.00  0.00    +0.000 OA
ATOM     22  N   UNL     1       8.081   9.284  17.538  0.00  0.00    +0.000 N 
ATOM     23  H   UNL     1       7.536   9.554  16.722  0.00  0.00    +0.000 HD
BRANCH  22  24
ATOM     24  C   UNL     1       8.672  10.303  18.320  0.00  0.00    +0.000 A 
ATOM     25  C   UNL     1       9.392  10.041  19.484  0.00  0.00    +0.000 A 
ATOM     26  C   UNL     1       9.897  11.083  20.266  0.00  0.00    +0.000 A 
ATOM     27  C   UNL     1       9.689  12.414  19.900  0.00  0.00    +0.000 A 
ATOM     28 CL   UNL     1      10.323  13.606  20.976  0.00  0.00    +0.000 Cl
ATOM     29  C   UNL     1       8.999  12.714  18.722  0.00  0.00    +0.000 A 
ATOM     30  C   UNL     1       8.513  11.639  17.928  0.00  0.00    +0.000 A 
BRANCH  29  31
ATOM     31  C   UNL     1       8.724  14.120  18.247  0.00  0.00    +0.000 C 
ATOM     32  F   UNL     1       9.785  14.822  17.770  0.00  0.00    +0.000 F 
ATOM     33  F   UNL     1       7.796  14.143  17.248  0.00  0.00    +0.000 F 
ATOM     34  F   UNL     1       8.203  14.895  19.242  0.00  0.00    +0.000 F 
ENDBRANCH  29  31
ENDBRANCH  22  24
ENDBRANCH  19  20
ENDBRANCH   1  19
TORSDOF 9
ENDMDL
MODEL 7
REMARK VINA RESULT:      -7.4      1.908      2.247
REMARK  Name = 
REMARK  13 active torsions:
REMARK  status: ('A' for Active; 'I' for Inactive)
REMARK    1  A    between atoms: C_1  and  C_2
REMARK    2  A    between atoms: C_2  and  O_3
REMARK    3  A    between atoms: O_3  and  C_4
REMARK    4  A    between atoms: C_4  and  C_6
REMARK    5  A    between atoms: C_7  and  S_8
REMARK    6  A    between atoms: S_8  and  N_11
REMARK    7  A    between atoms: N_11  and  C_12
REMARK    8  A    between atoms: C_12  and  C_13
REMARK    9  A    between atoms: N_15  and  C_16
REMARK   10  A    between atoms: C_21  and  C_22
REMARK   11  A    between atoms: C_27  and  C_28
REMARK   12  A    between atoms: N_29  and  C_30
REMARK   13  A    between atoms: C_31  and  C_32
REMARK                            x       y       z     vdW  Elec       q    Type
REMARK                         _______ _______ _______ _____ _____    ______ ____
ROOT
ATOM      1  N   UNL     1       1.000  10.844  21.946  0.00  0.00    +0.000 NA
ATOM      2  H   UNL     1       1.099  11.602  22.635  0.00  0.00    +0.000 HD
ENDROOT
BRANCH   1   3
ATOM      3  S   UNL     1       0.752  11.539  20.422  0.00  0.00    +0.000 S 
ATOM      4  O   UNL     1       1.237  10.608  19.430  0.00  0.00    +0.000 OA
ATOM      5  O   UNL     1       1.248  12.897  20.494  0.00  0.00    +0.000 OA
BRANCH   3   7
ATOM      6  C   UNL     1      -1.785  12.664  20.858  0.00  0.00    +0.000 A 
ATOM      7  C   UNL     1      -0.958  11.761  20.106  0.00  0.00    +0.000 A 
ATOM      8  C   UNL     1      -1.737  11.233  19.078  0.00  0.00    +0.000 A 
ATOM      9  C   UNL     1      -1.424  10.270  17.979  0.00  0.00    +0.000 C 
ATOM     10  N   UNL     1      -2.993  11.804  19.180  0.00  0.00    +0.000 N 
ATOM     11  C   UNL     1      -4.121  11.546  18.297  0.00  0.00    +0.000 C 
ATOM     12  C   UNL     1      -3.036  12.681  20.237  0.00  0.00    +0.000 A 
ATOM     13  C   UNL     1      -4.269  13.456  20.597  0.00  0.00    +0.000 C 
BRANCH   6  14
ATOM     14  C   UNL     1      -1.431  13.402  22.071  0.00  0.00    +0.000 C 
ATOM     15  O   UNL     1      -0.704  14.388  22.051  0.00  0.00    +0.000 OA
BRANCH  14  16
ATOM     16  O   UNL     1      -1.883  12.777  23.195  0.00  0.00    +0.000 OA
BRANCH  16  18
ATOM     17  C   UNL     1      -3.974  12.438  24.316  0.00  0.00    +0.000 C 
ATOM     18  C   UNL     1      -2.886  13.442  23.972  0.00  0.00    +0.000 C 
ENDBRANCH  16  18
ENDBRANCH  14  16
ENDBRANCH   6  14
ENDBRANCH   3   7
ENDBRANCH   1   3
BRANCH   1  19
ATOM     19  C   UNL     1       0.032   9.792  22.320  0.00  0.00    +0.000 C 
BRANCH  19  20
ATOM     20  C   UNL     1       0.169   8.539  21.463  0.00  0.00    +0.000 C 
ATOM     21  O   UNL     1      -0.828   7.868  21.201  0.00  0.00    +0.000 OA
ATOM     22  N   UNL     1       1.463   8.275  21.027  0.00  0.00    +0.000 N 
ATOM     23  H   UNL     1       2.182   8.869  21.434  0.00  0.00    +0.000 HD
BRANCH  22  24
ATOM     24  C   UNL     1       1.866   7.174  20.237  0.00  0.00    +0.000 A 
ATOM     25  C   UNL     1       2.409   7.317  18.961  0.00  0.00    +0.000 A 
ATOM     26  C   UNL     1       2.726   6.198  18.187  0.00  0.00    +0.000 A 
ATOM     27  C   UNL     1       2.504   4.908  18.672  0.00  0.00    +0.000 A 
ATOM     28 CL   UNL     1       2.894   3.614  17.599  0.00  0.00    +0.000 Cl
ATOM     29  C   UNL     1       1.992   4.726  19.960  0.00  0.00    +0.000 A 
ATOM     30  C   UNL     1       1.697   5.877  20.741  0.00  0.00    +0.000 A 
BRANCH  29  31
ATOM     31  C   UNL     1       1.716   3.373  20.569  0.00  0.00    +0.000 C 
ATOM     32  F   UNL     1       2.697   2.441  20.455  0.00  0.00    +0.000 F 
ATOM     33  F   UNL     1       1.455   3.464  21.905  0.00  0.00    +0.000 F 
ATOM     34  F   UNL     1       0.608   2.791  20.023  0.00  0.00    +0.000 F 
ENDBRANCH  29  31
ENDBRANCH  22  24
ENDBRANCH  19  20
ENDBRANCH   1  19
TORSDOF 9
ENDMDL
MODEL 8
REMARK VINA RESULT:      -7.3      1.701      3.315
REMARK  Name = 
REMARK  13 active torsions:
REMARK  status: ('A' for Active; 'I' for Inactive)
REMARK    1  A    between atoms: C_1  and  C_2
REMARK    2  A    between atoms: C_2  and  O_3
REMARK    3  A    between atoms: O_3  and  C_4
REMARK    4  A    between atoms: C_4  and  C_6
REMARK    5  A    between atoms: C_7  and  S_8
REMARK    6  A    between atoms: S_8  and  N_11
REMARK    7  A    between atoms: N_11  and  C_12
REMARK    8  A    between atoms: C_12  and  C_13
REMARK    9  A    between atoms: N_15  and  C_16
REMARK   10  A    between atoms: C_21  and  C_22
REMARK   11  A    between atoms: C_27  and  C_28
REMARK   12  A    between atoms: N_29  and  C_30
REMARK   13  A    between atoms: C_31  and  C_32
REMARK                            x       y       z     vdW  Elec       q    Type
REMARK                         _______ _______ _______ _____ _____    ______ ____
ROOT
ATOM      1  N   UNL     1       0.650  11.140  18.489  0.00  0.00    +0.000 NA
ATOM      2  H   UNL     1       1.160  11.254  17.603  0.00  0.00    +0.000 HD
ENDROOT
BRANCH   1   3
ATOM      3  S   UNL     1       0.421  12.673  19.173  0.00  0.00    +0.000 S 
ATOM      4  O   UNL     1       0.771  13.655  18.174  0.00  0.00    +0.000 OA
ATOM      5  O   UNL     1       1.058  12.652  20.472  0.00  0.00    +0.000 OA
BRANCH   3   7
ATOM      6  C   UNL     1      -2.326  12.094  19.089  0.00  0.00    +0.000 A 
ATOM      7  C   UNL     1      -1.267  12.938  19.566  0.00  0.00    +0.000 A 
ATOM      8  C   UNL     1      -1.830  13.872  20.434  0.00  0.00    +0.000 A 
ATOM      9  C   UNL     1      -1.230  14.978  21.240  0.00  0.00    +0.000 C 
ATOM     10  N   UNL     1      -3.184  13.599  20.506  0.00  0.00    +0.000 N 
ATOM     11  C   UNL     1      -4.157  14.322  21.312  0.00  0.00    +0.000 C 
ATOM     12  C   UNL     1      -3.499  12.521  19.715  0.00  0.00    +0.000 A 
ATOM     13  C   UNL     1      -4.896  11.988  19.591  0.00  0.00    +0.000 C 
BRANCH   6  14
ATOM     14  C   UNL     1      -2.237  11.016  18.103  0.00  0.00    +0.000 C 
ATOM     15  O   UNL     1      -2.055   9.847  18.423  0.00  0.00    +0.000 OA
BRANCH  14  16
ATOM     16  O   UNL     1      -2.235  11.494  16.826  0.00  0.00    +0.000 OA
BRANCH  16  18
ATOM     17  C   UNL     1      -2.907  10.177  14.941  0.00  0.00    +0.000 C 
ATOM     18  C   UNL     1      -3.355  11.179  15.992  0.00  0.00    +0.000 C 
ENDBRANCH  16  18
ENDBRANCH  14  16
ENDBRANCH   6  14
ENDBRANCH   3   7
ENDBRANCH   1   3
BRANCH   1  19
ATOM     19  C   UNL     1       1.218  10.127  19.402  0.00  0.00    +0.000 C 
BRANCH  19  20
ATOM     20  C   UNL     1       1.583   8.831  18.685  0.00  0.00    +0.000 C 
ATOM     21  O   UNL     1       1.391   8.731  17.474  0.00  0.00    +0.000 OA
ATOM     22  N   UNL     1       2.138   7.854  19.504  0.00  0.00    +0.000 N 
ATOM     23  H   UNL     1       2.116   8.064  20.499  0.00  0.00    +0.000 HD
BRANCH  22  24
ATOM     24  C   UNL     1       2.547   6.563  19.097  0.00  0.00    +0.000 A 
ATOM     25  C   UNL     1       3.565   6.349  18.170  0.00  0.00    +0.000 A 
ATOM     26  C   UNL     1       3.887   5.059  17.742  0.00  0.00    +0.000 A 
ATOM     27  C   UNL     1       3.195   3.951  18.233  0.00  0.00    +0.000 A 
ATOM     28 CL   UNL     1       3.658   2.418  17.590  0.00  0.00    +0.000 Cl
ATOM     29  C   UNL     1       2.189   4.124  19.189  0.00  0.00    +0.000 A 
ATOM     30  C   UNL     1       1.892   5.443  19.628  0.00  0.00    +0.000 A 
BRANCH  29  31
ATOM     31  C   UNL     1       1.385   2.989  19.775  0.00  0.00    +0.000 C 
ATOM     32  F   UNL     1       0.595   3.288  20.839  0.00  0.00    +0.000 F 
ATOM     33  F   UNL     1       0.554   2.430  18.851  0.00  0.00    +0.000 F 
ATOM     34  F   UNL     1       2.188   1.971  20.203  0.00  0.00    +0.000 F 
ENDBRANCH  29  31
ENDBRANCH  22  24
ENDBRANCH  19  20
ENDBRANCH   1  19
TORSDOF 9
ENDMDL
MODEL 9
REMARK VINA RESULT:      -7.3      1.135      1.429
REMARK  Name = 
REMARK  13 active torsions:
REMARK  status: ('A' for Active; 'I' for Inactive)
REMARK    1  A    between atoms: C_1  and  C_2
REMARK    2  A    between atoms: C_2  and  O_3
REMARK    3  A    between atoms: O_3  and  C_4
REMARK    4  A    between atoms: C_4  and  C_6
REMARK    5  A    between atoms: C_7  and  S_8
REMARK    6  A    between atoms: S_8  and  N_11
REMARK    7  A    between atoms: N_11  and  C_12
REMARK    8  A    between atoms: C_12  and  C_13
REMARK    9  A    between atoms: N_15  and  C_16
REMARK   10  A    between atoms: C_21  and  C_22
REMARK   11  A    between atoms: C_27  and  C_28
REMARK   12  A    between atoms: N_29  and  C_30
REMARK   13  A    between atoms: C_31  and  C_32
REMARK                            x       y       z     vdW  Elec       q    Type
REMARK                         _______ _______ _______ _____ _____    ______ ____
ROOT
ATOM      1  N   UNL     1       0.168   9.945  17.983  0.00  0.00    +0.000 NA
ATOM      2  H   UNL     1      -0.262  10.051  17.054  0.00  0.00    +0.000 HD
ENDROOT
BRANCH   1   3
ATOM      3  S   UNL     1      -0.304  11.260  18.940  0.00  0.00    +0.000 S 
ATOM      4  O   UNL     1       0.256  12.454  18.353  0.00  0.00    +0.000 OA
ATOM      5  O   UNL     1      -0.038  10.894  20.315  0.00  0.00    +0.000 OA
BRANCH   3   7
ATOM      6  C   UNL     1      -2.744  12.369  19.782  0.00  0.00    +0.000 A 
ATOM      7  C   UNL     1      -2.046  11.460  18.916  0.00  0.00    +0.000 A 
ATOM      8  C   UNL     1      -2.981  10.904  18.044  0.00  0.00    +0.000 A 
ATOM      9  C   UNL     1      -2.846   9.924  16.925  0.00  0.00    +0.000 C 
ATOM     10  N   UNL     1      -4.208  11.465  18.349  0.00  0.00    +0.000 N 
ATOM     11  C   UNL     1      -5.466  11.180  17.675  0.00  0.00    +0.000 C 
ATOM     12  C   UNL     1      -4.082  12.362  19.382  0.00  0.00    +0.000 A 
ATOM     13  C   UNL     1      -5.246  13.132  19.932  0.00  0.00    +0.000 C 
BRANCH   6  14
ATOM     14  C   UNL     1      -2.199  13.133  20.904  0.00  0.00    +0.000 C 
ATOM     15  O   UNL     1      -2.289  12.750  22.064  0.00  0.00    +0.000 OA
BRANCH  14  16
ATOM     16  O   UNL     1      -1.731  14.351  20.509  0.00  0.00    +0.000 OA
BRANCH  16  18
ATOM     17  C   UNL     1      -3.250  16.097  21.131  0.00  0.00    +0.000 C 
ATOM     18  C   UNL     1      -1.900  15.455  21.406  0.00  0.00    +0.000 C 
ENDBRANCH  16  18
ENDBRANCH  14  16
ENDBRANCH   6  14
ENDBRANCH   3   7
ENDBRANCH   1   3
BRANCH   1  19
ATOM     19  C   UNL     1       1.621   9.676  17.963  0.00  0.00    +0.000 C 
BRANCH  19  20
ATOM     20  C   UNL     1       2.000   8.449  18.786  0.00  0.00    +0.000 C 
ATOM     21  O   UNL     1       1.720   8.408  19.983  0.00  0.00    +0.000 OA
ATOM     22  N   UNL     1       2.637   7.445  18.066  0.00  0.00    +0.000 N 
ATOM     23  H   UNL     1       2.891   7.695  17.112  0.00  0.00    +0.000 HD
BRANCH  22  24
ATOM     24  C   UNL     1       3.105   6.216  18.587  0.00  0.00    +0.000 A 
ATOM     25  C   UNL     1       4.418   5.777  18.425  0.00  0.00    +0.000 A 
ATOM     26  C   UNL     1       4.818   4.523  18.894  0.00  0.00    +0.000 A 
ATOM     27  C   UNL     1       3.910   3.678  19.535  0.00  0.00    +0.000 A 
ATOM     28 CL   UNL     1       4.519   2.138  20.024  0.00  0.00    +0.000 Cl
ATOM     29  C   UNL     1       2.593   4.099  19.745  0.00  0.00    +0.000 A 
ATOM     30  C   UNL     1       2.212   5.387  19.280  0.00  0.00    +0.000 A 
BRANCH  29  31
ATOM     31  C   UNL     1       1.542   3.256  20.424  0.00  0.00    +0.000 C 
ATOM     32  F   UNL     1       1.718   3.012  21.748  0.00  0.00    +0.000 F 
ATOM     33  F   UNL     1       0.302   3.813  20.319  0.00  0.00    +0.000 F 
ATOM     34  F   UNL     1       1.434   2.023  19.847  0.00  0.00    +0.000 F 
ENDBRANCH  29  31
ENDBRANCH  22  24
ENDBRANCH  19  20
ENDBRANCH   1  19
TORSDOF 9
ENDMDL
