MODEL 1
REMARK VINA RESULT:      -6.8      0.000      0.000
REMARK  Name = 
REMARK  10 active torsions:
REMARK  status: ('A' for Active; 'I' for Inactive)
REMARK    1  A    between atoms: C_1  and  O_2
REMARK    2  A    between atoms: O_2  and  C_3
REMARK    3  A    between atoms: C_6  and  C_7
REMARK    4  A    between atoms: N_9  and  C_10
REMARK    5  A    between atoms: C_10  and  C_11
REMARK    6  A    between atoms: C_11  and  C_12
REMARK    7  A    between atoms: C_12  and  N_13
REMARK    8  A    between atoms: C_14  and  C_16
REMARK    9  A    between atoms: C_22  and  O_23
REMARK   10  A    between atoms: O_23  and  C_24
REMARK                            x       y       z     vdW  Elec       q    Type
REMARK                         _______ _______ _______ _____ _____    ______ ____
ROOT
ATOM      1  C   UNL     1       2.274   6.495  20.001  0.00  0.00    +0.000 C 
ATOM      2  O   UNL     1       3.311   6.132  19.455  0.00  0.00    +0.000 OA
ATOM      3  N   UNL     1       1.531   5.663  20.811  0.00  0.00    +0.000 N 
ATOM      4  H   UNL     1       0.732   6.013  21.316  0.00  0.00    +0.000 HD
ENDROOT
BRANCH   1   8
ATOM      5  C   UNL     1       0.733  10.451  19.225  0.00  0.00    +0.000 A 
ATOM      6  C   UNL     1       1.540   9.775  18.296  0.00  0.00    +0.000 A 
ATOM      7  C   UNL     1       2.024   8.494  18.561  0.00  0.00    +0.000 A 
ATOM      8  C   UNL     1       1.774   7.887  19.792  0.00  0.00    +0.000 A 
ATOM      9  C   UNL     1       1.054   8.603  20.756  0.00  0.00    +0.000 A 
ATOM     10  C   UNL     1       0.533   9.880  20.490  0.00  0.00    +0.000 A 
BRANCH   5  12
ATOM     11  C   UNL     1      -1.150  11.560  18.326  0.00  0.00    +0.000 C 
ATOM     12  O   UNL     1       0.158  11.651  18.905  0.00  0.00    +0.000 OA
ENDBRANCH   5  12
BRANCH  10  13
ATOM     13  O   UNL     1      -0.148  10.365  21.573  0.00  0.00    +0.000 OA
ATOM     14  C   UNL     1       0.007   9.749  22.838  0.00  0.00    +0.000 C 
ENDBRANCH  10  13
ENDBRANCH   1   8
BRANCH   3  15
ATOM     15  C   UNL     1       1.932   4.297  21.082  0.00  0.00    +0.000 C 
BRANCH  15  16
ATOM     16  C   UNL     1       1.190   3.291  20.208  0.00  0.00    +0.000 C 
BRANCH  16  17
ATOM     17  C   UNL     1       2.149   2.335  19.504  0.00  0.00    +0.000 C 
BRANCH  17  18
ATOM     18  N   UNL     1       3.134   3.041  18.716  0.00  0.00    +0.000 N 
ATOM     19  C   UNL     1       4.471   3.058  19.039  0.00  0.00    +0.000 C 
ATOM     20  O   UNL     1       4.920   2.475  20.015  0.00  0.00    +0.000 OA
ATOM     21  H   UNL     1       2.856   3.499  17.853  0.00  0.00    +0.000 HD
BRANCH  19  22
ATOM     22  C   UNL     1       5.286   3.836  18.123  0.00  0.00    +0.000 A 
ATOM     23  C   UNL     1       5.058   4.238  16.820  0.00  0.00    +0.000 A 
ATOM     24  C   UNL     1       6.201   4.965  16.410  0.00  0.00    +0.000 A 
ATOM     25  C   UNL     1       7.059   4.965  17.484  0.00  0.00    +0.000 A 
ATOM     26  O   UNL     1       6.518   4.289  18.529  0.00  0.00    +0.000 OA
ENDBRANCH  19  22
ENDBRANCH  17  18
ENDBRANCH  16  17
ENDBRANCH  15  16
ENDBRANCH   3  15
TORSDOF 8
ENDMDL
MODEL 2
REMARK VINA RESULT:      -6.7      1.644      2.262
REMARK  Name = 
REMARK  10 active torsions:
REMARK  status: ('A' for Active; 'I' for Inactive)
REMARK    1  A    between atoms: C_1  and  O_2
REMARK    2  A    between atoms: O_2  and  C_3
REMARK    3  A    between atoms: C_6  and  C_7
REMARK    4  A    between atoms: N_9  and  C_10
REMARK    5  A    between atoms: C_10  and  C_11
REMARK    6  A    between atoms: C_11  and  C_12
REMARK    7  A    between atoms: C_12  and  N_13
REMARK    8  A    between atoms: C_14  and  C_16
REMARK    9  A    between atoms: C_22  and  O_23
REMARK   10  A    between atoms: O_23  and  C_24
REMARK                            x       y       z     vdW  Elec       q    Type
REMARK                         _______ _______ _______ _____ _____    ______ ____
ROOT
ATOM      1  C   UNL     1       2.714   5.920  19.524  0.00  0.00    +0.000 C 
ATOM      2  O   UNL     1       3.909   5.729  19.722  0.00  0.00    +0.000 OA
ATOM      3  N   UNL     1       1.855   4.914  19.136  0.00  0.00    +0.000 N 
ATOM      4  H   UNL     1       0.863   5.080  19.067  0.00  0.00    +0.000 HD
ENDROOT
BRANCH   1   8
ATOM      5  C   UNL     1       0.920   9.829  19.889  0.00  0.00    +0.000 A 
ATOM      6  C   UNL     1       1.416   9.353  18.664  0.00  0.00    +0.000 A 
ATOM      7  C   UNL     1       1.987   8.084  18.564  0.00  0.00    +0.000 A 
ATOM      8  C   UNL     1       2.142   7.290  19.701  0.00  0.00    +0.000 A 
ATOM      9  C   UNL     1       1.740   7.806  20.937  0.00  0.00    +0.000 A 
ATOM     10  C   UNL     1       1.133   9.069  21.048  0.00  0.00    +0.000 A 
BRANCH   5  12
ATOM     11  C   UNL     1      -0.005  11.641  18.685  0.00  0.00    +0.000 C 
ATOM     12  O   UNL     1       0.248  11.019  19.952  0.00  0.00    +0.000 OA
ENDBRANCH   5  12
BRANCH  10  13
ATOM     13  O   UNL     1       0.809   9.343  22.348  0.00  0.00    +0.000 OA
ATOM     14  C   UNL     1      -0.545   9.313  22.760  0.00  0.00    +0.000 C 
ENDBRANCH  10  13
ENDBRANCH   1   8
BRANCH   3  15
ATOM     15  C   UNL     1       2.307   3.551  18.943  0.00  0.00    +0.000 C 
BRANCH  15  16
ATOM     16  C   UNL     1       2.702   3.271  17.497  0.00  0.00    +0.000 C 
BRANCH  16  17
ATOM     17  C   UNL     1       4.160   2.832  17.382  0.00  0.00    +0.000 C 
BRANCH  17  18
ATOM     18  N   UNL     1       5.073   3.898  17.725  0.00  0.00    +0.000 N 
ATOM     19  C   UNL     1       5.711   4.665  16.778  0.00  0.00    +0.000 C 
ATOM     20  O   UNL     1       5.547   4.499  15.578  0.00  0.00    +0.000 OA
ATOM     21  H   UNL     1       5.217   4.146  18.700  0.00  0.00    +0.000 HD
BRANCH  19  22
ATOM     22  C   UNL     1       6.594   5.673  17.336  0.00  0.00    +0.000 A 
ATOM     23  C   UNL     1       7.419   5.646  18.444  0.00  0.00    +0.000 A 
ATOM     24  C   UNL     1       8.042   6.915  18.522  0.00  0.00    +0.000 A 
ATOM     25  C   UNL     1       7.561   7.642  17.459  0.00  0.00    +0.000 A 
ATOM     26  O   UNL     1       6.687   6.903  16.730  0.00  0.00    +0.000 OA
ENDBRANCH  19  22
ENDBRANCH  17  18
ENDBRANCH  16  17
ENDBRANCH  15  16
ENDBRANCH   3  15
TORSDOF 8
ENDMDL
MODEL 3
REMARK VINA RESULT:      -6.7      1.540      6.900
REMARK  Name = 
REMARK  10 active torsions:
REMARK  status: ('A' for Active; 'I' for Inactive)
REMARK    1  A    between atoms: C_1  and  O_2
REMARK    2  A    between atoms: O_2  and  C_3
REMARK    3  A    between atoms: C_6  and  C_7
REMARK    4  A    between atoms: N_9  and  C_10
REMARK    5  A    between atoms: C_10  and  C_11
REMARK    6  A    between atoms: C_11  and  C_12
REMARK    7  A    between atoms: C_12  and  N_13
REMARK    8  A    between atoms: C_14  and  C_16
REMARK    9  A    between atoms: C_22  and  O_23
REMARK   10  A    between atoms: O_23  and  C_24
REMARK                            x       y       z     vdW  Elec       q    Type
REMARK                         _______ _______ _______ _____ _____    ______ ____
ROOT
ATOM      1  C   UNL     1       3.398   3.172  18.056  0.00  0.00    +0.000 C 
ATOM      2  O   UNL     1       3.370   1.990  18.383  0.00  0.00    +0.000 OA
ATOM      3  N   UNL     1       2.374   4.048  18.347  0.00  0.00    +0.000 N 
ATOM      4  H   UNL     1       2.463   5.032  18.145  0.00  0.00    +0.000 HD
ENDROOT
BRANCH   1   8
ATOM      5  C   UNL     1       6.673   4.853  15.802  0.00  0.00    +0.000 A 
ATOM      6  C   UNL     1       5.546   4.302  15.172  0.00  0.00    +0.000 A 
ATOM      7  C   UNL     1       4.494   3.769  15.917  0.00  0.00    +0.000 A 
ATOM      8  C   UNL     1       4.577   3.707  17.308  0.00  0.00    +0.000 A 
ATOM      9  C   UNL     1       5.743   4.165  17.930  0.00  0.00    +0.000 A 
ATOM     10  C   UNL     1       6.797   4.735  17.194  0.00  0.00    +0.000 A 
BRANCH   5  12
ATOM     11  C   UNL     1       7.578   5.257  13.657  0.00  0.00    +0.000 C 
ATOM     12  O   UNL     1       7.640   5.488  15.071  0.00  0.00    +0.000 OA
ENDBRANCH   5  12
BRANCH  10  13
ATOM     13  O   UNL     1       7.814   5.125  18.021  0.00  0.00    +0.000 OA
ATOM     14  C   UNL     1       7.799   6.419  18.597  0.00  0.00    +0.000 C 
ENDBRANCH  10  13
ENDBRANCH   1   8
BRANCH   3  15
ATOM     15  C   UNL     1       1.191   3.632  19.073  0.00  0.00    +0.000 C 
BRANCH  15  16
ATOM     16  C   UNL     1       1.306   3.900  20.570  0.00  0.00    +0.000 C 
BRANCH  16  17
ATOM     17  C   UNL     1       2.324   4.996  20.874  0.00  0.00    +0.000 C 
BRANCH  17  18
ATOM     18  N   UNL     1       1.835   6.305  20.505  0.00  0.00    +0.000 N 
ATOM     19  C   UNL     1       2.419   7.065  19.519  0.00  0.00    +0.000 C 
ATOM     20  O   UNL     1       3.392   6.686  18.884  0.00  0.00    +0.000 OA
ATOM     21  H   UNL     1       0.991   6.669  20.938  0.00  0.00    +0.000 HD
BRANCH  19  22
ATOM     22  C   UNL     1       1.779   8.352  19.314  0.00  0.00    +0.000 A 
ATOM     23  C   UNL     1       1.683   9.151  18.190  0.00  0.00    +0.000 A 
ATOM     24  C   UNL     1       0.956  10.305  18.569  0.00  0.00    +0.000 A 
ATOM     25  C   UNL     1       0.651  10.144  19.900  0.00  0.00    +0.000 A 
ATOM     26  O   UNL     1       1.139   8.966  20.364  0.00  0.00    +0.000 OA
ENDBRANCH  19  22
ENDBRANCH  17  18
ENDBRANCH  16  17
ENDBRANCH  15  16
ENDBRANCH   3  15
TORSDOF 8
ENDMDL
MODEL 4
REMARK VINA RESULT:      -6.7      1.371      1.751
REMARK  Name = 
REMARK  10 active torsions:
REMARK  status: ('A' for Active; 'I' for Inactive)
REMARK    1  A    between atoms: C_1  and  O_2
REMARK    2  A    between atoms: O_2  and  C_3
REMARK    3  A    between atoms: C_6  and  C_7
REMARK    4  A    between atoms: N_9  and  C_10
REMARK    5  A    between atoms: C_10  and  C_11
REMARK    6  A    between atoms: C_11  and  C_12
REMARK    7  A    between atoms: C_12  and  N_13
REMARK    8  A    between atoms: C_14  and  C_16
REMARK    9  A    between atoms: C_22  and  O_23
REMARK   10  A    between atoms: O_23  and  C_24
REMARK                            x       y       z     vdW  Elec       q    Type
REMARK                         _______ _______ _______ _____ _____    ______ ____
ROOT
ATOM      1  C   UNL     1       1.982   4.940  20.486  0.00  0.00    +0.000 C 
ATOM      2  O   UNL     1       2.426   4.633  21.588  0.00  0.00    +0.000 OA
ATOM      3  N   UNL     1       1.549   4.003  19.572  0.00  0.00    +0.000 N 
ATOM      4  H   UNL     1       1.108   4.287  18.711  0.00  0.00    +0.000 HD
ENDROOT
BRANCH   1   8
ATOM      5  C   UNL     1       1.631   9.042  19.190  0.00  0.00    +0.000 A 
ATOM      6  C   UNL     1       2.195   8.051  18.370  0.00  0.00    +0.000 A 
ATOM      7  C   UNL     1       2.294   6.729  18.803  0.00  0.00    +0.000 A 
ATOM      8  C   UNL     1       1.900   6.380  20.095  0.00  0.00    +0.000 A 
ATOM      9  C   UNL     1       1.432   7.387  20.946  0.00  0.00    +0.000 A 
ATOM     10  C   UNL     1       1.295   8.717  20.512  0.00  0.00    +0.000 A 
BRANCH   5  12
ATOM     11  C   UNL     1       0.048  10.639  18.464  0.00  0.00    +0.000 C 
ATOM     12  O   UNL     1       1.421  10.306  18.711  0.00  0.00    +0.000 OA
ENDBRANCH   5  12
BRANCH  10  13
ATOM     13  O   UNL     1       0.800   9.508  21.511  0.00  0.00    +0.000 OA
ATOM     14  C   UNL     1      -0.312   9.073  22.272  0.00  0.00    +0.000 C 
ENDBRANCH  10  13
ENDBRANCH   1   8
BRANCH   3  15
ATOM     15  C   UNL     1       1.581   2.582  19.855  0.00  0.00    +0.000 C 
BRANCH  15  16
ATOM     16  C   UNL     1       2.011   1.760  18.645  0.00  0.00    +0.000 C 
BRANCH  16  17
ATOM     17  C   UNL     1       3.527   1.588  18.587  0.00  0.00    +0.000 C 
BRANCH  17  18
ATOM     18  N   UNL     1       4.141   2.515  17.663  0.00  0.00    +0.000 N 
ATOM     19  C   UNL     1       4.765   3.670  18.074  0.00  0.00    +0.000 C 
ATOM     20  O   UNL     1       4.845   3.992  19.251  0.00  0.00    +0.000 OA
ATOM     21  H   UNL     1       4.176   2.292  16.673  0.00  0.00    +0.000 HD
BRANCH  19  22
ATOM     22  C   UNL     1       5.304   4.465  16.986  0.00  0.00    +0.000 A 
ATOM     23  C   UNL     1       4.845   5.627  16.395  0.00  0.00    +0.000 A 
ATOM     24  C   UNL     1       5.763   5.955  15.369  0.00  0.00    +0.000 A 
ATOM     25  C   UNL     1       6.727   4.976  15.392  0.00  0.00    +0.000 A 
ATOM     26  O   UNL     1       6.466   4.069  16.368  0.00  0.00    +0.000 OA
ENDBRANCH  19  22
ENDBRANCH  17  18
ENDBRANCH  16  17
ENDBRANCH  15  16
ENDBRANCH   3  15
TORSDOF 8
ENDMDL
MODEL 5
REMARK VINA RESULT:      -6.7      1.178      1.283
REMARK  Name = 
REMARK  10 active torsions:
REMARK  status: ('A' for Active; 'I' for Inactive)
REMARK    1  A    between atoms: C_1  and  O_2
REMARK    2  A    between atoms: O_2  and  C_3
REMARK    3  A    between atoms: C_6  and  C_7
REMARK    4  A    between atoms: N_9  and  C_10
REMARK    5  A    between atoms: C_10  and  C_11
REMARK    6  A    between atoms: C_11  and  C_12
REMARK    7  A    between atoms: C_12  and  N_13
REMARK    8  A    between atoms: C_14  and  C_16
REMARK    9  A    between atoms: C_22  and  O_23
REMARK   10  A    between atoms: O_23  and  C_24
REMARK                            x       y       z     vdW  Elec       q    Type
REMARK                         _______ _______ _______ _____ _____    ______ ____
ROOT
ATOM      1  C   UNL     1       2.475   6.366  20.072  0.00  0.00    +0.000 C 
ATOM      2  O   UNL     1       3.576   6.072  19.618  0.00  0.00    +0.000 OA
ATOM      3  N   UNL     1       1.729   5.493  20.835  0.00  0.00    +0.000 N 
ATOM      4  H   UNL     1       0.869   5.792  21.268  0.00  0.00    +0.000 HD
ENDROOT
BRANCH   1   8
ATOM      5  C   UNL     1       0.719  10.189  19.106  0.00  0.00    +0.000 A 
ATOM      6  C   UNL     1       1.603   9.537  18.231  0.00  0.00    +0.000 A 
ATOM      7  C   UNL     1       2.156   8.299  18.557  0.00  0.00    +0.000 A 
ATOM      8  C   UNL     1       1.896   7.716  19.798  0.00  0.00    +0.000 A 
ATOM      9  C   UNL     1       1.097   8.414  20.710  0.00  0.00    +0.000 A 
ATOM     10  C   UNL     1       0.507   9.647  20.382  0.00  0.00    +0.000 A 
BRANCH   5  12
ATOM     11  C   UNL     1      -1.226  11.151  18.171  0.00  0.00    +0.000 C 
ATOM     12  O   UNL     1       0.083  11.339  18.725  0.00  0.00    +0.000 OA
ENDBRANCH   5  12
BRANCH  10  13
ATOM     13  O   UNL     1      -0.245  10.120  21.423  0.00  0.00    +0.000 OA
ATOM     14  C   UNL     1       0.069   9.742  22.750  0.00  0.00    +0.000 C 
ENDBRANCH  10  13
ENDBRANCH   1   8
BRANCH   3  15
ATOM     15  C   UNL     1       2.201   4.163  21.163  0.00  0.00    +0.000 C 
BRANCH  15  16
ATOM     16  C   UNL     1       1.224   3.077  20.724  0.00  0.00    +0.000 C 
BRANCH  16  17
ATOM     17  C   UNL     1       1.740   2.306  19.512  0.00  0.00    +0.000 C 
BRANCH  17  18
ATOM     18  N   UNL     1       2.976   2.858  19.006  0.00  0.00    +0.000 N 
ATOM     19  C   UNL     1       3.148   3.211  17.688  0.00  0.00    +0.000 C 
ATOM     20  O   UNL     1       2.266   3.083  16.852  0.00  0.00    +0.000 OA
ATOM     21  H   UNL     1       3.739   3.058  19.647  0.00  0.00    +0.000 HD
BRANCH  19  22
ATOM     22  C   UNL     1       4.468   3.735  17.388  0.00  0.00    +0.000 A 
ATOM     23  C   UNL     1       5.510   4.104  18.218  0.00  0.00    +0.000 A 
ATOM     24  C   UNL     1       6.558   4.560  17.383  0.00  0.00    +0.000 A 
ATOM     25  C   UNL     1       6.096   4.444  16.093  0.00  0.00    +0.000 A 
ATOM     26  O   UNL     1       4.835   3.943  16.080  0.00  0.00    +0.000 OA
ENDBRANCH  19  22
ENDBRANCH  17  18
ENDBRANCH  16  17
ENDBRANCH  15  16
ENDBRANCH   3  15
TORSDOF 8
ENDMDL
MODEL 6
REMARK VINA RESULT:      -6.6      1.551      2.151
REMARK  Name = 
REMARK  10 active torsions:
REMARK  status: ('A' for Active; 'I' for Inactive)
REMARK    1  A    between atoms: C_1  and  O_2
REMARK    2  A    between atoms: O_2  and  C_3
REMARK    3  A    between atoms: C_6  and  C_7
REMARK    4  A    between atoms: N_9  and  C_10
REMARK    5  A    between atoms: C_10  and  C_11
REMARK    6  A    between atoms: C_11  and  C_12
REMARK    7  A    between atoms: C_12  and  N_13
REMARK    8  A    between atoms: C_14  and  C_16
REMARK    9  A    between atoms: C_22  and  O_23
REMARK   10  A    between atoms: O_23  and  C_24
REMARK                            x       y       z     vdW  Elec       q    Type
REMARK                         _______ _______ _______ _____ _____    ______ ____
ROOT
ATOM      1  C   UNL     1       2.889   5.736  19.268  0.00  0.00    +0.000 C 
ATOM      2  O   UNL     1       4.028   5.528  19.674  0.00  0.00    +0.000 OA
ATOM      3  N   UNL     1       2.033   4.718  18.906  0.00  0.00    +0.000 N 
ATOM      4  H   UNL     1       1.074   4.913  18.660  0.00  0.00    +0.000 HD
ENDROOT
BRANCH   1   8
ATOM      5  C   UNL     1       1.326   9.727  18.759  0.00  0.00    +0.000 A 
ATOM      6  C   UNL     1       2.009   9.062  17.728  0.00  0.00    +0.000 A 
ATOM      7  C   UNL     1       2.502   7.769  17.909  0.00  0.00    +0.000 A 
ATOM      8  C   UNL     1       2.388   7.139  19.148  0.00  0.00    +0.000 A 
ATOM      9  C   UNL     1       1.797   7.841  20.204  0.00  0.00    +0.000 A 
ATOM     10  C   UNL     1       1.267   9.131  20.027  0.00  0.00    +0.000 A 
BRANCH   5  12
ATOM     11  C   UNL     1       1.600  12.073  18.692  0.00  0.00    +0.000 C 
ATOM     12  O   UNL     1       0.736  10.940  18.533  0.00  0.00    +0.000 OA
ENDBRANCH   5  12
BRANCH  10  13
ATOM     13  O   UNL     1       0.724   9.600  21.192  0.00  0.00    +0.000 OA
ATOM     14  C   UNL     1       1.202   9.122  22.436  0.00  0.00    +0.000 C 
ENDBRANCH  10  13
ENDBRANCH   1   8
BRANCH   3  15
ATOM     15  C   UNL     1       2.418   3.324  18.991  0.00  0.00    +0.000 C 
BRANCH  15  16
ATOM     16  C   UNL     1       2.601   2.689  17.616  0.00  0.00    +0.000 C 
BRANCH  16  17
ATOM     17  C   UNL     1       4.075   2.474  17.282  0.00  0.00    +0.000 C 
BRANCH  17  18
ATOM     18  N   UNL     1       4.871   3.646  17.568  0.00  0.00    +0.000 N 
ATOM     19  C   UNL     1       5.854   4.102  16.722  0.00  0.00    +0.000 C 
ATOM     20  O   UNL     1       6.123   3.548  15.666  0.00  0.00    +0.000 OA
ATOM     21  H   UNL     1       4.669   4.204  18.394  0.00  0.00    +0.000 HD
BRANCH  19  22
ATOM     22  C   UNL     1       6.540   5.287  17.203  0.00  0.00    +0.000 A 
ATOM     23  C   UNL     1       6.497   6.601  16.773  0.00  0.00    +0.000 A 
ATOM     24  C   UNL     1       7.381   7.332  17.602  0.00  0.00    +0.000 A 
ATOM     25  C   UNL     1       7.912   6.425  18.488  0.00  0.00    +0.000 A 
ATOM     26  O   UNL     1       7.410   5.184  18.262  0.00  0.00    +0.000 OA
ENDBRANCH  19  22
ENDBRANCH  17  18
ENDBRANCH  16  17
ENDBRANCH  15  16
ENDBRANCH   3  15
TORSDOF 8
ENDMDL
MODEL 7
REMARK VINA RESULT:      -6.6      1.771      2.954
REMARK  Name = 
REMARK  10 active torsions:
REMARK  status: ('A' for Active; 'I' for Inactive)
REMARK    1  A    between atoms: C_1  and  O_2
REMARK    2  A    between atoms: O_2  and  C_3
REMARK    3  A    between atoms: C_6  and  C_7
REMARK    4  A    between atoms: N_9  and  C_10
REMARK    5  A    between atoms: C_10  and  C_11
REMARK    6  A    between atoms: C_11  and  C_12
REMARK    7  A    between atoms: C_12  and  N_13
REMARK    8  A    between atoms: C_14  and  C_16
REMARK    9  A    between atoms: C_22  and  O_23
REMARK   10  A    between atoms: O_23  and  C_24
REMARK                            x       y       z     vdW  Elec       q    Type
REMARK                         _______ _______ _______ _____ _____    ______ ____
ROOT
ATOM      1  C   UNL     1       1.957   7.528  20.080  0.00  0.00    +0.000 C 
ATOM      2  O   UNL     1       2.583   7.764  19.052  0.00  0.00    +0.000 OA
ATOM      3  N   UNL     1       1.916   6.275  20.653  0.00  0.00    +0.000 N 
ATOM      4  H   UNL     1       1.467   6.130  21.544  0.00  0.00    +0.000 HD
ENDROOT
BRANCH   1   8
ATOM      5  C   UNL     1      -0.070  10.724  22.154  0.00  0.00    +0.000 A 
ATOM      6  C   UNL     1       0.397   9.584  22.827  0.00  0.00    +0.000 A 
ATOM      7  C   UNL     1       1.056   8.563  22.141  0.00  0.00    +0.000 A 
ATOM      8  C   UNL     1       1.199   8.625  20.754  0.00  0.00    +0.000 A 
ATOM      9  C   UNL     1       0.644   9.714  20.072  0.00  0.00    +0.000 A 
ATOM     10  C   UNL     1       0.007  10.764  20.755  0.00  0.00    +0.000 A 
BRANCH   5  12
ATOM     11  C   UNL     1      -2.019  11.720  23.045  0.00  0.00    +0.000 C 
ATOM     12  O   UNL     1      -0.599  11.776  22.851  0.00  0.00    +0.000 OA
ENDBRANCH   5  12
BRANCH  10  13
ATOM     13  O   UNL     1      -0.431  11.720  19.879  0.00  0.00    +0.000 OA
ATOM     14  C   UNL     1      -1.297  11.362  18.818  0.00  0.00    +0.000 C 
ENDBRANCH  10  13
ENDBRANCH   1   8
BRANCH   3  15
ATOM     15  C   UNL     1       2.621   5.146  20.082  0.00  0.00    +0.000 C 
BRANCH  15  16
ATOM     16  C   UNL     1       1.895   4.559  18.876  0.00  0.00    +0.000 C 
BRANCH  16  17
ATOM     17  C   UNL     1       2.767   4.583  17.622  0.00  0.00    +0.000 C 
BRANCH  17  18
ATOM     18  N   UNL     1       3.978   5.346  17.821  0.00  0.00    +0.000 N 
ATOM     19  C   UNL     1       5.172   5.014  17.226  0.00  0.00    +0.000 C 
ATOM     20  O   UNL     1       5.293   4.049  16.486  0.00  0.00    +0.000 OA
ATOM     21  H   UNL     1       3.951   6.201  18.370  0.00  0.00    +0.000 HD
BRANCH  19  22
ATOM     22  C   UNL     1       6.266   5.905  17.567  0.00  0.00    +0.000 A 
ATOM     23  C   UNL     1       7.244   5.813  18.540  0.00  0.00    +0.000 A 
ATOM     24  C   UNL     1       8.044   6.975  18.427  0.00  0.00    +0.000 A 
ATOM     25  C   UNL     1       7.510   7.708  17.395  0.00  0.00    +0.000 A 
ATOM     26  O   UNL     1       6.435   7.072  16.862  0.00  0.00    +0.000 OA
ENDBRANCH  19  22
ENDBRANCH  17  18
ENDBRANCH  16  17
ENDBRANCH  15  16
ENDBRANCH   3  15
TORSDOF 8
ENDMDL
MODEL 8
REMARK VINA RESULT:      -6.6      1.599      3.872
REMARK  Name = 
REMARK  10 active torsions:
REMARK  status: ('A' for Active; 'I' for Inactive)
REMARK    1  A    between atoms: C_1  and  O_2
REMARK    2  A    between atoms: O_2  and  C_3
REMARK    3  A    between atoms: C_6  and  C_7
REMARK    4  A    between atoms: N_9  and  C_10
REMARK    5  A    between atoms: C_10  and  C_11
REMARK    6  A    between atoms: C_11  and  C_12
REMARK    7  A    between atoms: C_12  and  N_13
REMARK    8  A    between atoms: C_14  and  C_16
REMARK    9  A    between atoms: C_22  and  O_23
REMARK   10  A    between atoms: O_23  and  C_24
REMARK                            x       y       z     vdW  Elec       q    Type
REMARK                         _______ _______ _______ _____ _____    ______ ____
ROOT
ATOM      1  C   UNL     1       3.104   6.784  17.821  0.00  0.00    +0.000 C 
ATOM      2  O   UNL     1       2.708   5.658  17.540  0.00  0.00    +0.000 OA
ATOM      3  N   UNL     1       4.280   7.304  17.322  0.00  0.00    +0.000 N 
ATOM      4  H   UNL     1       4.536   8.262  17.500  0.00  0.00    +0.000 HD
ENDROOT
BRANCH   1   8
ATOM      5  C   UNL     1       0.946   9.267  20.615  0.00  0.00    +0.000 A 
ATOM      6  C   UNL     1       1.434   8.000  20.974  0.00  0.00    +0.000 A 
ATOM      7  C   UNL     1       2.135   7.214  20.059  0.00  0.00    +0.000 A 
ATOM      8  C   UNL     1       2.301   7.644  18.742  0.00  0.00    +0.000 A 
ATOM      9  C   UNL     1       1.728   8.861  18.359  0.00  0.00    +0.000 A 
ATOM     10  C   UNL     1       1.047   9.679  19.279  0.00  0.00    +0.000 A 
BRANCH   5  12
ATOM     11  C   UNL     1       0.067   9.450  22.801  0.00  0.00    +0.000 C 
ATOM     12  O   UNL     1       0.374  10.084  21.552  0.00  0.00    +0.000 OA
ENDBRANCH   5  12
BRANCH  10  13
ATOM     13  O   UNL     1       0.597  10.822  18.676  0.00  0.00    +0.000 OA
ATOM     14  C   UNL     1      -0.787  10.993  18.430  0.00  0.00    +0.000 C 
ENDBRANCH  10  13
ENDBRANCH   1   8
BRANCH   3  15
ATOM     15  C   UNL     1       5.128   6.554  16.418  0.00  0.00    +0.000 C 
BRANCH  15  16
ATOM     16  C   UNL     1       6.513   6.296  17.003  0.00  0.00    +0.000 C 
BRANCH  16  17
ATOM     17  C   UNL     1       6.760   4.808  17.239  0.00  0.00    +0.000 C 
BRANCH  17  18
ATOM     18  N   UNL     1       5.571   4.130  17.703  0.00  0.00    +0.000 N 
ATOM     19  C   UNL     1       5.231   4.052  19.034  0.00  0.00    +0.000 C 
ATOM     20  O   UNL     1       5.911   4.554  19.917  0.00  0.00    +0.000 OA
ATOM     21  H   UNL     1       4.917   3.741  17.031  0.00  0.00    +0.000 HD
BRANCH  19  22
ATOM     22  C   UNL     1       4.005   3.317  19.285  0.00  0.00    +0.000 A 
ATOM     23  C   UNL     1       3.084   3.408  20.312  0.00  0.00    +0.000 A 
ATOM     24  C   UNL     1       2.088   2.437  20.055  0.00  0.00    +0.000 A 
ATOM     25  C   UNL     1       2.456   1.810  18.889  0.00  0.00    +0.000 A 
ATOM     26  O   UNL     1       3.613   2.334  18.408  0.00  0.00    +0.000 OA
ENDBRANCH  19  22
ENDBRANCH  17  18
ENDBRANCH  16  17
ENDBRANCH  15  16
ENDBRANCH   3  15
TORSDOF 8
ENDMDL
MODEL 9
REMARK VINA RESULT:      -6.6      1.830      7.610
REMARK  Name = 
REMARK  10 active torsions:
REMARK  status: ('A' for Active; 'I' for Inactive)
REMARK    1  A    between atoms: C_1  and  O_2
REMARK    2  A    between atoms: O_2  and  C_3
REMARK    3  A    between atoms: C_6  and  C_7
REMARK    4  A    between atoms: N_9  and  C_10
REMARK    5  A    between atoms: C_10  and  C_11
REMARK    6  A    between atoms: C_11  and  C_12
REMARK    7  A    between atoms: C_12  and  N_13
REMARK    8  A    between atoms: C_14  and  C_16
REMARK    9  A    between atoms: C_22  and  O_23
REMARK   10  A    between atoms: O_23  and  C_24
REMARK                            x       y       z     vdW  Elec       q    Type
REMARK                         _______ _______ _______ _____ _____    ______ ____
ROOT
ATOM      1  C   UNL     1       3.886   3.343  18.170  0.00  0.00    +0.000 C 
ATOM      2  O   UNL     1       3.180   2.417  17.786  0.00  0.00    +0.000 OA
ATOM      3  N   UNL     1       3.740   3.923  19.412  0.00  0.00    +0.000 N 
ATOM      4  H   UNL     1       4.390   4.623  19.735  0.00  0.00    +0.000 HD
ENDROOT
BRANCH   1   8
ATOM      5  C   UNL     1       6.813   4.995  15.462  0.00  0.00    +0.000 A 
ATOM      6  C   UNL     1       5.799   4.131  15.019  0.00  0.00    +0.000 A 
ATOM      7  C   UNL     1       4.858   3.611  15.908  0.00  0.00    +0.000 A 
ATOM      8  C   UNL     1       4.952   3.885  17.273  0.00  0.00    +0.000 A 
ATOM      9  C   UNL     1       6.021   4.665  17.727  0.00  0.00    +0.000 A 
ATOM     10  C   UNL     1       6.957   5.222  16.838  0.00  0.00    +0.000 A 
BRANCH   5  12
ATOM     11  C   UNL     1       7.631   5.045  13.246  0.00  0.00    +0.000 C 
ATOM     12  O   UNL     1       7.653   5.601  14.567  0.00  0.00    +0.000 OA
ENDBRANCH   5  12
BRANCH  10  13
ATOM     13  O   UNL     1       7.892   5.959  17.513  0.00  0.00    +0.000 OA
ATOM     14  C   UNL     1       7.630   7.315  17.826  0.00  0.00    +0.000 C 
ENDBRANCH  10  13
ENDBRANCH   1   8
BRANCH   3  15
ATOM     15  C   UNL     1       2.742   3.469  20.359  0.00  0.00    +0.000 C 
BRANCH  15  16
ATOM     16  C   UNL     1       1.800   4.588  20.789  0.00  0.00    +0.000 C 
BRANCH  16  17
ATOM     17  C   UNL     1       2.277   5.952  20.297  0.00  0.00    +0.000 C 
BRANCH  17  18
ATOM     18  N   UNL     1       1.576   7.036  20.947  0.00  0.00    +0.000 N 
ATOM     19  C   UNL     1       1.402   8.267  20.358  0.00  0.00    +0.000 C 
ATOM     20  O   UNL     1       1.827   8.529  19.243  0.00  0.00    +0.000 OA
ATOM     21  H   UNL     1       1.135   6.884  21.849  0.00  0.00    +0.000 HD
BRANCH  19  22
ATOM     22  C   UNL     1       0.681   9.217  21.186  0.00  0.00    +0.000 A 
ATOM     23  C   UNL     1       0.339  10.538  20.967  0.00  0.00    +0.000 A 
ATOM     24  C   UNL     1      -0.351  10.980  22.121  0.00  0.00    +0.000 A 
ATOM     25  C   UNL     1      -0.392   9.904  22.976  0.00  0.00    +0.000 A 
ATOM     26  O   UNL     1       0.225   8.829  22.423  0.00  0.00    +0.000 OA
ENDBRANCH  19  22
ENDBRANCH  17  18
ENDBRANCH  16  17
ENDBRANCH  15  16
ENDBRANCH   3  15
TORSDOF 8
ENDMDL
