MODEL 1
REMARK VINA RESULT:      -8.9      0.000      0.000
REMARK  Name = 
REMARK  9 active torsions:
REMARK  status: ('A' for Active; 'I' for Inactive)
REMARK    1  A    between atoms: C_1  and  O_2
REMARK    2  A    between atoms: O_2  and  C_3
REMARK    3  A    between atoms: C_7  and  N_8
REMARK    4  A    between atoms: C_17  and  N_18
REMARK    5  A    between atoms: N_18  and  C_19
REMARK    6  A    between atoms: C_25  and  O_26
REMARK    7  A    between atoms: O_26  and  C_27
REMARK    8  A    between atoms: C_28  and  O_29
REMARK    9  A    between atoms: O_29  and  C_30
REMARK                            x       y       z     vdW  Elec       q    Type
REMARK                         _______ _______ _______ _____ _____    ______ ____
ROOT
ATOM      1  N   UNL     1       4.761   3.750  17.411  0.00  0.00    +0.000 N 
ATOM      2  C   UNL     1       4.533   4.820  18.407  0.00  0.00    +0.000 C 
ATOM      3  O   UNL     1       5.288   4.801  19.391  0.00  0.00    +0.000 OA
ATOM      4  N   UNL     1       3.062   5.301  18.512  0.00  0.00    +0.000 N 
ATOM      5  C   UNL     1       2.532   4.417  19.562  0.00  0.00    +0.000 C 
ATOM      6  C   UNL     1       1.457   4.916  20.501  0.00  0.00    +0.000 C 
ATOM      7  C   UNL     1       1.500   6.381  20.914  0.00  0.00    +0.000 C 
ATOM      8  C   UNL     1       2.125   7.371  19.949  0.00  0.00    +0.000 A 
ATOM      9  C   UNL     1       1.628   8.840  20.202  0.00  0.00    +0.000 A 
ATOM     10  C   UNL     1       1.301   9.780  19.187  0.00  0.00    +0.000 A 
ATOM     11  C   UNL     1       1.478   9.130  17.932  0.00  0.00    +0.000 A 
ATOM     12  C   UNL     1       2.153   7.717  17.730  0.00  0.00    +0.000 A 
ATOM     13  C   UNL     1       2.641   6.840  18.745  0.00  0.00    +0.000 A 
ATOM     14  H   UNL     1       5.138   2.908  17.848  0.00  0.00    +0.000 HD
ENDROOT
BRANCH   1  19
ATOM     15  C   UNL     1       6.288   3.924  13.836  0.00  0.00    +0.000 A 
ATOM     16  C   UNL     1       7.242   4.902  14.134  0.00  0.00    +0.000 A 
ATOM     17  C   UNL     1       7.371   5.432  15.406  0.00  0.00    +0.000 A 
ATOM     18  C   UNL     1       6.538   5.010  16.428  0.00  0.00    +0.000 A 
ATOM     19  C   UNL     1       5.564   4.046  16.218  0.00  0.00    +0.000 A 
ATOM     20  C   UNL     1       5.428   3.482  14.884  0.00  0.00    +0.000 A 
BRANCH  15  22
ATOM     21  C   UNL     1       5.414   2.968  11.729  0.00  0.00    +0.000 C 
ATOM     22  O   UNL     1       6.385   3.626  12.510  0.00  0.00    +0.000 OA
ENDBRANCH  15  22
ENDBRANCH   1  19
BRANCH  10  23
ATOM     23  N   UNL     1       0.455  11.155  19.534  0.00  0.00    +0.000 N 
ATOM     24  H   UNL     1      -0.312  10.506  19.823  0.00  0.00    +0.000 HD
BRANCH  23  25
ATOM     25  C   UNL     1      -0.744  11.998  18.889  0.00  0.00    +0.000 A 
ATOM     26  N   UNL     1      -0.283  13.231  18.765  0.00  0.00    +0.000 NA
ATOM     27  C   UNL     1      -0.909  14.030  19.629  0.00  0.00    +0.000 A 
ATOM     28  N   UNL     1      -1.973  13.761  20.456  0.00  0.00    +0.000 NA
ATOM     29  C   UNL     1      -2.709  12.691  20.088  0.00  0.00    +0.000 A 
ATOM     30  C   UNL     1      -4.028  12.783  20.602  0.00  0.00    +0.000 A 
ATOM     31  C   UNL     1      -5.218  12.313  20.001  0.00  0.00    +0.000 A 
ATOM     32  C   UNL     1      -5.112  11.798  18.733  0.00  0.00    +0.000 A 
ATOM     33  C   UNL     1      -3.707  11.508  18.296  0.00  0.00    +0.000 A 
ATOM     34  C   UNL     1      -2.323  11.821  19.092  0.00  0.00    +0.000 A 
BRANCH  31  35
ATOM     35  O   UNL     1      -6.420  12.618  20.578  0.00  0.00    +0.000 OA
ATOM     36  C   UNL     1      -6.386  12.941  21.969  0.00  0.00    +0.000 C 
ENDBRANCH  31  35
BRANCH  32  37
ATOM     37  O   UNL     1      -6.189  11.617  17.862  0.00  0.00    +0.000 OA
ATOM     38  C   UNL     1      -6.963  12.698  17.237  0.00  0.00    +0.000 C 
ENDBRANCH  32  37
ENDBRANCH  23  25
ENDBRANCH  10  23
TORSDOF 6
ENDMDL
MODEL 2
REMARK VINA RESULT:      -8.7      2.702      3.281
REMARK  Name = 
REMARK  9 active torsions:
REMARK  status: ('A' for Active; 'I' for Inactive)
REMARK    1  A    between atoms: C_1  and  O_2
REMARK    2  A    between atoms: O_2  and  C_3
REMARK    3  A    between atoms: C_7  and  N_8
REMARK    4  A    between atoms: C_17  and  N_18
REMARK    5  A    between atoms: N_18  and  C_19
REMARK    6  A    between atoms: C_25  and  O_26
REMARK    7  A    between atoms: O_26  and  C_27
REMARK    8  A    between atoms: C_28  and  O_29
REMARK    9  A    between atoms: O_29  and  C_30
REMARK                            x       y       z     vdW  Elec       q    Type
REMARK                         _______ _______ _______ _____ _____    ______ ____
ROOT
ATOM      1  N   UNL     1       4.833   3.319  16.960  0.00  0.00    +0.000 N 
ATOM      2  C   UNL     1       4.593   4.195  18.127  0.00  0.00    +0.000 C 
ATOM      3  O   UNL     1       5.324   3.988  19.108  0.00  0.00    +0.000 OA
ATOM      4  N   UNL     1       3.124   4.671  18.285  0.00  0.00    +0.000 N 
ATOM      5  C   UNL     1       2.560   3.619  19.147  0.00  0.00    +0.000 C 
ATOM      6  C   UNL     1       1.468   3.956  20.137  0.00  0.00    +0.000 C 
ATOM      7  C   UNL     1       1.517   5.323  20.808  0.00  0.00    +0.000 C 
ATOM      8  C   UNL     1       2.175   6.462  20.051  0.00  0.00    +0.000 A 
ATOM      9  C   UNL     1       1.687   7.868  20.554  0.00  0.00    +0.000 A 
ATOM     10  C   UNL     1       1.394   8.980  19.718  0.00  0.00    +0.000 A 
ATOM     11  C   UNL     1       1.594   8.563  18.371  0.00  0.00    +0.000 A 
ATOM     12  C   UNL     1       2.259   7.200  17.932  0.00  0.00    +0.000 A 
ATOM     13  C   UNL     1       2.714   6.148  18.783  0.00  0.00    +0.000 A 
ATOM     14  H   UNL     1       5.191   2.406  17.245  0.00  0.00    +0.000 HD
ENDROOT
BRANCH   1  19
ATOM     15  C   UNL     1       6.592   3.951  13.546  0.00  0.00    +0.000 A 
ATOM     16  C   UNL     1       7.337   5.057  13.970  0.00  0.00    +0.000 A 
ATOM     17  C   UNL     1       7.269   5.527  15.270  0.00  0.00    +0.000 A 
ATOM     18  C   UNL     1       6.441   4.913  16.195  0.00  0.00    +0.000 A 
ATOM     19  C   UNL     1       5.668   3.813  15.857  0.00  0.00    +0.000 A 
ATOM     20  C   UNL     1       5.739   3.312  14.494  0.00  0.00    +0.000 A 
BRANCH  15  22
ATOM     21  C   UNL     1       6.335   2.708  11.424  0.00  0.00    +0.000 C 
ATOM     22  O   UNL     1       6.847   3.750  12.223  0.00  0.00    +0.000 OA
ENDBRANCH  15  22
ENDBRANCH   1  19
BRANCH  10  23
ATOM     23  N   UNL     1       0.554  10.282  20.289  0.00  0.00    +0.000 N 
ATOM     24  H   UNL     1       1.459  10.798  20.192  0.00  0.00    +0.000 HD
BRANCH  23  25
ATOM     25  C   UNL     1       0.439  11.105  21.658  0.00  0.00    +0.000 A 
ATOM     26  N   UNL     1       0.762  10.250  22.613  0.00  0.00    +0.000 NA
ATOM     27  C   UNL     1      -0.321   9.955  23.333  0.00  0.00    +0.000 A 
ATOM     28  N   UNL     1      -1.582  10.497  23.277  0.00  0.00    +0.000 NA
ATOM     29  C   UNL     1      -1.641  11.716  22.698  0.00  0.00    +0.000 A 
ATOM     30  C   UNL     1      -2.783  12.432  23.141  0.00  0.00    +0.000 A 
ATOM     31  C   UNL     1      -2.901  13.828  23.327  0.00  0.00    +0.000 A 
ATOM     32  C   UNL     1      -1.762  14.576  23.161  0.00  0.00    +0.000 A 
ATOM     33  C   UNL     1      -0.635  13.849  22.489  0.00  0.00    +0.000 A 
ATOM     34  C   UNL     1      -0.574  12.287  22.040  0.00  0.00    +0.000 A 
BRANCH  31  35
ATOM     35  O   UNL     1      -4.039  14.328  23.899  0.00  0.00    +0.000 OA
ATOM     36  C   UNL     1      -5.219  14.283  23.096  0.00  0.00    +0.000 C 
ENDBRANCH  31  35
BRANCH  32  37
ATOM     37  O   UNL     1      -1.598  15.880  23.633  0.00  0.00    +0.000 OA
ATOM     38  C   UNL     1      -2.289  17.065  23.106  0.00  0.00    +0.000 C 
ENDBRANCH  32  37
ENDBRANCH  23  25
ENDBRANCH  10  23
TORSDOF 6
ENDMDL
MODEL 3
REMARK VINA RESULT:      -8.6      3.434      4.941
REMARK  Name = 
REMARK  9 active torsions:
REMARK  status: ('A' for Active; 'I' for Inactive)
REMARK    1  A    between atoms: C_1  and  O_2
REMARK    2  A    between atoms: O_2  and  C_3
REMARK    3  A    between atoms: C_7  and  N_8
REMARK    4  A    between atoms: C_17  and  N_18
REMARK    5  A    between atoms: N_18  and  C_19
REMARK    6  A    between atoms: C_25  and  O_26
REMARK    7  A    between atoms: O_26  and  C_27
REMARK    8  A    between atoms: C_28  and  O_29
REMARK    9  A    between atoms: O_29  and  C_30
REMARK                            x       y       z     vdW  Elec       q    Type
REMARK                         _______ _______ _______ _____ _____    ______ ____
ROOT
ATOM      1  N   UNL     1       4.653   3.222  16.974  0.00  0.00    +0.000 N 
ATOM      2  C   UNL     1       4.399   3.955  18.233  0.00  0.00    +0.000 C 
ATOM      3  O   UNL     1       5.056   3.572  19.214  0.00  0.00    +0.000 OA
ATOM      4  N   UNL     1       2.958   4.510  18.378  0.00  0.00    +0.000 N 
ATOM      5  C   UNL     1       2.277   3.399  19.063  0.00  0.00    +0.000 C 
ATOM      6  C   UNL     1       1.151   3.683  20.032  0.00  0.00    +0.000 C 
ATOM      7  C   UNL     1       1.248   4.945  20.880  0.00  0.00    +0.000 C 
ATOM      8  C   UNL     1       2.021   6.122  20.315  0.00  0.00    +0.000 A 
ATOM      9  C   UNL     1       1.594   7.483  20.974  0.00  0.00    +0.000 A 
ATOM     10  C   UNL     1       1.424   8.710  20.279  0.00  0.00    +0.000 A 
ATOM     11  C   UNL     1       1.677   8.458  18.901  0.00  0.00    +0.000 A 
ATOM     12  C   UNL     1       2.279   7.119  18.320  0.00  0.00    +0.000 A 
ATOM     13  C   UNL     1       2.613   5.936  19.045  0.00  0.00    +0.000 A 
ATOM     14  H   UNL     1       4.934   2.257  17.154  0.00  0.00    +0.000 HD
ENDROOT
BRANCH   1  19
ATOM     15  C   UNL     1       6.635   4.177  13.765  0.00  0.00    +0.000 A 
ATOM     16  C   UNL     1       7.443   5.141  14.376  0.00  0.00    +0.000 A 
ATOM     17  C   UNL     1       7.345   5.426  15.727  0.00  0.00    +0.000 A 
ATOM     18  C   UNL     1       6.422   4.761  16.517  0.00  0.00    +0.000 A 
ATOM     19  C   UNL     1       5.582   3.793  15.991  0.00  0.00    +0.000 A 
ATOM     20  C   UNL     1       5.684   3.487  14.573  0.00  0.00    +0.000 A 
BRANCH  15  22
ATOM     21  C   UNL     1       6.915   3.010  11.602  0.00  0.00    +0.000 C 
ATOM     22  O   UNL     1       6.942   4.145  12.438  0.00  0.00    +0.000 OA
ENDBRANCH  15  22
ENDBRANCH   1  19
BRANCH  10  23
ATOM     23  N   UNL     1       0.636   9.985  20.974  0.00  0.00    +0.000 N 
ATOM     24  H   UNL     1       0.084  10.016  20.086  0.00  0.00    +0.000 HD
BRANCH  23  25
ATOM     25  C   UNL     1       0.615  11.580  20.831  0.00  0.00    +0.000 A 
ATOM     26  N   UNL     1      -0.629  11.890  20.508  0.00  0.00    +0.000 NA
ATOM     27  C   UNL     1      -0.668  12.321  19.247  0.00  0.00    +0.000 A 
ATOM     28  N   UNL     1       0.365  12.580  18.379  0.00  0.00    +0.000 NA
ATOM     29  C   UNL     1       1.558  12.786  18.977  0.00  0.00    +0.000 A 
ATOM     30  C   UNL     1       2.414  13.555  18.147  0.00  0.00    +0.000 A 
ATOM     31  C   UNL     1       3.388  14.493  18.557  0.00  0.00    +0.000 A 
ATOM     32  C   UNL     1       3.456  14.775  19.898  0.00  0.00    +0.000 A 
ATOM     33  C   UNL     1       2.712  13.810  20.773  0.00  0.00    +0.000 A 
ATOM     34  C   UNL     1       1.774  12.561  20.319  0.00  0.00    +0.000 A 
BRANCH  31  35
ATOM     35  O   UNL     1       4.023  15.249  17.609  0.00  0.00    +0.000 OA
ATOM     36  C   UNL     1       3.280  16.346  17.077  0.00  0.00    +0.000 C 
ENDBRANCH  31  35
BRANCH  32  37
ATOM     37  O   UNL     1       4.087  15.898  20.439  0.00  0.00    +0.000 OA
ATOM     38  C   UNL     1       3.436  17.186  20.712  0.00  0.00    +0.000 C 
ENDBRANCH  32  37
ENDBRANCH  23  25
ENDBRANCH  10  23
TORSDOF 6
ENDMDL
MODEL 4
REMARK VINA RESULT:      -8.6      2.239      2.935
REMARK  Name = 
REMARK  9 active torsions:
REMARK  status: ('A' for Active; 'I' for Inactive)
REMARK    1  A    between atoms: C_1  and  O_2
REMARK    2  A    between atoms: O_2  and  C_3
REMARK    3  A    between atoms: C_7  and  N_8
REMARK    4  A    between atoms: C_17  and  N_18
REMARK    5  A    between atoms: N_18  and  C_19
REMARK    6  A    between atoms: C_25  and  O_26
REMARK    7  A    between atoms: O_26  and  C_27
REMARK    8  A    between atoms: C_28  and  O_29
REMARK    9  A    between atoms: O_29  and  C_30
REMARK                            x       y       z     vdW  Elec       q    Type
REMARK                         _______ _______ _______ _____ _____    ______ ____
ROOT
ATOM      1  N   UNL     1       4.716   3.315  17.020  0.00  0.00    +0.000 N 
ATOM      2  C   UNL     1       4.509   4.200  18.186  0.00  0.00    +0.000 C 
ATOM      3  O   UNL     1       5.218   3.954  19.175  0.00  0.00    +0.000 OA
ATOM      4  N   UNL     1       3.066   4.752  18.330  0.00  0.00    +0.000 N 
ATOM      5  C   UNL     1       2.439   3.730  19.184  0.00  0.00    +0.000 C 
ATOM      6  C   UNL     1       1.355   4.122  20.163  0.00  0.00    +0.000 C 
ATOM      7  C   UNL     1       1.469   5.483  20.837  0.00  0.00    +0.000 C 
ATOM      8  C   UNL     1       2.193   6.587  20.090  0.00  0.00    +0.000 A 
ATOM      9  C   UNL     1       1.774   8.017  20.591  0.00  0.00    +0.000 A 
ATOM     10  C   UNL     1       1.549   9.143  19.755  0.00  0.00    +0.000 A 
ATOM     11  C   UNL     1       1.741   8.720  18.409  0.00  0.00    +0.000 A 
ATOM     12  C   UNL     1       2.338   7.324  17.974  0.00  0.00    +0.000 A 
ATOM     13  C   UNL     1       2.728   6.248  18.827  0.00  0.00    +0.000 A 
ATOM     14  H   UNL     1       5.022   2.385  17.307  0.00  0.00    +0.000 HD
ENDROOT
BRANCH   1  19
ATOM     15  C   UNL     1       6.421   4.006  13.591  0.00  0.00    +0.000 A 
ATOM     16  C   UNL     1       7.395   4.878  14.087  0.00  0.00    +0.000 A 
ATOM     17  C   UNL     1       7.481   5.186  15.433  0.00  0.00    +0.000 A 
ATOM     18  C   UNL     1       6.584   4.639  16.335  0.00  0.00    +0.000 A 
ATOM     19  C   UNL     1       5.587   3.767  15.927  0.00  0.00    +0.000 A 
ATOM     20  C   UNL     1       5.495   3.437  14.514  0.00  0.00    +0.000 A 
BRANCH  15  22
ATOM     21  C   UNL     1       7.083   2.826  11.520  0.00  0.00    +0.000 C 
ATOM     22  O   UNL     1       6.572   3.926  12.239  0.00  0.00    +0.000 OA
ENDBRANCH  15  22
ENDBRANCH   1  19
BRANCH  10  23
ATOM     23  N   UNL     1       0.772  10.487  20.320  0.00  0.00    +0.000 N 
ATOM     24  H   UNL     1       0.663   9.944  21.207  0.00  0.00    +0.000 HD
BRANCH  23  25
ATOM     25  C   UNL     1      -0.734  10.941  20.623  0.00  0.00    +0.000 A 
ATOM     26  N   UNL     1      -1.365  10.870  19.463  0.00  0.00    +0.000 NA
ATOM     27  C   UNL     1      -1.656  12.100  19.038  0.00  0.00    +0.000 A 
ATOM     28  N   UNL     1      -1.505  13.305  19.680  0.00  0.00    +0.000 NA
ATOM     29  C   UNL     1      -1.407  13.213  21.023  0.00  0.00    +0.000 A 
ATOM     30  C   UNL     1      -1.798  14.429  21.642  0.00  0.00    +0.000 A 
ATOM     31  C   UNL     1      -2.441  14.586  22.891  0.00  0.00    +0.000 A 
ATOM     32  C   UNL     1      -2.826  13.441  23.542  0.00  0.00    +0.000 A 
ATOM     33  C   UNL     1      -2.221  12.182  22.993  0.00  0.00    +0.000 A 
ATOM     34  C   UNL     1      -1.268  12.014  21.686  0.00  0.00    +0.000 A 
BRANCH  31  35
ATOM     35  O   UNL     1      -2.872  15.830  23.265  0.00  0.00    +0.000 OA
ATOM     36  C   UNL     1      -1.854  16.806  23.493  0.00  0.00    +0.000 C 
ENDBRANCH  31  35
BRANCH  32  37
ATOM     37  O   UNL     1      -3.760  13.398  24.580  0.00  0.00    +0.000 OA
ATOM     38  C   UNL     1      -4.742  12.326  24.792  0.00  0.00    +0.000 C 
ENDBRANCH  32  37
ENDBRANCH  23  25
ENDBRANCH  10  23
TORSDOF 6
ENDMDL
MODEL 5
REMARK VINA RESULT:      -8.6      2.835      3.670
REMARK  Name = 
REMARK  9 active torsions:
REMARK  status: ('A' for Active; 'I' for Inactive)
REMARK    1  A    between atoms: C_1  and  O_2
REMARK    2  A    between atoms: O_2  and  C_3
REMARK    3  A    between atoms: C_7  and  N_8
REMARK    4  A    between atoms: C_17  and  N_18
REMARK    5  A    between atoms: N_18  and  C_19
REMARK    6  A    between atoms: C_25  and  O_26
REMARK    7  A    between atoms: O_26  and  C_27
REMARK    8  A    between atoms: C_28  and  O_29
REMARK    9  A    between atoms: O_29  and  C_30
REMARK                            x       y       z     vdW  Elec       q    Type
REMARK                         _______ _______ _______ _____ _____    ______ ____
ROOT
ATOM      1  N   UNL     1       4.971   3.293  16.543  0.00  0.00    +0.000 N 
ATOM      2  C   UNL     1       4.778   4.167  17.721  0.00  0.00    +0.000 C 
ATOM      3  O   UNL     1       5.579   3.991  18.652  0.00  0.00    +0.000 OA
ATOM      4  N   UNL     1       3.308   4.594  17.974  0.00  0.00    +0.000 N 
ATOM      5  C   UNL     1       2.838   3.529  18.875  0.00  0.00    +0.000 C 
ATOM      6  C   UNL     1       1.803   3.834  19.934  0.00  0.00    +0.000 C 
ATOM      7  C   UNL     1       1.850   5.205  20.595  0.00  0.00    +0.000 C 
ATOM      8  C   UNL     1       2.416   6.361  19.792  0.00  0.00    +0.000 A 
ATOM      9  C   UNL     1       1.914   7.754  20.321  0.00  0.00    +0.000 A 
ATOM     10  C   UNL     1       1.529   8.849  19.503  0.00  0.00    +0.000 A 
ATOM     11  C   UNL     1       1.654   8.432  18.147  0.00  0.00    +0.000 A 
ATOM     12  C   UNL     1       2.335   7.090  17.670  0.00  0.00    +0.000 A 
ATOM     13  C   UNL     1       2.880   6.059  18.492  0.00  0.00    +0.000 A 
ATOM     14  H   UNL     1       5.377   2.394  16.808  0.00  0.00    +0.000 HD
ENDROOT
BRANCH   1  19
ATOM     15  C   UNL     1       7.443   5.106  14.146  0.00  0.00    +0.000 A 
ATOM     16  C   UNL     1       6.956   4.524  12.971  0.00  0.00    +0.000 A 
ATOM     17  C   UNL     1       5.898   3.633  12.981  0.00  0.00    +0.000 A 
ATOM     18  C   UNL     1       5.292   3.280  14.175  0.00  0.00    +0.000 A 
ATOM     19  C   UNL     1       5.713   3.808  15.386  0.00  0.00    +0.000 A 
ATOM     20  C   UNL     1       6.822   4.749  15.380  0.00  0.00    +0.000 A 
BRANCH  15  22
ATOM     21  C   UNL     1       9.106   6.008  12.553  0.00  0.00    +0.000 C 
ATOM     22  O   UNL     1       8.495   5.908  13.820  0.00  0.00    +0.000 OA
ENDBRANCH  15  22
ENDBRANCH   1  19
BRANCH  10  23
ATOM     23  N   UNL     1       0.685  10.125  20.123  0.00  0.00    +0.000 N 
ATOM     24  H   UNL     1       1.570  10.666  19.987  0.00  0.00    +0.000 HD
BRANCH  23  25
ATOM     25  C   UNL     1       0.614  10.937  21.502  0.00  0.00    +0.000 A 
ATOM     26  N   UNL     1       1.072  10.107  22.425  0.00  0.00    +0.000 NA
ATOM     27  C   UNL     1       0.072   9.732  23.223  0.00  0.00    +0.000 A 
ATOM     28  N   UNL     1      -1.226  10.179  23.267  0.00  0.00    +0.000 NA
ATOM     29  C   UNL     1      -1.419  11.390  22.703  0.00  0.00    +0.000 A 
ATOM     30  C   UNL     1      -2.574  12.019  23.237  0.00  0.00    +0.000 A 
ATOM     31  C   UNL     1      -2.780  13.402  23.440  0.00  0.00    +0.000 A 
ATOM     32  C   UNL     1      -1.716  14.232  23.192  0.00  0.00    +0.000 A 
ATOM     33  C   UNL     1      -0.593  13.592  22.432  0.00  0.00    +0.000 A 
ATOM     34  C   UNL     1      -0.451  12.039  21.969  0.00  0.00    +0.000 A 
BRANCH  31  35
ATOM     35  O   UNL     1      -3.905  13.816  24.101  0.00  0.00    +0.000 OA
ATOM     36  C   UNL     1      -5.136  13.685  23.390  0.00  0.00    +0.000 C 
ENDBRANCH  31  35
BRANCH  32  37
ATOM     37  O   UNL     1      -1.613  15.545  23.659  0.00  0.00    +0.000 OA
ATOM     38  C   UNL     1      -1.360  15.931  25.054  0.00  0.00    +0.000 C 
ENDBRANCH  32  37
ENDBRANCH  23  25
ENDBRANCH  10  23
TORSDOF 6
ENDMDL
MODEL 6
REMARK VINA RESULT:      -8.5      3.349      4.690
REMARK  Name = 
REMARK  9 active torsions:
REMARK  status: ('A' for Active; 'I' for Inactive)
REMARK    1  A    between atoms: C_1  and  O_2
REMARK    2  A    between atoms: O_2  and  C_3
REMARK    3  A    between atoms: C_7  and  N_8
REMARK    4  A    between atoms: C_17  and  N_18
REMARK    5  A    between atoms: N_18  and  C_19
REMARK    6  A    between atoms: C_25  and  O_26
REMARK    7  A    between atoms: O_26  and  C_27
REMARK    8  A    between atoms: C_28  and  O_29
REMARK    9  A    between atoms: O_29  and  C_30
REMARK                            x       y       z     vdW  Elec       q    Type
REMARK                         _______ _______ _______ _____ _____    ______ ____
ROOT
ATOM      1  N   UNL     1       4.748   3.298  17.047  0.00  0.00    +0.000 N 
ATOM      2  C   UNL     1       4.509   4.146  18.234  0.00  0.00    +0.000 C 
ATOM      3  O   UNL     1       5.206   3.883  19.226  0.00  0.00    +0.000 OA
ATOM      4  N   UNL     1       3.055   4.672  18.369  0.00  0.00    +0.000 N 
ATOM      5  C   UNL     1       2.430   3.617  19.183  0.00  0.00    +0.000 C 
ATOM      6  C   UNL     1       1.325   3.965  20.155  0.00  0.00    +0.000 C 
ATOM      7  C   UNL     1       1.406   5.308  20.868  0.00  0.00    +0.000 C 
ATOM      8  C   UNL     1       2.125   6.444  20.164  0.00  0.00    +0.000 A 
ATOM      9  C   UNL     1       1.676   7.852  20.697  0.00  0.00    +0.000 A 
ATOM     10  C   UNL     1       1.446   8.998  19.889  0.00  0.00    +0.000 A 
ATOM     11  C   UNL     1       1.667   8.615  18.535  0.00  0.00    +0.000 A 
ATOM     12  C   UNL     1       2.293   7.241  18.072  0.00  0.00    +0.000 A 
ATOM     13  C   UNL     1       2.685   6.148  18.901  0.00  0.00    +0.000 A 
ATOM     14  H   UNL     1       5.065   2.364  17.313  0.00  0.00    +0.000 HD
ENDROOT
BRANCH   1  19
ATOM     15  C   UNL     1       6.556   4.034  13.680  0.00  0.00    +0.000 A 
ATOM     16  C   UNL     1       7.421   5.007  14.191  0.00  0.00    +0.000 A 
ATOM     17  C   UNL     1       7.411   5.364  15.528  0.00  0.00    +0.000 A 
ATOM     18  C   UNL     1       6.522   4.765  16.405  0.00  0.00    +0.000 A 
ATOM     19  C   UNL     1       5.629   3.792  15.981  0.00  0.00    +0.000 A 
ATOM     20  C   UNL     1       5.639   3.411  14.578  0.00  0.00    +0.000 A 
BRANCH  15  22
ATOM     21  C   UNL     1       6.677   2.751  11.569  0.00  0.00    +0.000 C 
ATOM     22  O   UNL     1       6.782   3.926  12.341  0.00  0.00    +0.000 OA
ENDBRANCH  15  22
ENDBRANCH   1  19
BRANCH  10  23
ATOM     23  N   UNL     1       0.639  10.313  20.478  0.00  0.00    +0.000 N 
ATOM     24  H   UNL     1       0.816  10.734  19.537  0.00  0.00    +0.000 HD
BRANCH  23  25
ATOM     25  C   UNL     1       1.000  11.782  21.004  0.00  0.00    +0.000 A 
ATOM     26  N   UNL     1       0.050  12.091  21.870  0.00  0.00    +0.000 NA
ATOM     27  C   UNL     1      -0.721  13.052  21.362  0.00  0.00    +0.000 A 
ATOM     28  N   UNL     1      -0.566  13.779  20.206  0.00  0.00    +0.000 NA
ATOM     29  C   UNL     1       0.694  13.792  19.721  0.00  0.00    +0.000 A 
ATOM     30  C   UNL     1       0.910  14.934  18.907  0.00  0.00    +0.000 A 
ATOM     31  C   UNL     1       2.113  15.659  18.750  0.00  0.00    +0.000 A 
ATOM     32  C   UNL     1       3.170  15.290  19.544  0.00  0.00    +0.000 A 
ATOM     33  C   UNL     1       3.000  13.966  20.227  0.00  0.00    +0.000 A 
ATOM     34  C   UNL     1       1.698  12.990  20.217  0.00  0.00    +0.000 A 
BRANCH  31  35
ATOM     35  O   UNL     1       2.098  16.824  18.031  0.00  0.00    +0.000 OA
ATOM     36  C   UNL     1       1.067  17.755  18.363  0.00  0.00    +0.000 C 
ENDBRANCH  31  35
BRANCH  32  37
ATOM     37  O   UNL     1       4.293  16.087  19.785  0.00  0.00    +0.000 OA
ATOM     38  C   UNL     1       5.158  16.666  18.750  0.00  0.00    +0.000 C 
ENDBRANCH  32  37
ENDBRANCH  23  25
ENDBRANCH  10  23
TORSDOF 6
ENDMDL
MODEL 7
REMARK VINA RESULT:      -8.4      1.048      1.110
REMARK  Name = 
REMARK  9 active torsions:
REMARK  status: ('A' for Active; 'I' for Inactive)
REMARK    1  A    between atoms: C_1  and  O_2
REMARK    2  A    between atoms: O_2  and  C_3
REMARK    3  A    between atoms: C_7  and  N_8
REMARK    4  A    between atoms: C_17  and  N_18
REMARK    5  A    between atoms: N_18  and  C_19
REMARK    6  A    between atoms: C_25  and  O_26
REMARK    7  A    between atoms: O_26  and  C_27
REMARK    8  A    between atoms: C_28  and  O_29
REMARK    9  A    between atoms: O_29  and  C_30
REMARK                            x       y       z     vdW  Elec       q    Type
REMARK                         _______ _______ _______ _____ _____    ______ ____
ROOT
ATOM      1  N   UNL     1       4.711   3.289  17.138  0.00  0.00    +0.000 N 
ATOM      2  C   UNL     1       4.469   4.135  18.326  0.00  0.00    +0.000 C 
ATOM      3  O   UNL     1       5.153   3.860  19.324  0.00  0.00    +0.000 OA
ATOM      4  N   UNL     1       3.020   4.676  18.449  0.00  0.00    +0.000 N 
ATOM      5  C   UNL     1       2.376   3.624  19.252  0.00  0.00    +0.000 C 
ATOM      6  C   UNL     1       1.264   3.980  20.215  0.00  0.00    +0.000 C 
ATOM      7  C   UNL     1       1.353   5.318  20.935  0.00  0.00    +0.000 C 
ATOM      8  C   UNL     1       2.091   6.449  20.244  0.00  0.00    +0.000 A 
ATOM      9  C   UNL     1       1.651   7.860  20.779  0.00  0.00    +0.000 A 
ATOM     10  C   UNL     1       1.442   9.012  19.974  0.00  0.00    +0.000 A 
ATOM     11  C   UNL     1       1.673   8.633  18.621  0.00  0.00    +0.000 A 
ATOM     12  C   UNL     1       2.289   7.255  18.157  0.00  0.00    +0.000 A 
ATOM     13  C   UNL     1       2.661   6.153  18.985  0.00  0.00    +0.000 A 
ATOM     14  H   UNL     1       5.015   2.351  17.403  0.00  0.00    +0.000 HD
ENDROOT
BRANCH   1  19
ATOM     15  C   UNL     1       6.534   4.055  13.786  0.00  0.00    +0.000 A 
ATOM     16  C   UNL     1       7.444   4.972  14.323  0.00  0.00    +0.000 A 
ATOM     17  C   UNL     1       7.456   5.284  15.671  0.00  0.00    +0.000 A 
ATOM     18  C   UNL     1       6.545   4.697  16.534  0.00  0.00    +0.000 A 
ATOM     19  C   UNL     1       5.609   3.780  16.084  0.00  0.00    +0.000 A 
ATOM     20  C   UNL     1       5.595   3.445  14.669  0.00  0.00    +0.000 A 
BRANCH  15  22
ATOM     21  C   UNL     1       7.463   4.910  11.659  0.00  0.00    +0.000 C 
ATOM     22  O   UNL     1       6.749   3.981  12.443  0.00  0.00    +0.000 OA
ENDBRANCH  15  22
ENDBRANCH   1  19
BRANCH  10  23
ATOM     23  N   UNL     1       0.644  10.333  20.561  0.00  0.00    +0.000 N 
ATOM     24  H   UNL     1      -0.224   9.775  20.392  0.00  0.00    +0.000 HD
BRANCH  23  25
ATOM     25  C   UNL     1      -0.233  11.539  19.977  0.00  0.00    +0.000 A 
ATOM     26  N   UNL     1       0.512  12.622  20.125  0.00  0.00    +0.000 NA
ATOM     27  C   UNL     1      -0.023  13.406  21.062  0.00  0.00    +0.000 A 
ATOM     28  N   UNL     1      -1.221  13.283  21.724  0.00  0.00    +0.000 NA
ATOM     29  C   UNL     1      -2.127  12.502  21.099  0.00  0.00    +0.000 A 
ATOM     30  C   UNL     1      -3.446  12.839  21.500  0.00  0.00    +0.000 A 
ATOM     31  C   UNL     1      -4.621  12.780  20.717  0.00  0.00    +0.000 A 
ATOM     32  C   UNL     1      -4.470  12.461  19.391  0.00  0.00    +0.000 A 
ATOM     33  C   UNL     1      -3.123  11.902  19.037  0.00  0.00    +0.000 A 
ATOM     34  C   UNL     1      -1.823  11.731  19.999  0.00  0.00    +0.000 A 
BRANCH  31  35
ATOM     35  O   UNL     1      -5.787  13.281  21.229  0.00  0.00    +0.000 OA
ATOM     36  C   UNL     1      -6.758  12.318  21.642  0.00  0.00    +0.000 C 
ENDBRANCH  31  35
BRANCH  32  37
ATOM     37  O   UNL     1      -5.434  12.694  18.406  0.00  0.00    +0.000 OA
ATOM     38  C   UNL     1      -5.541  11.965  17.136  0.00  0.00    +0.000 C 
ENDBRANCH  32  37
ENDBRANCH  23  25
ENDBRANCH  10  23
TORSDOF 6
ENDMDL
MODEL 8
REMARK VINA RESULT:      -8.4      1.802      2.303
REMARK  Name = 
REMARK  9 active torsions:
REMARK  status: ('A' for Active; 'I' for Inactive)
REMARK    1  A    between atoms: C_1  and  O_2
REMARK    2  A    between atoms: O_2  and  C_3
REMARK    3  A    between atoms: C_7  and  N_8
REMARK    4  A    between atoms: C_17  and  N_18
REMARK    5  A    between atoms: N_18  and  C_19
REMARK    6  A    between atoms: C_25  and  O_26
REMARK    7  A    between atoms: O_26  and  C_27
REMARK    8  A    between atoms: C_28  and  O_29
REMARK    9  A    between atoms: O_29  and  C_30
REMARK                            x       y       z     vdW  Elec       q    Type
REMARK                         _______ _______ _______ _____ _____    ______ ____
ROOT
ATOM      1  N   UNL     1       4.721   3.371  17.195  0.00  0.00    +0.000 N 
ATOM      2  C   UNL     1       4.493   4.290  18.331  0.00  0.00    +0.000 C 
ATOM      3  O   UNL     1       5.210   4.097  19.325  0.00  0.00    +0.000 OA
ATOM      4  N   UNL     1       3.036   4.808  18.460  0.00  0.00    +0.000 N 
ATOM      5  C   UNL     1       2.437   3.800  19.350  0.00  0.00    +0.000 C 
ATOM      6  C   UNL     1       1.345   4.197  20.318  0.00  0.00    +0.000 C 
ATOM      7  C   UNL     1       1.424   5.583  20.944  0.00  0.00    +0.000 C 
ATOM      8  C   UNL     1       2.117   6.679  20.158  0.00  0.00    +0.000 A 
ATOM      9  C   UNL     1       1.661   8.114  20.610  0.00  0.00    +0.000 A 
ATOM     10  C   UNL     1       1.405   9.204  19.736  0.00  0.00    +0.000 A 
ATOM     11  C   UNL     1       1.606   8.739  18.405  0.00  0.00    +0.000 A 
ATOM     12  C   UNL     1       2.239   7.346  18.017  0.00  0.00    +0.000 A 
ATOM     13  C   UNL     1       2.659   6.311  18.905  0.00  0.00    +0.000 A 
ATOM     14  H   UNL     1       5.052   2.459  17.514  0.00  0.00    +0.000 HD
ENDROOT
BRANCH   1  19
ATOM     15  C   UNL     1       6.427   3.953  13.747  0.00  0.00    +0.000 A 
ATOM     16  C   UNL     1       7.339   4.913  14.198  0.00  0.00    +0.000 A 
ATOM     17  C   UNL     1       7.389   5.307  15.523  0.00  0.00    +0.000 A 
ATOM     18  C   UNL     1       6.515   4.762  16.449  0.00  0.00    +0.000 A 
ATOM     19  C   UNL     1       5.578   3.807  16.085  0.00  0.00    +0.000 A 
ATOM     20  C   UNL     1       5.525   3.386  14.695  0.00  0.00    +0.000 A 
BRANCH  15  22
ATOM     21  C   UNL     1       6.096   2.749  11.612  0.00  0.00    +0.000 C 
ATOM     22  O   UNL     1       6.601   3.800  12.404  0.00  0.00    +0.000 OA
ENDBRANCH  15  22
ENDBRANCH   1  19
BRANCH  10  23
ATOM     23  N   UNL     1       0.594  10.545  20.256  0.00  0.00    +0.000 N 
ATOM     24  H   UNL     1       0.023   9.875  20.821  0.00  0.00    +0.000 HD
BRANCH  23  25
ATOM     25  C   UNL     1      -0.821  11.247  19.991  0.00  0.00    +0.000 A 
ATOM     26  N   UNL     1      -0.920  11.358  18.677  0.00  0.00    +0.000 NA
ATOM     27  C   UNL     1      -0.832  12.642  18.330  0.00  0.00    +0.000 A 
ATOM     28  N   UNL     1      -0.790  13.762  19.126  0.00  0.00    +0.000 NA
ATOM     29  C   UNL     1      -1.270  13.577  20.374  0.00  0.00    +0.000 A 
ATOM     30  C   UNL     1      -1.705  14.806  20.936  0.00  0.00    +0.000 A 
ATOM     31  C   UNL     1      -2.776  15.005  21.836  0.00  0.00    +0.000 A 
ATOM     32  C   UNL     1      -3.554  13.913  22.129  0.00  0.00    +0.000 A 
ATOM     33  C   UNL     1      -2.962  12.600  21.711  0.00  0.00    +0.000 A 
ATOM     34  C   UNL     1      -1.588  12.336  20.881  0.00  0.00    +0.000 A 
BRANCH  31  35
ATOM     35  O   UNL     1      -3.141  16.283  22.161  0.00  0.00    +0.000 OA
ATOM     36  C   UNL     1      -3.822  17.021  21.145  0.00  0.00    +0.000 C 
ENDBRANCH  31  35
BRANCH  32  37
ATOM     37  O   UNL     1      -4.829  13.981  22.696  0.00  0.00    +0.000 OA
ATOM     38  C   UNL     1      -6.091  13.983  21.945  0.00  0.00    +0.000 C 
ENDBRANCH  32  37
ENDBRANCH  23  25
ENDBRANCH  10  23
TORSDOF 6
ENDMDL
MODEL 9
REMARK VINA RESULT:      -8.3      3.851      5.408
REMARK  Name = 
REMARK  9 active torsions:
REMARK  status: ('A' for Active; 'I' for Inactive)
REMARK    1  A    between atoms: C_1  and  O_2
REMARK    2  A    between atoms: O_2  and  C_3
REMARK    3  A    between atoms: C_7  and  N_8
REMARK    4  A    between atoms: C_17  and  N_18
REMARK    5  A    between atoms: N_18  and  C_19
REMARK    6  A    between atoms: C_25  and  O_26
REMARK    7  A    between atoms: O_26  and  C_27
REMARK    8  A    between atoms: C_28  and  O_29
REMARK    9  A    between atoms: O_29  and  C_30
REMARK                            x       y       z     vdW  Elec       q    Type
REMARK                         _______ _______ _______ _____ _____    ______ ____
ROOT
ATOM      1  N   UNL     1       4.808   3.485  17.265  0.00  0.00    +0.000 N 
ATOM      2  C   UNL     1       4.562   4.455  18.353  0.00  0.00    +0.000 C 
ATOM      3  O   UNL     1       5.306   4.347  19.341  0.00  0.00    +0.000 OA
ATOM      4  N   UNL     1       3.087   4.918  18.484  0.00  0.00    +0.000 N 
ATOM      5  C   UNL     1       2.550   3.936  19.440  0.00  0.00    +0.000 C 
ATOM      6  C   UNL     1       1.460   4.340  20.409  0.00  0.00    +0.000 C 
ATOM      7  C   UNL     1       1.491   5.760  20.957  0.00  0.00    +0.000 C 
ATOM      8  C   UNL     1       2.121   6.840  20.097  0.00  0.00    +0.000 A 
ATOM      9  C   UNL     1       1.612   8.276  20.480  0.00  0.00    +0.000 A 
ATOM     10  C   UNL     1       1.292   9.305  19.554  0.00  0.00    +0.000 A 
ATOM     11  C   UNL     1       1.488   8.776  18.247  0.00  0.00    +0.000 A 
ATOM     12  C   UNL     1       2.173   7.392  17.921  0.00  0.00    +0.000 A 
ATOM     13  C   UNL     1       2.654   6.426  18.856  0.00  0.00    +0.000 A 
ATOM     14  H   UNL     1       5.185   2.607  17.625  0.00  0.00    +0.000 HD
ENDROOT
BRANCH   1  19
ATOM     15  C   UNL     1       6.413   3.957  13.751  0.00  0.00    +0.000 A 
ATOM     16  C   UNL     1       7.305   4.965  14.134  0.00  0.00    +0.000 A 
ATOM     17  C   UNL     1       7.373   5.422  15.438  0.00  0.00    +0.000 A 
ATOM     18  C   UNL     1       6.538   4.894  16.410  0.00  0.00    +0.000 A 
ATOM     19  C   UNL     1       5.624   3.895  16.115  0.00  0.00    +0.000 A 
ATOM     20  C   UNL     1       5.552   3.407  14.746  0.00  0.00    +0.000 A 
BRANCH  15  22
ATOM     21  C   UNL     1       6.001   2.688  11.669  0.00  0.00    +0.000 C 
ATOM     22  O   UNL     1       6.560   3.747  12.413  0.00  0.00    +0.000 OA
ENDBRANCH  15  22
ENDBRANCH   1  19
BRANCH  10  23
ATOM     23  N   UNL     1       0.434  10.637  20.018  0.00  0.00    +0.000 N 
ATOM     24  H   UNL     1       0.472  10.906  19.008  0.00  0.00    +0.000 HD
BRANCH  23  25
ATOM     25  C   UNL     1       0.712  12.197  20.257  0.00  0.00    +0.000 A 
ATOM     26  N   UNL     1      -0.291  12.828  19.670  0.00  0.00    +0.000 NA
ATOM     27  C   UNL     1       0.157  13.471  18.591  0.00  0.00    +0.000 A 
ATOM     28  N   UNL     1       1.446  13.640  18.147  0.00  0.00    +0.000 NA
ATOM     29  C   UNL     1       2.391  13.466  19.096  0.00  0.00    +0.000 A 
ATOM     30  C   UNL     1       3.582  14.158  18.757  0.00  0.00    +0.000 A 
ATOM     31  C   UNL     1       4.500  14.769  19.641  0.00  0.00    +0.000 A 
ATOM     32  C   UNL     1       4.164  14.789  20.971  0.00  0.00    +0.000 A 
ATOM     33  C   UNL     1       3.030  13.877  21.339  0.00  0.00    +0.000 A 
ATOM     34  C   UNL     1       2.113  12.968  20.350  0.00  0.00    +0.000 A 
BRANCH  31  35
ATOM     35  O   UNL     1       5.523  15.517  19.125  0.00  0.00    +0.000 OA
ATOM     36  C   UNL     1       5.176  16.823  18.662  0.00  0.00    +0.000 C 
ENDBRANCH  31  35
BRANCH  32  37
ATOM     37  O   UNL     1       4.748  15.631  21.921  0.00  0.00    +0.000 OA
ATOM     38  C   UNL     1       4.879  15.330  23.353  0.00  0.00    +0.000 C 
ENDBRANCH  32  37
ENDBRANCH  23  25
ENDBRANCH  10  23
TORSDOF 6
ENDMDL
