MODEL 1
REMARK VINA RESULT:      -7.5      0.000      0.000
REMARK  Name = 
REMARK  8 active torsions:
REMARK  status: ('A' for Active; 'I' for Inactive)
REMARK    1  A    between atoms: C_1  and  C_2
REMARK    2  A    between atoms: C_2  and  O_3
REMARK    3  A    between atoms: O_3  and  C_4
REMARK    4  A    between atoms: C_12  and  C_13
REMARK    5  A    between atoms: C_18  and  C_19
REMARK    6  A    between atoms: C_23  and  O_24
REMARK    7  A    between atoms: O_24  and  C_25
REMARK    8  A    between atoms: C_27  and  C_28
REMARK                            x       y       z     vdW  Elec       q    Type
REMARK                         _______ _______ _______ _____ _____    ______ ____
ROOT
ATOM      1  C   UNL     1       0.882   8.986  19.353  0.00  0.00    +0.000 A 
ATOM      2  C   UNL     1       1.290  10.012  18.549  0.00  0.00    +0.000 A 
ATOM      3  C   UNL     1       2.339   9.790  17.555  0.00  0.00    +0.000 A 
ATOM      4  N   UNL     1       2.950   8.673  17.398  0.00  0.00    +0.000 NA
ATOM      5  C   UNL     1       2.622   7.679  18.278  0.00  0.00    +0.000 A 
ATOM      6  C   UNL     1       3.198   6.447  18.440  0.00  0.00    +0.000 A 
ATOM      7  C   UNL     1       2.479   5.841  19.511  0.00  0.00    +0.000 A 
ATOM      8  N   UNL     1       1.467   6.620  19.933  0.00  0.00    +0.000 NA
ATOM      9  N   UNL     1       1.598   7.780  19.233  0.00  0.00    +0.000 N 
ENDROOT
BRANCH   1  18
ATOM     10  C   UNL     1      -1.233  12.308  22.674  0.00  0.00    +0.000 C 
ATOM     11  O   UNL     1      -1.169  13.076  23.625  0.00  0.00    +0.000 OA
ATOM     12  N   UNL     1      -0.480  11.141  22.572  0.00  0.00    +0.000 N 
ATOM     13  C   UNL     1       0.442  11.151  21.502  0.00  0.00    +0.000 C 
ATOM     14  C   UNL     1       1.578  10.362  22.242  0.00  0.00    +0.000 C 
ATOM     15  C   UNL     1       0.894   9.354  23.186  0.00  0.00    +0.000 C 
ATOM     16  C   UNL     1      -0.575   9.662  22.909  0.00  0.00    +0.000 C 
ATOM     17  C   UNL     1      -0.844   8.648  21.660  0.00  0.00    +0.000 C 
ATOM     18  C   UNL     1      -0.386   9.140  20.217  0.00  0.00    +0.000 C 
ATOM     19  C   UNL     1      -0.529  10.618  20.399  0.00  0.00    +0.000 C 
BRANCH  10  20
ATOM     20  O   UNL     1      -1.759  12.674  21.457  0.00  0.00    +0.000 OA
BRANCH  20  22
ATOM     21  C   UNL     1      -3.908  12.555  20.266  0.00  0.00    +0.000 C 
ATOM     22  C   UNL     1      -3.052  13.284  21.301  0.00  0.00    +0.000 C 
ENDBRANCH  20  22
ENDBRANCH  10  20
ENDBRANCH   1  18
BRANCH   6  23
ATOM     23  C   UNL     1       4.305   6.013  17.605  0.00  0.00    +0.000 A 
ATOM     24  C   UNL     1       4.152   4.945  16.709  0.00  0.00    +0.000 A 
ATOM     25  C   UNL     1       5.227   4.518  15.932  0.00  0.00    +0.000 A 
ATOM     26  C   UNL     1       6.444   5.188  16.002  0.00  0.00    +0.000 A 
ATOM     27  C   UNL     1       6.605   6.268  16.868  0.00  0.00    +0.000 A 
ATOM     28  C   UNL     1       5.551   6.641  17.704  0.00  0.00    +0.000 A 
BRANCH  27  29
ATOM     29  O   UNL     1       7.831   6.876  16.833  0.00  0.00    +0.000 OA
ATOM     30  C   UNL     1       7.974   8.085  17.576  0.00  0.00    +0.000 C 
ENDBRANCH  27  29
ENDBRANCH   6  23
BRANCH   7  31
ATOM     31  C   UNL     1       2.740   4.529  20.103  0.00  0.00    +0.000 A 
ATOM     32  C   UNL     1       1.905   4.033  21.110  0.00  0.00    +0.000 A 
ATOM     33  C   UNL     1       2.269   2.872  21.764  0.00  0.00    +0.000 A 
ATOM     34  N   UNL     1       3.367   2.156  21.449  0.00  0.00    +0.000 NA
ATOM     35  C   UNL     1       4.125   2.619  20.431  0.00  0.00    +0.000 A 
ATOM     36  C   UNL     1       3.861   3.789  19.738  0.00  0.00    +0.000 A 
ENDBRANCH   7  31
TORSDOF 6
ENDMDL
MODEL 2
REMARK VINA RESULT:      -7.3      0.877      1.654
REMARK  Name = 
REMARK  8 active torsions:
REMARK  status: ('A' for Active; 'I' for Inactive)
REMARK    1  A    between atoms: C_1  and  C_2
REMARK    2  A    between atoms: C_2  and  O_3
REMARK    3  A    between atoms: O_3  and  C_4
REMARK    4  A    between atoms: C_12  and  C_13
REMARK    5  A    between atoms: C_18  and  C_19
REMARK    6  A    between atoms: C_23  and  O_24
REMARK    7  A    between atoms: O_24  and  C_25
REMARK    8  A    between atoms: C_27  and  C_28
REMARK                            x       y       z     vdW  Elec       q    Type
REMARK                         _______ _______ _______ _____ _____    ______ ____
ROOT
ATOM      1  C   UNL     1       1.009   8.888  19.316  0.00  0.00    +0.000 A 
ATOM      2  C   UNL     1       1.374   9.912  18.489  0.00  0.00    +0.000 A 
ATOM      3  C   UNL     1       2.444   9.719  17.512  0.00  0.00    +0.000 A 
ATOM      4  N   UNL     1       3.113   8.632  17.392  0.00  0.00    +0.000 NA
ATOM      5  C   UNL     1       2.826   7.645  18.294  0.00  0.00    +0.000 A 
ATOM      6  C   UNL     1       3.462   6.449  18.495  0.00  0.00    +0.000 A 
ATOM      7  C   UNL     1       2.763   5.835  19.573  0.00  0.00    +0.000 A 
ATOM      8  N   UNL     1       1.707   6.571  19.964  0.00  0.00    +0.000 NA
ATOM      9  N   UNL     1       1.787   7.718  19.235  0.00  0.00    +0.000 N 
ENDROOT
BRANCH   1  18
ATOM     10  C   UNL     1      -1.256  12.129  22.618  0.00  0.00    +0.000 C 
ATOM     11  O   UNL     1      -1.229  12.894  23.573  0.00  0.00    +0.000 OA
ATOM     12  N   UNL     1      -0.465  10.986  22.523  0.00  0.00    +0.000 N 
ATOM     13  C   UNL     1       0.471  11.029  21.467  0.00  0.00    +0.000 C 
ATOM     14  C   UNL     1       1.621  10.273  22.219  0.00  0.00    +0.000 C 
ATOM     15  C   UNL     1       0.955   9.240  23.150  0.00  0.00    +0.000 C 
ATOM     16  C   UNL     1      -0.519   9.504  22.853  0.00  0.00    +0.000 C 
ATOM     17  C   UNL     1      -0.738   8.487  21.596  0.00  0.00    +0.000 C 
ATOM     18  C   UNL     1      -0.275   8.999  20.162  0.00  0.00    +0.000 C 
ATOM     19  C   UNL     1      -0.467  10.471  20.348  0.00  0.00    +0.000 C 
BRANCH  10  20
ATOM     20  O   UNL     1      -1.775  12.483  21.396  0.00  0.00    +0.000 OA
BRANCH  20  22
ATOM     21  C   UNL     1      -3.742  12.570  19.921  0.00  0.00    +0.000 C 
ATOM     22  C   UNL     1      -3.091  13.038  21.222  0.00  0.00    +0.000 C 
ENDBRANCH  20  22
ENDBRANCH  10  20
ENDBRANCH   1  18
BRANCH   6  23
ATOM     23  C   UNL     1       4.600   6.051  17.683  0.00  0.00    +0.000 A 
ATOM     24  C   UNL     1       5.900   6.456  18.022  0.00  0.00    +0.000 A 
ATOM     25  C   UNL     1       6.982   6.093  17.223  0.00  0.00    +0.000 A 
ATOM     26  C   UNL     1       6.783   5.278  16.113  0.00  0.00    +0.000 A 
ATOM     27  C   UNL     1       5.501   4.846  15.777  0.00  0.00    +0.000 A 
ATOM     28  C   UNL     1       4.410   5.279  16.533  0.00  0.00    +0.000 A 
BRANCH  27  29
ATOM     29  O   UNL     1       5.422   4.022  14.686  0.00  0.00    +0.000 OA
ATOM     30  C   UNL     1       6.486   4.099  13.740  0.00  0.00    +0.000 C 
ENDBRANCH  27  29
ENDBRANCH   6  23
BRANCH   7  31
ATOM     31  C   UNL     1       3.084   4.553  20.203  0.00  0.00    +0.000 A 
ATOM     32  C   UNL     1       4.147   3.780  19.724  0.00  0.00    +0.000 A 
ATOM     33  C   UNL     1       4.321   2.505  20.227  0.00  0.00    +0.000 A 
ATOM     34  N   UNL     1       3.549   1.978  21.198  0.00  0.00    +0.000 NA
ATOM     35  C   UNL     1       2.567   2.765  21.690  0.00  0.00    +0.000 A 
ATOM     36  C   UNL     1       2.293   4.043  21.229  0.00  0.00    +0.000 A 
ENDBRANCH   7  31
TORSDOF 6
ENDMDL
MODEL 3
REMARK VINA RESULT:      -7.3      1.021      1.599
REMARK  Name = 
REMARK  8 active torsions:
REMARK  status: ('A' for Active; 'I' for Inactive)
REMARK    1  A    between atoms: C_1  and  C_2
REMARK    2  A    between atoms: C_2  and  O_3
REMARK    3  A    between atoms: O_3  and  C_4
REMARK    4  A    between atoms: C_12  and  C_13
REMARK    5  A    between atoms: C_18  and  C_19
REMARK    6  A    between atoms: C_23  and  O_24
REMARK    7  A    between atoms: O_24  and  C_25
REMARK    8  A    between atoms: C_27  and  C_28
REMARK                            x       y       z     vdW  Elec       q    Type
REMARK                         _______ _______ _______ _____ _____    ______ ____
ROOT
ATOM      1  C   UNL     1       1.038   8.886  19.326  0.00  0.00    +0.000 A 
ATOM      2  C   UNL     1       1.444   9.938  18.555  0.00  0.00    +0.000 A 
ATOM      3  C   UNL     1       2.522   9.761  17.583  0.00  0.00    +0.000 A 
ATOM      4  N   UNL     1       3.159   8.660  17.417  0.00  0.00    +0.000 NA
ATOM      5  C   UNL     1       2.830   7.640  18.265  0.00  0.00    +0.000 A 
ATOM      6  C   UNL     1       3.427   6.416  18.414  0.00  0.00    +0.000 A 
ATOM      7  C   UNL     1       2.695   5.771  19.452  0.00  0.00    +0.000 A 
ATOM      8  N   UNL     1       1.656   6.520  19.866  0.00  0.00    +0.000 NA
ATOM      9  N   UNL     1       1.781   7.698  19.196  0.00  0.00    +0.000 N 
ENDROOT
BRANCH   1  18
ATOM     10  C   UNL     1      -1.275  12.136  22.585  0.00  0.00    +0.000 C 
ATOM     11  O   UNL     1      -1.261  12.908  23.535  0.00  0.00    +0.000 OA
ATOM     12  N   UNL     1      -0.477  10.997  22.505  0.00  0.00    +0.000 N 
ATOM     13  C   UNL     1       0.468  11.039  21.456  0.00  0.00    +0.000 C 
ATOM     14  C   UNL     1       1.616  10.296  22.224  0.00  0.00    +0.000 C 
ATOM     15  C   UNL     1       0.949   9.265  23.156  0.00  0.00    +0.000 C 
ATOM     16  C   UNL     1      -0.523   9.517  22.845  0.00  0.00    +0.000 C 
ATOM     17  C   UNL     1      -0.726   8.490  21.594  0.00  0.00    +0.000 C 
ATOM     18  C   UNL     1      -0.255   8.995  20.160  0.00  0.00    +0.000 C 
ATOM     19  C   UNL     1      -0.458  10.467  20.334  0.00  0.00    +0.000 C 
BRANCH  10  20
ATOM     20  O   UNL     1      -1.787  12.478  21.357  0.00  0.00    +0.000 OA
BRANCH  20  22
ATOM     21  C   UNL     1      -0.740  14.390  20.217  0.00  0.00    +0.000 C 
ATOM     22  C   UNL     1      -1.977  13.836  20.924  0.00  0.00    +0.000 C 
ENDBRANCH  20  22
ENDBRANCH  10  20
ENDBRANCH   1  18
BRANCH   6  23
ATOM     23  C   UNL     1       4.563   6.024  17.597  0.00  0.00    +0.000 A 
ATOM     24  C   UNL     1       5.868   6.394  17.958  0.00  0.00    +0.000 A 
ATOM     25  C   UNL     1       6.948   6.037  17.155  0.00  0.00    +0.000 A 
ATOM     26  C   UNL     1       6.743   5.262  16.018  0.00  0.00    +0.000 A 
ATOM     27  C   UNL     1       5.456   4.864  15.660  0.00  0.00    +0.000 A 
ATOM     28  C   UNL     1       4.367   5.292  16.422  0.00  0.00    +0.000 A 
BRANCH  27  29
ATOM     29  O   UNL     1       5.370   4.076  14.543  0.00  0.00    +0.000 OA
ATOM     30  C   UNL     1       6.503   4.058  13.677  0.00  0.00    +0.000 C 
ENDBRANCH  27  29
ENDBRANCH   6  23
BRANCH   7  31
ATOM     31  C   UNL     1       2.967   4.451  20.021  0.00  0.00    +0.000 A 
ATOM     32  C   UNL     1       2.183   3.961  21.070  0.00  0.00    +0.000 A 
ATOM     33  C   UNL     1       2.564   2.790  21.695  0.00  0.00    +0.000 A 
ATOM     34  N   UNL     1       3.631   2.059  21.315  0.00  0.00    +0.000 NA
ATOM     35  C   UNL     1       4.339   2.518  20.259  0.00  0.00    +0.000 A 
ATOM     36  C   UNL     1       4.055   3.697  19.589  0.00  0.00    +0.000 A 
ENDBRANCH   7  31
TORSDOF 6
ENDMDL
MODEL 4
REMARK VINA RESULT:      -7.1      1.176      1.839
REMARK  Name = 
REMARK  8 active torsions:
REMARK  status: ('A' for Active; 'I' for Inactive)
REMARK    1  A    between atoms: C_1  and  C_2
REMARK    2  A    between atoms: C_2  and  O_3
REMARK    3  A    between atoms: O_3  and  C_4
REMARK    4  A    between atoms: C_12  and  C_13
REMARK    5  A    between atoms: C_18  and  C_19
REMARK    6  A    between atoms: C_23  and  O_24
REMARK    7  A    between atoms: O_24  and  C_25
REMARK    8  A    between atoms: C_27  and  C_28
REMARK                            x       y       z     vdW  Elec       q    Type
REMARK                         _______ _______ _______ _____ _____    ______ ____
ROOT
ATOM      1  C   UNL     1       0.981   9.295  19.524  0.00  0.00    +0.000 A 
ATOM      2  C   UNL     1       1.397  10.258  18.649  0.00  0.00    +0.000 A 
ATOM      3  C   UNL     1       2.366   9.930  17.605  0.00  0.00    +0.000 A 
ATOM      4  N   UNL     1       2.898   8.772  17.464  0.00  0.00    +0.000 NA
ATOM      5  C   UNL     1       2.568   7.838  18.406  0.00  0.00    +0.000 A 
ATOM      6  C   UNL     1       3.079   6.581  18.590  0.00  0.00    +0.000 A 
ATOM      7  C   UNL     1       2.395   6.066  19.729  0.00  0.00    +0.000 A 
ATOM      8  N   UNL     1       1.459   6.924  20.176  0.00  0.00    +0.000 NA
ATOM      9  N   UNL     1       1.615   8.043  19.416  0.00  0.00    +0.000 N 
ENDROOT
BRANCH   1  18
ATOM     10  C   UNL     1      -2.780  12.751  20.189  0.00  0.00    +0.000 C 
ATOM     11  O   UNL     1      -3.195  13.902  20.243  0.00  0.00    +0.000 OA
ATOM     12  N   UNL     1      -1.513  12.367  20.620  0.00  0.00    +0.000 N 
ATOM     13  C   UNL     1      -0.680  11.890  19.583  0.00  0.00    +0.000 C 
ATOM     14  C   UNL     1       0.656  12.494  20.139  0.00  0.00    +0.000 C 
ATOM     15  C   UNL     1       0.569  12.460  21.678  0.00  0.00    +0.000 C 
ATOM     16  C   UNL     1      -0.816  11.846  21.866  0.00  0.00    +0.000 C 
ATOM     17  C   UNL     1      -0.424  10.262  21.870  0.00  0.00    +0.000 C 
ATOM     18  C   UNL     1      -0.219   9.564  20.454  0.00  0.00    +0.000 C 
ATOM     19  C   UNL     1      -1.146  10.398  19.627  0.00  0.00    +0.000 C 
BRANCH  10  20
ATOM     20  O   UNL     1      -3.348  11.794  19.383  0.00  0.00    +0.000 OA
BRANCH  20  22
ATOM     21  C   UNL     1      -4.741  11.233  17.434  0.00  0.00    +0.000 C 
ATOM     22  C   UNL     1      -4.655  11.921  18.797  0.00  0.00    +0.000 C 
ENDBRANCH  20  22
ENDBRANCH  10  20
ENDBRANCH   1  18
BRANCH   6  23
ATOM     23  C   UNL     1       4.104   6.044  17.711  0.00  0.00    +0.000 A 
ATOM     24  C   UNL     1       3.853   4.910  16.924  0.00  0.00    +0.000 A 
ATOM     25  C   UNL     1       4.849   4.386  16.104  0.00  0.00    +0.000 A 
ATOM     26  C   UNL     1       6.084   5.021  16.020  0.00  0.00    +0.000 A 
ATOM     27  C   UNL     1       6.342   6.164  16.775  0.00  0.00    +0.000 A 
ATOM     28  C   UNL     1       5.368   6.638  17.657  0.00  0.00    +0.000 A 
BRANCH  27  29
ATOM     29  O   UNL     1       7.576   6.728  16.592  0.00  0.00    +0.000 OA
ATOM     30  C   UNL     1       7.908   7.840  17.421  0.00  0.00    +0.000 C 
ENDBRANCH  27  29
ENDBRANCH   6  23
BRANCH   7  31
ATOM     31  C   UNL     1       2.614   4.766  20.364  0.00  0.00    +0.000 A 
ATOM     32  C   UNL     1       3.808   4.070  20.148  0.00  0.00    +0.000 A 
ATOM     33  C   UNL     1       3.919   2.777  20.624  0.00  0.00    +0.000 A 
ATOM     34  N   UNL     1       2.953   2.162  21.334  0.00  0.00    +0.000 NA
ATOM     35  C   UNL     1       1.833   2.876  21.585  0.00  0.00    +0.000 A 
ATOM     36  C   UNL     1       1.615   4.164  21.124  0.00  0.00    +0.000 A 
ENDBRANCH   7  31
TORSDOF 6
ENDMDL
MODEL 5
REMARK VINA RESULT:      -6.8      3.726      7.258
REMARK  Name = 
REMARK  8 active torsions:
REMARK  status: ('A' for Active; 'I' for Inactive)
REMARK    1  A    between atoms: C_1  and  C_2
REMARK    2  A    between atoms: C_2  and  O_3
REMARK    3  A    between atoms: O_3  and  C_4
REMARK    4  A    between atoms: C_12  and  C_13
REMARK    5  A    between atoms: C_18  and  C_19
REMARK    6  A    between atoms: C_23  and  O_24
REMARK    7  A    between atoms: O_24  and  C_25
REMARK    8  A    between atoms: C_27  and  C_28
REMARK                            x       y       z     vdW  Elec       q    Type
REMARK                         _______ _______ _______ _____ _____    ______ ____
ROOT
ATOM      1  C   UNL     1      -4.082  12.017  18.417  0.00  0.00    +0.000 A 
ATOM      2  C   UNL     1      -4.468  10.960  17.641  0.00  0.00    +0.000 A 
ATOM      3  C   UNL     1      -3.629   9.765  17.562  0.00  0.00    +0.000 A 
ATOM      4  N   UNL     1      -2.502   9.643  18.163  0.00  0.00    +0.000 NA
ATOM      5  C   UNL     1      -2.063  10.741  18.847  0.00  0.00    +0.000 A 
ATOM      6  C   UNL     1      -0.854  10.950  19.458  0.00  0.00    +0.000 A 
ATOM      7  C   UNL     1      -0.930  12.270  19.987  0.00  0.00    +0.000 A 
ATOM      8  N   UNL     1      -2.142  12.817  19.786  0.00  0.00    +0.000 NA
ATOM      9  N   UNL     1      -2.814  11.914  19.020  0.00  0.00    +0.000 N 
ENDROOT
BRANCH   1  18
ATOM     10  C   UNL     1      -6.934  13.863  22.289  0.00  0.00    +0.000 C 
ATOM     11  O   UNL     1      -7.691  13.717  23.241  0.00  0.00    +0.000 OA
ATOM     12  N   UNL     1      -6.962  13.060  21.151  0.00  0.00    +0.000 N 
ATOM     13  C   UNL     1      -5.789  12.294  20.968  0.00  0.00    +0.000 C 
ATOM     14  C   UNL     1      -6.499  11.021  20.389  0.00  0.00    +0.000 C 
ATOM     15  C   UNL     1      -7.718  11.506  19.578  0.00  0.00    +0.000 C 
ATOM     16  C   UNL     1      -7.601  13.015  19.774  0.00  0.00    +0.000 C 
ATOM     17  C   UNL     1      -6.636  13.388  18.513  0.00  0.00    +0.000 C 
ATOM     18  C   UNL     1      -5.072  13.163  18.707  0.00  0.00    +0.000 C 
ATOM     19  C   UNL     1      -4.971  13.372  20.185  0.00  0.00    +0.000 C 
BRANCH  10  20
ATOM     20  O   UNL     1      -5.760  14.571  22.375  0.00  0.00    +0.000 OA
BRANCH  20  22
ATOM     21  C   UNL     1      -3.892  13.954  23.851  0.00  0.00    +0.000 C 
ATOM     22  C   UNL     1      -5.097  14.864  23.617  0.00  0.00    +0.000 C 
ENDBRANCH  20  22
ENDBRANCH  10  20
ENDBRANCH   1  18
BRANCH   6  23
ATOM     23  C   UNL     1       0.177   9.925  19.465  0.00  0.00    +0.000 A 
ATOM     24  C   UNL     1       0.416   9.156  20.614  0.00  0.00    +0.000 A 
ATOM     25  C   UNL     1       1.424   8.195  20.621  0.00  0.00    +0.000 A 
ATOM     26  C   UNL     1       2.163   7.955  19.467  0.00  0.00    +0.000 A 
ATOM     27  C   UNL     1       1.921   8.693  18.309  0.00  0.00    +0.000 A 
ATOM     28  C   UNL     1       0.965   9.711  18.331  0.00  0.00    +0.000 A 
BRANCH  27  29
ATOM     29  O   UNL     1       2.681   8.354  17.222  0.00  0.00    +0.000 OA
ATOM     30  C   UNL     1       3.660   7.334  17.412  0.00  0.00    +0.000 C 
ENDBRANCH  27  29
ENDBRANCH   6  23
BRANCH   7  31
ATOM     31  C   UNL     1       0.130  12.987  20.697  0.00  0.00    +0.000 A 
ATOM     32  C   UNL     1      -0.193  13.925  21.683  0.00  0.00    +0.000 A 
ATOM     33  C   UNL     1       0.816  14.704  22.217  0.00  0.00    +0.000 A 
ATOM     34  N   UNL     1       2.113  14.575  21.874  0.00  0.00    +0.000 NA
ATOM     35  C   UNL     1       2.411  13.620  20.965  0.00  0.00    +0.000 A 
ATOM     36  C   UNL     1       1.467  12.813  20.350  0.00  0.00    +0.000 A 
ENDBRANCH   7  31
TORSDOF 6
ENDMDL
MODEL 6
REMARK VINA RESULT:      -6.8      1.468      2.351
REMARK  Name = 
REMARK  8 active torsions:
REMARK  status: ('A' for Active; 'I' for Inactive)
REMARK    1  A    between atoms: C_1  and  C_2
REMARK    2  A    between atoms: C_2  and  O_3
REMARK    3  A    between atoms: O_3  and  C_4
REMARK    4  A    between atoms: C_12  and  C_13
REMARK    5  A    between atoms: C_18  and  C_19
REMARK    6  A    between atoms: C_23  and  O_24
REMARK    7  A    between atoms: O_24  and  C_25
REMARK    8  A    between atoms: C_27  and  C_28
REMARK                            x       y       z     vdW  Elec       q    Type
REMARK                         _______ _______ _______ _____ _____    ______ ____
ROOT
ATOM      1  C   UNL     1       1.120   9.168  19.337  0.00  0.00    +0.000 A 
ATOM      2  C   UNL     1       1.503  10.177  18.500  0.00  0.00    +0.000 A 
ATOM      3  C   UNL     1       2.545   9.944  17.501  0.00  0.00    +0.000 A 
ATOM      4  N   UNL     1       3.171   8.833  17.369  0.00  0.00    +0.000 NA
ATOM      5  C   UNL     1       2.868   7.859  18.278  0.00  0.00    +0.000 A 
ATOM      6  C   UNL     1       3.464   6.640  18.468  0.00  0.00    +0.000 A 
ATOM      7  C   UNL     1       2.767   6.053  19.563  0.00  0.00    +0.000 A 
ATOM      8  N   UNL     1       1.747   6.828  19.975  0.00  0.00    +0.000 NA
ATOM      9  N   UNL     1       1.853   7.970  19.242  0.00  0.00    +0.000 N 
ENDROOT
BRANCH   1  18
ATOM     10  C   UNL     1      -2.768  12.469  20.063  0.00  0.00    +0.000 C 
ATOM     11  O   UNL     1      -3.216  13.600  20.192  0.00  0.00    +0.000 OA
ATOM     12  N   UNL     1      -1.519  12.074  20.539  0.00  0.00    +0.000 N 
ATOM     13  C   UNL     1      -0.612  11.711  19.519  0.00  0.00    +0.000 C 
ATOM     14  C   UNL     1       0.671  12.292  20.209  0.00  0.00    +0.000 C 
ATOM     15  C   UNL     1       0.490  12.118  21.730  0.00  0.00    +0.000 C 
ATOM     16  C   UNL     1      -0.886  11.460  21.776  0.00  0.00    +0.000 C 
ATOM     17  C   UNL     1      -0.451   9.891  21.666  0.00  0.00    +0.000 C 
ATOM     18  C   UNL     1      -0.141   9.327  20.210  0.00  0.00    +0.000 C 
ATOM     19  C   UNL     1      -1.039  10.211  19.403  0.00  0.00    +0.000 C 
BRANCH  10  20
ATOM     20  O   UNL     1      -3.259  11.575  19.142  0.00  0.00    +0.000 OA
BRANCH  20  22
ATOM     21  C   UNL     1      -4.231  11.067  16.940  0.00  0.00    +0.000 C 
ATOM     22  C   UNL     1      -4.330  11.879  18.232  0.00  0.00    +0.000 C 
ENDBRANCH  20  22
ENDBRANCH  10  20
ENDBRANCH   1  18
BRANCH   6  23
ATOM     23  C   UNL     1       4.569   6.201  17.633  0.00  0.00    +0.000 A 
ATOM     24  C   UNL     1       5.879   6.636  17.887  0.00  0.00    +0.000 A 
ATOM     25  C   UNL     1       6.927   6.231  17.065  0.00  0.00    +0.000 A 
ATOM     26  C   UNL     1       6.688   5.345  16.019  0.00  0.00    +0.000 A 
ATOM     27  C   UNL     1       5.398   4.883  15.769  0.00  0.00    +0.000 A 
ATOM     28  C   UNL     1       4.336   5.355  16.544  0.00  0.00    +0.000 A 
BRANCH  27  29
ATOM     29  O   UNL     1       5.279   3.991  14.737  0.00  0.00    +0.000 OA
ATOM     30  C   UNL     1       6.318   3.992  13.760  0.00  0.00    +0.000 C 
ENDBRANCH  27  29
ENDBRANCH   6  23
BRANCH   7  31
ATOM     31  C   UNL     1       3.054   4.761  20.188  0.00  0.00    +0.000 A 
ATOM     32  C   UNL     1       4.088   3.957  19.698  0.00  0.00    +0.000 A 
ATOM     33  C   UNL     1       4.229   2.677  20.198  0.00  0.00    +0.000 A 
ATOM     34  N   UNL     1       3.449   2.172  21.175  0.00  0.00    +0.000 NA
ATOM     35  C   UNL     1       2.496   2.988  21.677  0.00  0.00    +0.000 A 
ATOM     36  C   UNL     1       2.257   4.274  21.220  0.00  0.00    +0.000 A 
ENDBRANCH   7  31
TORSDOF 6
ENDMDL
MODEL 7
REMARK VINA RESULT:      -6.8      5.038      8.492
REMARK  Name = 
REMARK  8 active torsions:
REMARK  status: ('A' for Active; 'I' for Inactive)
REMARK    1  A    between atoms: C_1  and  C_2
REMARK    2  A    between atoms: C_2  and  O_3
REMARK    3  A    between atoms: O_3  and  C_4
REMARK    4  A    between atoms: C_12  and  C_13
REMARK    5  A    between atoms: C_18  and  C_19
REMARK    6  A    between atoms: C_23  and  O_24
REMARK    7  A    between atoms: O_24  and  C_25
REMARK    8  A    between atoms: C_27  and  C_28
REMARK                            x       y       z     vdW  Elec       q    Type
REMARK                         _______ _______ _______ _____ _____    ______ ____
ROOT
ATOM      1  C   UNL     1       2.572  15.402  18.703  0.00  0.00    +0.000 A 
ATOM      2  C   UNL     1       1.797  16.507  18.492  0.00  0.00    +0.000 A 
ATOM      3  C   UNL     1       0.339  16.395  18.521  0.00  0.00    +0.000 A 
ATOM      4  N   UNL     1      -0.288  15.292  18.704  0.00  0.00    +0.000 NA
ATOM      5  C   UNL     1       0.484  14.169  18.803  0.00  0.00    +0.000 A 
ATOM      6  C   UNL     1       0.095  12.857  18.861  0.00  0.00    +0.000 A 
ATOM      7  C   UNL     1       1.308  12.113  18.927  0.00  0.00    +0.000 A 
ATOM      8  N   UNL     1       2.383  12.920  18.988  0.00  0.00    +0.000 NA
ATOM      9  N   UNL     1       1.887  14.179  18.834  0.00  0.00    +0.000 N 
ENDROOT
BRANCH   1  18
ATOM     10  C   UNL     1       5.999  15.389  22.549  0.00  0.00    +0.000 C 
ATOM     11  O   UNL     1       6.365  15.709  23.673  0.00  0.00    +0.000 OA
ATOM     12  N   UNL     1       5.231  16.209  21.725  0.00  0.00    +0.000 N 
ATOM     13  C   UNL     1       3.947  15.692  21.446  0.00  0.00    +0.000 C 
ATOM     14  C   UNL     1       3.197  17.069  21.450  0.00  0.00    +0.000 C 
ATOM     15  C   UNL     1       4.178  18.125  20.901  0.00  0.00    +0.000 C 
ATOM     16  C   UNL     1       5.406  17.258  20.639  0.00  0.00    +0.000 C 
ATOM     17  C   UNL     1       5.092  16.780  19.111  0.00  0.00    +0.000 C 
ATOM     18  C   UNL     1       4.090  15.556  18.927  0.00  0.00    +0.000 C 
ATOM     19  C   UNL     1       4.349  14.827  20.207  0.00  0.00    +0.000 C 
BRANCH  10  20
ATOM     20  O   UNL     1       5.980  14.085  22.116  0.00  0.00    +0.000 OA
BRANCH  20  22
ATOM     21  C   UNL     1       6.125  12.216  23.710  0.00  0.00    +0.000 C 
ATOM     22  C   UNL     1       6.835  13.058  22.650  0.00  0.00    +0.000 C 
ENDBRANCH  20  22
ENDBRANCH  10  20
ENDBRANCH   1  18
BRANCH   6  23
ATOM     23  C   UNL     1      -1.310  12.483  18.845  0.00  0.00    +0.000 A 
ATOM     24  C   UNL     1      -2.153  12.816  19.916  0.00  0.00    +0.000 A 
ATOM     25  C   UNL     1      -3.491  12.430  19.905  0.00  0.00    +0.000 A 
ATOM     26  C   UNL     1      -4.011  11.759  18.803  0.00  0.00    +0.000 A 
ATOM     27  C   UNL     1      -3.193  11.443  17.720  0.00  0.00    +0.000 A 
ATOM     28  C   UNL     1      -1.834  11.760  17.770  0.00  0.00    +0.000 A 
BRANCH  27  29
ATOM     29  O   UNL     1      -3.814  10.812  16.675  0.00  0.00    +0.000 OA
ATOM     30  C   UNL     1      -3.222  10.963  15.386  0.00  0.00    +0.000 C 
ENDBRANCH  27  29
ENDBRANCH   6  23
BRANCH   7  31
ATOM     31  C   UNL     1       1.437  10.656  18.959  0.00  0.00    +0.000 A 
ATOM     32  C   UNL     1       0.989   9.934  20.070  0.00  0.00    +0.000 A 
ATOM     33  C   UNL     1       1.273   8.584  20.144  0.00  0.00    +0.000 A 
ATOM     34  N   UNL     1       1.919   7.907  19.174  0.00  0.00    +0.000 NA
ATOM     35  C   UNL     1       2.288   8.611  18.081  0.00  0.00    +0.000 A 
ATOM     36  C   UNL     1       2.077   9.972  17.929  0.00  0.00    +0.000 A 
ENDBRANCH   7  31
TORSDOF 6
ENDMDL
MODEL 8
REMARK VINA RESULT:      -6.7      4.401      8.029
REMARK  Name = 
REMARK  8 active torsions:
REMARK  status: ('A' for Active; 'I' for Inactive)
REMARK    1  A    between atoms: C_1  and  C_2
REMARK    2  A    between atoms: C_2  and  O_3
REMARK    3  A    between atoms: O_3  and  C_4
REMARK    4  A    between atoms: C_12  and  C_13
REMARK    5  A    between atoms: C_18  and  C_19
REMARK    6  A    between atoms: C_23  and  O_24
REMARK    7  A    between atoms: O_24  and  C_25
REMARK    8  A    between atoms: C_27  and  C_28
REMARK                            x       y       z     vdW  Elec       q    Type
REMARK                         _______ _______ _______ _____ _____    ______ ____
ROOT
ATOM      1  C   UNL     1       2.141  14.801  19.098  0.00  0.00    +0.000 A 
ATOM      2  C   UNL     1       1.313  15.840  18.777  0.00  0.00    +0.000 A 
ATOM      3  C   UNL     1      -0.105  15.593  18.520  0.00  0.00    +0.000 A 
ATOM      4  N   UNL     1      -0.642  14.429  18.543  0.00  0.00    +0.000 NA
ATOM      5  C   UNL     1       0.206  13.378  18.752  0.00  0.00    +0.000 A 
ATOM      6  C   UNL     1      -0.054  12.034  18.690  0.00  0.00    +0.000 A 
ATOM      7  C   UNL     1       1.193  11.403  18.966  0.00  0.00    +0.000 A 
ATOM      8  N   UNL     1       2.151  12.302  19.259  0.00  0.00    +0.000 NA
ATOM      9  N   UNL     1       1.570  13.516  19.054  0.00  0.00    +0.000 N 
ENDROOT
BRANCH   1  18
ATOM     10  C   UNL     1       4.764  14.900  23.530  0.00  0.00    +0.000 C 
ATOM     11  O   UNL     1       4.878  15.192  24.713  0.00  0.00    +0.000 OA
ATOM     12  N   UNL     1       4.087  15.689  22.602  0.00  0.00    +0.000 N 
ATOM     13  C   UNL     1       2.938  15.070  22.063  0.00  0.00    +0.000 C 
ATOM     14  C   UNL     1       2.066  16.371  21.970  0.00  0.00    +0.000 C 
ATOM     15  C   UNL     1       3.020  17.540  21.657  0.00  0.00    +0.000 C 
ATOM     16  C   UNL     1       4.357  16.805  21.607  0.00  0.00    +0.000 C 
ATOM     17  C   UNL     1       4.387  16.382  20.032  0.00  0.00    +0.000 C 
ATOM     18  C   UNL     1       3.566  15.083  19.616  0.00  0.00    +0.000 C 
ATOM     19  C   UNL     1       3.651  14.313  20.896  0.00  0.00    +0.000 C 
BRANCH  10  20
ATOM     20  O   UNL     1       4.959  13.625  23.057  0.00  0.00    +0.000 OA
BRANCH  20  22
ATOM     21  C   UNL     1       7.274  13.727  22.230  0.00  0.00    +0.000 C 
ATOM     22  C   UNL     1       6.237  12.964  23.055  0.00  0.00    +0.000 C 
ENDBRANCH  20  22
ENDBRANCH  10  20
ENDBRANCH   1  18
BRANCH   6  23
ATOM     23  C   UNL     1      -1.385  11.534  18.392  0.00  0.00    +0.000 A 
ATOM     24  C   UNL     1      -1.575  10.527  17.433  0.00  0.00    +0.000 A 
ATOM     25  C   UNL     1      -2.857  10.073  17.134  0.00  0.00    +0.000 A 
ATOM     26  C   UNL     1      -3.953  10.578  17.827  0.00  0.00    +0.000 A 
ATOM     27  C   UNL     1      -3.779  11.560  18.800  0.00  0.00    +0.000 A 
ATOM     28  C   UNL     1      -2.501  12.071  19.040  0.00  0.00    +0.000 A 
BRANCH  27  29
ATOM     29  O   UNL     1      -4.918  11.963  19.444  0.00  0.00    +0.000 OA
ATOM     30  C   UNL     1      -5.705  12.962  18.799  0.00  0.00    +0.000 C 
ENDBRANCH  27  29
ENDBRANCH   6  23
BRANCH   7  31
ATOM     31  C   UNL     1       1.459   9.964  18.974  0.00  0.00    +0.000 A 
ATOM     32  C   UNL     1       1.237   9.214  20.134  0.00  0.00    +0.000 A 
ATOM     33  C   UNL     1       1.651   7.896  20.163  0.00  0.00    +0.000 A 
ATOM     34  N   UNL     1       2.218   7.273  19.111  0.00  0.00    +0.000 NA
ATOM     35  C   UNL     1       2.367   7.999  17.980  0.00  0.00    +0.000 A 
ATOM     36  C   UNL     1       2.013   9.333  17.864  0.00  0.00    +0.000 A 
ENDBRANCH   7  31
TORSDOF 6
ENDMDL
MODEL 9
REMARK VINA RESULT:      -6.7      5.045      8.045
REMARK  Name = 
REMARK  8 active torsions:
REMARK  status: ('A' for Active; 'I' for Inactive)
REMARK    1  A    between atoms: C_1  and  C_2
REMARK    2  A    between atoms: C_2  and  O_3
REMARK    3  A    between atoms: O_3  and  C_4
REMARK    4  A    between atoms: C_12  and  C_13
REMARK    5  A    between atoms: C_18  and  C_19
REMARK    6  A    between atoms: C_23  and  O_24
REMARK    7  A    between atoms: O_24  and  C_25
REMARK    8  A    between atoms: C_27  and  C_28
REMARK                            x       y       z     vdW  Elec       q    Type
REMARK                         _______ _______ _______ _____ _____    ______ ____
ROOT
ATOM      1  C   UNL     1      -2.301  13.389  23.444  0.00  0.00    +0.000 A 
ATOM      2  C   UNL     1      -1.950  14.434  24.251  0.00  0.00    +0.000 A 
ATOM      3  C   UNL     1      -0.836  15.304  23.877  0.00  0.00    +0.000 A 
ATOM      4  N   UNL     1      -0.118  15.135  22.828  0.00  0.00    +0.000 NA
ATOM      5  C   UNL     1      -0.397  14.025  22.081  0.00  0.00    +0.000 A 
ATOM      6  C   UNL     1       0.281  13.517  21.004  0.00  0.00    +0.000 A 
ATOM      7  C   UNL     1      -0.431  12.339  20.639  0.00  0.00    +0.000 A 
ATOM      8  N   UNL     1      -1.531  12.170  21.396  0.00  0.00    +0.000 NA
ATOM      9  N   UNL     1      -1.472  13.158  22.331  0.00  0.00    +0.000 N 
ENDROOT
BRANCH   1  18
ATOM     10  C   UNL     1      -6.913  12.693  21.257  0.00  0.00    +0.000 C 
ATOM     11  O   UNL     1      -7.911  13.107  20.681  0.00  0.00    +0.000 OA
ATOM     12  N   UNL     1      -6.221  13.421  22.222  0.00  0.00    +0.000 N 
ATOM     13  C   UNL     1      -4.906  13.764  21.839  0.00  0.00    +0.000 C 
ATOM     14  C   UNL     1      -4.886  15.176  22.523  0.00  0.00    +0.000 C 
ATOM     15  C   UNL     1      -5.744  15.077  23.800  0.00  0.00    +0.000 C 
ATOM     16  C   UNL     1      -6.186  13.618  23.728  0.00  0.00    +0.000 C 
ATOM     17  C   UNL     1      -4.950  12.910  24.525  0.00  0.00    +0.000 C 
ATOM     18  C   UNL     1      -3.620  12.631  23.695  0.00  0.00    +0.000 C 
ATOM     19  C   UNL     1      -4.209  12.454  22.331  0.00  0.00    +0.000 C 
BRANCH  10  20
ATOM     20  O   UNL     1      -6.158  11.650  20.778  0.00  0.00    +0.000 OA
BRANCH  20  22
ATOM     21  C   UNL     1      -6.000  11.123  18.380  0.00  0.00    +0.000 C 
ATOM     22  C   UNL     1      -6.600  10.760  19.739  0.00  0.00    +0.000 C 
ENDBRANCH  20  22
ENDBRANCH  10  20
ENDBRANCH   1  18
BRANCH   6  23
ATOM     23  C   UNL     1       1.465  14.176  20.477  0.00  0.00    +0.000 A 
ATOM     24  C   UNL     1       2.744  13.834  20.941  0.00  0.00    +0.000 A 
ATOM     25  C   UNL     1       3.870  14.490  20.450  0.00  0.00    +0.000 A 
ATOM     26  C   UNL     1       3.735  15.449  19.452  0.00  0.00    +0.000 A 
ATOM     27  C   UNL     1       2.474  15.782  18.961  0.00  0.00    +0.000 A 
ATOM     28  C   UNL     1       1.341  15.182  19.514  0.00  0.00    +0.000 A 
BRANCH  27  29
ATOM     29  O   UNL     1       2.458  16.714  17.958  0.00  0.00    +0.000 OA
ATOM     30  C   UNL     1       1.303  17.547  17.869  0.00  0.00    +0.000 C 
ENDBRANCH  27  29
ENDBRANCH   6  23
BRANCH   7  31
ATOM     31  C   UNL     1      -0.081  11.404  19.570  0.00  0.00    +0.000 A 
ATOM     32  C   UNL     1      -1.027  11.060  18.599  0.00  0.00    +0.000 A 
ATOM     33  C   UNL     1      -0.723  10.054  17.702  0.00  0.00    +0.000 A 
ATOM     34  N   UNL     1       0.462   9.413  17.678  0.00  0.00    +0.000 NA
ATOM     35  C   UNL     1       1.385   9.804  18.586  0.00  0.00    +0.000 A 
ATOM     36  C   UNL     1       1.163  10.779  19.545  0.00  0.00    +0.000 A 
ENDBRANCH   7  31
TORSDOF 6
ENDMDL
