MODEL 1
REMARK VINA RESULT:      -7.8      0.000      0.000
REMARK  Name = 
REMARK  2 active torsions:
REMARK  status: ('A' for Active; 'I' for Inactive)
REMARK    1  A    between atoms: C_1  and  C_2
REMARK    2  A    between atoms: C_14  and  O_15
REMARK                            x       y       z     vdW  Elec       q    Type
REMARK                         _______ _______ _______ _____ _____    ______ ____
ROOT
ATOM      1  C   UNL     1       6.533   4.332  13.921  0.00  0.00    +0.000 C 
ATOM      2  C   UNL     1       5.699   4.702  15.108  0.00  0.00    +0.000 A 
ATOM      3  C   UNL     1       5.487   6.021  15.488  0.00  0.00    +0.000 A 
ATOM      4  N   UNL     1       4.739   6.388  16.556  0.00  0.00    +0.000 NA
ATOM      5  C   UNL     1       4.166   5.397  17.292  0.00  0.00    +0.000 A 
ATOM      6  C   UNL     1       4.324   4.060  16.985  0.00  0.00    +0.000 A 
ATOM      7  C   UNL     1       5.100   3.708  15.879  0.00  0.00    +0.000 A 
ATOM      8  C   UNL     1       3.693   3.023  17.798  0.00  0.00    +0.000 C 
ATOM      9  O   UNL     1       3.847   1.841  17.508  0.00  0.00    +0.000 OA
ATOM     10  C   UNL     1       2.879   3.409  18.960  0.00  0.00    +0.000 A 
ATOM     11  C   UNL     1       2.288   2.384  19.715  0.00  0.00    +0.000 A 
ATOM     12  C   UNL     1       1.509   2.692  20.823  0.00  0.00    +0.000 A 
ATOM     13  C   UNL     1       1.318   4.025  21.178  0.00  0.00    +0.000 A 
ATOM     14  C   UNL     1       1.907   5.048  20.423  0.00  0.00    +0.000 A 
ATOM     15  C   UNL     1       2.698   4.754  19.299  0.00  0.00    +0.000 A 
ATOM     16  C   UNL     1       3.345   5.812  18.464  0.00  0.00    +0.000 C 
ATOM     17  O   UNL     1       3.216   7.003  18.721  0.00  0.00    +0.000 OA
ENDROOT
BRANCH  14  18
ATOM     18  O   UNL     1       1.690   6.338  20.812  0.00  0.00    +0.000 OA
ATOM     19  H   UNL     1       1.600   6.398  21.777  0.00  0.00    +0.000 HD
ENDBRANCH  14  18
TORSDOF 1
ENDMDL
MODEL 2
REMARK VINA RESULT:      -7.2      1.448      5.144
REMARK  Name = 
REMARK  2 active torsions:
REMARK  status: ('A' for Active; 'I' for Inactive)
REMARK    1  A    between atoms: C_1  and  C_2
REMARK    2  A    between atoms: C_14  and  O_15
REMARK                            x       y       z     vdW  Elec       q    Type
REMARK                         _______ _______ _______ _____ _____    ______ ____
ROOT
ATOM      1  C   UNL     1       1.240   2.711  21.817  0.00  0.00    +0.000 C 
ATOM      2  C   UNL     1       1.929   3.526  20.767  0.00  0.00    +0.000 A 
ATOM      3  C   UNL     1       1.879   4.913  20.749  0.00  0.00    +0.000 A 
ATOM      4  N   UNL     1       2.491   5.678  19.812  0.00  0.00    +0.000 NA
ATOM      5  C   UNL     1       3.192   5.037  18.837  0.00  0.00    +0.000 A 
ATOM      6  C   UNL     1       3.293   3.662  18.780  0.00  0.00    +0.000 A 
ATOM      7  C   UNL     1       2.654   2.896  19.757  0.00  0.00    +0.000 A 
ATOM      8  C   UNL     1       4.055   3.008  17.719  0.00  0.00    +0.000 C 
ATOM      9  O   UNL     1       4.132   1.784  17.687  0.00  0.00    +0.000 OA
ATOM     10  C   UNL     1       4.723   3.827  16.697  0.00  0.00    +0.000 A 
ATOM     11  C   UNL     1       5.446   3.162  15.695  0.00  0.00    +0.000 A 
ATOM     12  C   UNL     1       6.096   3.887  14.704  0.00  0.00    +0.000 A 
ATOM     13  C   UNL     1       6.026   5.278  14.714  0.00  0.00    +0.000 A 
ATOM     14  C   UNL     1       5.304   5.941  15.716  0.00  0.00    +0.000 A 
ATOM     15  C   UNL     1       4.641   5.223  16.725  0.00  0.00    +0.000 A 
ATOM     16  C   UNL     1       3.861   5.889  17.813  0.00  0.00    +0.000 C 
ATOM     17  O   UNL     1       3.760   7.107  17.880  0.00  0.00    +0.000 OA
ENDROOT
BRANCH  14  18
ATOM     18  O   UNL     1       5.266   7.305  15.680  0.00  0.00    +0.000 OA
ATOM     19  H   UNL     1       4.606   7.649  16.304  0.00  0.00    +0.000 HD
ENDBRANCH  14  18
TORSDOF 1
ENDMDL
MODEL 3
REMARK VINA RESULT:      -6.9      1.254      1.254
REMARK  Name = 
REMARK  2 active torsions:
REMARK  status: ('A' for Active; 'I' for Inactive)
REMARK    1  A    between atoms: C_1  and  C_2
REMARK    2  A    between atoms: C_14  and  O_15
REMARK                            x       y       z     vdW  Elec       q    Type
REMARK                         _______ _______ _______ _____ _____    ______ ____
ROOT
ATOM      1  C   UNL     1       6.886   4.569  13.992  0.00  0.00    +0.000 C 
ATOM      2  C   UNL     1       6.170   4.691  15.300  0.00  0.00    +0.000 A 
ATOM      3  C   UNL     1       6.632   5.501  16.330  0.00  0.00    +0.000 A 
ATOM      4  N   UNL     1       6.008   5.632  17.525  0.00  0.00    +0.000 NA
ATOM      5  C   UNL     1       4.861   4.924  17.717  0.00  0.00    +0.000 A 
ATOM      6  C   UNL     1       4.332   4.095  16.747  0.00  0.00    +0.000 A 
ATOM      7  C   UNL     1       4.994   3.978  15.523  0.00  0.00    +0.000 A 
ATOM      8  C   UNL     1       3.098   3.350  16.988  0.00  0.00    +0.000 C 
ATOM      9  O   UNL     1       2.645   2.620  16.113  0.00  0.00    +0.000 OA
ATOM     10  C   UNL     1       2.412   3.484  18.281  0.00  0.00    +0.000 A 
ATOM     11  C   UNL     1       1.229   2.753  18.473  0.00  0.00    +0.000 A 
ATOM     12  C   UNL     1       0.541   2.842  19.676  0.00  0.00    +0.000 A 
ATOM     13  C   UNL     1       1.031   3.662  20.689  0.00  0.00    +0.000 A 
ATOM     14  C   UNL     1       2.212   4.393  20.496  0.00  0.00    +0.000 A 
ATOM     15  C   UNL     1       2.921   4.314  19.285  0.00  0.00    +0.000 A 
ATOM     16  C   UNL     1       4.183   5.076  19.035  0.00  0.00    +0.000 C 
ATOM     17  O   UNL     1       4.668   5.815  19.882  0.00  0.00    +0.000 OA
ENDROOT
BRANCH  14  18
ATOM     18  O   UNL     1       2.651   5.181  21.519  0.00  0.00    +0.000 OA
ATOM     19  H   UNL     1       1.913   5.659  21.930  0.00  0.00    +0.000 HD
ENDBRANCH  14  18
TORSDOF 1
ENDMDL
MODEL 4
REMARK VINA RESULT:      -6.8      1.531      2.942
REMARK  Name = 
REMARK  2 active torsions:
REMARK  status: ('A' for Active; 'I' for Inactive)
REMARK    1  A    between atoms: C_1  and  C_2
REMARK    2  A    between atoms: C_14  and  O_15
REMARK                            x       y       z     vdW  Elec       q    Type
REMARK                         _______ _______ _______ _____ _____    ______ ____
ROOT
ATOM      1  C   UNL     1       7.320   5.464  13.931  0.00  0.00    +0.000 C 
ATOM      2  C   UNL     1       6.396   4.924  14.977  0.00  0.00    +0.000 A 
ATOM      3  C   UNL     1       6.200   3.563  15.167  0.00  0.00    +0.000 A 
ATOM      4  N   UNL     1       5.370   3.043  16.103  0.00  0.00    +0.000 NA
ATOM      5  C   UNL     1       4.695   3.917  16.899  0.00  0.00    +0.000 A 
ATOM      6  C   UNL     1       4.831   5.286  16.779  0.00  0.00    +0.000 A 
ATOM      7  C   UNL     1       5.693   5.796  15.806  0.00  0.00    +0.000 A 
ATOM      8  C   UNL     1       4.091   6.194  17.652  0.00  0.00    +0.000 C 
ATOM      9  O   UNL     1       4.227   7.407  17.527  0.00  0.00    +0.000 OA
ATOM     10  C   UNL     1       3.188   5.642  18.672  0.00  0.00    +0.000 A 
ATOM     11  C   UNL     1       2.495   6.547  19.491  0.00  0.00    +0.000 A 
ATOM     12  C   UNL     1       1.629   6.080  20.471  0.00  0.00    +0.000 A 
ATOM     13  C   UNL     1       1.452   4.709  20.634  0.00  0.00    +0.000 A 
ATOM     14  C   UNL     1       2.145   3.806  19.816  0.00  0.00    +0.000 A 
ATOM     15  C   UNL     1       3.025   4.261  18.820  0.00  0.00    +0.000 A 
ATOM     16  C   UNL     1       3.786   3.334  17.926  0.00  0.00    +0.000 C 
ATOM     17  O   UNL     1       3.678   2.118  18.018  0.00  0.00    +0.000 OA
ENDROOT
BRANCH  14  18
ATOM     18  O   UNL     1       1.938   2.471  20.016  0.00  0.00    +0.000 OA
ATOM     19  H   UNL     1       1.596   2.304  20.909  0.00  0.00    +0.000 HD
ENDBRANCH  14  18
TORSDOF 1
ENDMDL
MODEL 5
REMARK VINA RESULT:      -6.7      2.541      3.638
REMARK  Name = 
REMARK  2 active torsions:
REMARK  status: ('A' for Active; 'I' for Inactive)
REMARK    1  A    between atoms: C_1  and  C_2
REMARK    2  A    between atoms: C_14  and  O_15
REMARK                            x       y       z     vdW  Elec       q    Type
REMARK                         _______ _______ _______ _____ _____    ______ ____
ROOT
ATOM      1  C   UNL     1       8.207   8.143  17.772  0.00  0.00    +0.000 C 
ATOM      2  C   UNL     1       7.326   6.986  18.127  0.00  0.00    +0.000 A 
ATOM      3  C   UNL     1       7.789   5.886  18.837  0.00  0.00    +0.000 A 
ATOM      4  N   UNL     1       7.017   4.824  19.172  0.00  0.00    +0.000 NA
ATOM      5  C   UNL     1       5.713   4.849  18.786  0.00  0.00    +0.000 A 
ATOM      6  C   UNL     1       5.169   5.903  18.078  0.00  0.00    +0.000 A 
ATOM      7  C   UNL     1       5.986   6.985  17.744  0.00  0.00    +0.000 A 
ATOM      8  C   UNL     1       3.763   5.895  17.680  0.00  0.00    +0.000 C 
ATOM      9  O   UNL     1       3.301   6.841  17.051  0.00  0.00    +0.000 OA
ATOM     10  C   UNL     1       2.916   4.748  18.038  0.00  0.00    +0.000 A 
ATOM     11  C   UNL     1       1.571   4.779  17.639  0.00  0.00    +0.000 A 
ATOM     12  C   UNL     1       0.726   3.721  17.951  0.00  0.00    +0.000 A 
ATOM     13  C   UNL     1       1.222   2.632  18.662  0.00  0.00    +0.000 A 
ATOM     14  C   UNL     1       2.566   2.603  19.061  0.00  0.00    +0.000 A 
ATOM     15  C   UNL     1       3.434   3.664  18.754  0.00  0.00    +0.000 A 
ATOM     16  C   UNL     1       4.873   3.676  19.160  0.00  0.00    +0.000 C 
ATOM     17  O   UNL     1       5.373   2.751  19.788  0.00  0.00    +0.000 OA
ENDROOT
BRANCH  14  18
ATOM     18  O   UNL     1       3.004   1.513  19.756  0.00  0.00    +0.000 OA
ATOM     19  H   UNL     1       3.131   1.729  20.694  0.00  0.00    +0.000 HD
ENDBRANCH  14  18
TORSDOF 1
ENDMDL
MODEL 6
REMARK VINA RESULT:      -6.6      2.121      2.267
REMARK  Name = 
REMARK  2 active torsions:
REMARK  status: ('A' for Active; 'I' for Inactive)
REMARK    1  A    between atoms: C_1  and  C_2
REMARK    2  A    between atoms: C_14  and  O_15
REMARK                            x       y       z     vdW  Elec       q    Type
REMARK                         _______ _______ _______ _____ _____    ______ ____
ROOT
ATOM      1  C   UNL     1       7.065   4.871  14.505  0.00  0.00    +0.000 C 
ATOM      2  C   UNL     1       6.420   4.530  15.812  0.00  0.00    +0.000 A 
ATOM      3  C   UNL     1       7.126   4.513  17.008  0.00  0.00    +0.000 A 
ATOM      4  N   UNL     1       6.572   4.208  18.207  0.00  0.00    +0.000 NA
ATOM      5  C   UNL     1       5.245   3.904  18.227  0.00  0.00    +0.000 A 
ATOM      6  C   UNL     1       4.470   3.897  17.085  0.00  0.00    +0.000 A 
ATOM      7  C   UNL     1       5.064   4.215  15.862  0.00  0.00    +0.000 A 
ATOM      8  C   UNL     1       3.048   3.565  17.144  0.00  0.00    +0.000 C 
ATOM      9  O   UNL     1       2.377   3.565  16.118  0.00  0.00    +0.000 OA
ATOM     10  C   UNL     1       2.435   3.233  18.439  0.00  0.00    +0.000 A 
ATOM     11  C   UNL     1       1.067   2.920  18.455  0.00  0.00    +0.000 A 
ATOM     12  C   UNL     1       0.438   2.599  19.651  0.00  0.00    +0.000 A 
ATOM     13  C   UNL     1       1.174   2.589  20.832  0.00  0.00    +0.000 A 
ATOM     14  C   UNL     1       2.540   2.902  20.816  0.00  0.00    +0.000 A 
ATOM     15  C   UNL     1       3.192   3.229  19.615  0.00  0.00    +0.000 A 
ATOM     16  C   UNL     1       4.647   3.570  19.550  0.00  0.00    +0.000 C 
ATOM     17  O   UNL     1       5.351   3.582  20.552  0.00  0.00    +0.000 OA
ENDROOT
BRANCH  14  18
ATOM     18  O   UNL     1       3.217   2.878  22.001  0.00  0.00    +0.000 OA
ATOM     19  H   UNL     1       3.563   3.758  22.220  0.00  0.00    +0.000 HD
ENDBRANCH  14  18
TORSDOF 1
ENDMDL
MODEL 7
REMARK VINA RESULT:      -6.5      1.558      3.311
REMARK  Name = 
REMARK  2 active torsions:
REMARK  status: ('A' for Active; 'I' for Inactive)
REMARK    1  A    between atoms: C_1  and  C_2
REMARK    2  A    between atoms: C_14  and  O_15
REMARK                            x       y       z     vdW  Elec       q    Type
REMARK                         _______ _______ _______ _____ _____    ______ ____
ROOT
ATOM      1  C   UNL     1       7.681   7.796  17.092  0.00  0.00    +0.000 C 
ATOM      2  C   UNL     1       6.751   6.645  17.319  0.00  0.00    +0.000 A 
ATOM      3  C   UNL     1       6.973   5.389  16.771  0.00  0.00    +0.000 A 
ATOM      4  N   UNL     1       6.150   4.329  16.956  0.00  0.00    +0.000 NA
ATOM      5  C   UNL     1       5.045   4.518  17.728  0.00  0.00    +0.000 A 
ATOM      6  C   UNL     1       4.749   5.734  18.311  0.00  0.00    +0.000 A 
ATOM      7  C   UNL     1       5.613   6.811  18.105  0.00  0.00    +0.000 A 
ATOM      8  C   UNL     1       3.553   5.901  19.134  0.00  0.00    +0.000 C 
ATOM      9  O   UNL     1       3.308   6.990  19.643  0.00  0.00    +0.000 OA
ATOM     10  C   UNL     1       2.652   4.758  19.343  0.00  0.00    +0.000 A 
ATOM     11  C   UNL     1       1.515   4.958  20.141  0.00  0.00    +0.000 A 
ATOM     12  C   UNL     1       0.630   3.912  20.371  0.00  0.00    +0.000 A 
ATOM     13  C   UNL     1       0.880   2.665  19.805  0.00  0.00    +0.000 A 
ATOM     14  C   UNL     1       2.017   2.465  19.009  0.00  0.00    +0.000 A 
ATOM     15  C   UNL     1       2.922   3.512  18.766  0.00  0.00    +0.000 A 
ATOM     16  C   UNL     1       4.147   3.345  17.926  0.00  0.00    +0.000 C 
ATOM     17  O   UNL     1       4.427   2.275  17.400  0.00  0.00    +0.000 OA
ENDROOT
BRANCH  14  18
ATOM     18  O   UNL     1       2.217   1.224  18.477  0.00  0.00    +0.000 OA
ATOM     19  H   UNL     1       2.560   1.287  17.572  0.00  0.00    +0.000 HD
ENDBRANCH  14  18
TORSDOF 1
ENDMDL
MODEL 8
REMARK VINA RESULT:      -6.4      2.734      5.602
REMARK  Name = 
REMARK  2 active torsions:
REMARK  status: ('A' for Active; 'I' for Inactive)
REMARK    1  A    between atoms: C_1  and  C_2
REMARK    2  A    between atoms: C_14  and  O_15
REMARK                            x       y       z     vdW  Elec       q    Type
REMARK                         _______ _______ _______ _____ _____    ______ ____
ROOT
ATOM      1  C   UNL     1      -0.394   9.227  22.211  0.00  0.00    +0.000 C 
ATOM      2  C   UNL     1       0.510   8.791  21.100  0.00  0.00    +0.000 A 
ATOM      3  C   UNL     1       0.823   9.615  20.028  0.00  0.00    +0.000 A 
ATOM      4  N   UNL     1       1.637   9.249  19.007  0.00  0.00    +0.000 NA
ATOM      5  C   UNL     1       2.173   7.999  19.048  0.00  0.00    +0.000 A 
ATOM      6  C   UNL     1       1.914   7.115  20.076  0.00  0.00    +0.000 A 
ATOM      7  C   UNL     1       1.072   7.516  21.116  0.00  0.00    +0.000 A 
ATOM      8  C   UNL     1       2.507   5.780  20.087  0.00  0.00    +0.000 C 
ATOM      9  O   UNL     1       2.264   5.011  21.010  0.00  0.00    +0.000 OA
ATOM     10  C   UNL     1       3.391   5.372  18.985  0.00  0.00    +0.000 A 
ATOM     11  C   UNL     1       3.942   4.082  19.032  0.00  0.00    +0.000 A 
ATOM     12  C   UNL     1       4.784   3.645  18.017  0.00  0.00    +0.000 A 
ATOM     13  C   UNL     1       5.077   4.496  16.954  0.00  0.00    +0.000 A 
ATOM     14  C   UNL     1       4.527   5.784  16.909  0.00  0.00    +0.000 A 
ATOM     15  C   UNL     1       3.674   6.242  17.927  0.00  0.00    +0.000 A 
ATOM     16  C   UNL     1       3.065   7.608  17.921  0.00  0.00    +0.000 C 
ATOM     17  O   UNL     1       3.283   8.405  17.017  0.00  0.00    +0.000 OA
ENDROOT
BRANCH  14  18
ATOM     18  O   UNL     1       4.845   6.579  15.846  0.00  0.00    +0.000 OA
ATOM     19  H   UNL     1       4.092   7.136  15.592  0.00  0.00    +0.000 HD
ENDBRANCH  14  18
TORSDOF 1
ENDMDL
MODEL 9
REMARK VINA RESULT:      -6.4      2.405      5.825
REMARK  Name = 
REMARK  2 active torsions:
REMARK  status: ('A' for Active; 'I' for Inactive)
REMARK    1  A    between atoms: C_1  and  C_2
REMARK    2  A    between atoms: C_14  and  O_15
REMARK                            x       y       z     vdW  Elec       q    Type
REMARK                         _______ _______ _______ _____ _____    ______ ____
ROOT
ATOM      1  C   UNL     1       0.319   9.448  21.165  0.00  0.00    +0.000 C 
ATOM      2  C   UNL     1       1.078   8.282  20.613  0.00  0.00    +0.000 A 
ATOM      3  C   UNL     1       1.063   7.031  21.214  0.00  0.00    +0.000 A 
ATOM      4  N   UNL     1       1.740   5.957  20.740  0.00  0.00    +0.000 NA
ATOM      5  C   UNL     1       2.474   6.127  19.607  0.00  0.00    +0.000 A 
ATOM      6  C   UNL     1       2.545   7.337  18.945  0.00  0.00    +0.000 A 
ATOM      7  C   UNL     1       1.838   8.428  19.454  0.00  0.00    +0.000 A 
ATOM      8  C   UNL     1       3.344   7.483  17.730  0.00  0.00    +0.000 C 
ATOM      9  O   UNL     1       3.394   8.567  17.158  0.00  0.00    +0.000 OA
ATOM     10  C   UNL     1       4.083   6.325  17.206  0.00  0.00    +0.000 A 
ATOM     11  C   UNL     1       4.838   6.506  16.037  0.00  0.00    +0.000 A 
ATOM     12  C   UNL     1       5.556   5.445  15.499  0.00  0.00    +0.000 A 
ATOM     13  C   UNL     1       5.521   4.203  16.127  0.00  0.00    +0.000 A 
ATOM     14  C   UNL     1       4.765   4.024  17.294  0.00  0.00    +0.000 A 
ATOM     15  C   UNL     1       4.034   5.086  17.852  0.00  0.00    +0.000 A 
ATOM     16  C   UNL     1       3.214   4.940  19.094  0.00  0.00    +0.000 C 
ATOM     17  O   UNL     1       3.139   3.875  19.695  0.00  0.00    +0.000 OA
ENDROOT
BRANCH  14  18
ATOM     18  O   UNL     1       4.764   2.787  17.872  0.00  0.00    +0.000 OA
ATOM     19  H   UNL     1       5.404   2.744  18.600  0.00  0.00    +0.000 HD
ENDBRANCH  14  18
TORSDOF 1
ENDMDL
