MODEL 1
REMARK VINA RESULT:      -7.4      0.000      0.000
REMARK  Name = 
REMARK  8 active torsions:
REMARK  status: ('A' for Active; 'I' for Inactive)
REMARK    1  A    between atoms: C_1  and  O_2
REMARK    2  A    between atoms: O_2  and  C_3
REMARK    3  A    between atoms: C_6  and  C_7
REMARK    4  A    between atoms: N_9  and  C_10
REMARK    5  A    between atoms: C_10  and  C_11
REMARK    6  A    between atoms: C_15  and  N_16
REMARK    7  A    between atoms: N_16  and  S_17
REMARK    8  A    between atoms: S_17  and  C_18
REMARK                            x       y       z     vdW  Elec       q    Type
REMARK                         _______ _______ _______ _____ _____    ______ ____
ROOT
ATOM      1  C   UNL     1       5.764   3.927  17.819  0.00  0.00    +0.000 C 
ATOM      2  O   UNL     1       6.254   4.421  18.829  0.00  0.00    +0.000 OA
ATOM      3  N   UNL     1       4.715   3.021  17.835  0.00  0.00    +0.000 N 
ATOM      4  H   UNL     1       4.288   2.814  16.934  0.00  0.00    +0.000 HD
ENDROOT
BRANCH   1   8
ATOM      5  C   UNL     1       7.311   5.068  14.083  0.00  0.00    +0.000 A 
ATOM      6  C   UNL     1       6.420   4.010  14.093  0.00  0.00    +0.000 A 
ATOM      7  C   UNL     1       5.891   3.603  15.319  0.00  0.00    +0.000 A 
ATOM      8  C   UNL     1       6.293   4.279  16.464  0.00  0.00    +0.000 A 
ATOM      9  N   UNL     1       7.171   5.310  16.421  0.00  0.00    +0.000 NA
ATOM     10  N   UNL     1       7.679   5.708  15.217  0.00  0.00    +0.000 NA
BRANCH   5  12
ATOM     11  C   UNL     1       7.349   4.655  11.787  0.00  0.00    +0.000 C 
ATOM     12  O   UNL     1       7.839   5.449  12.867  0.00  0.00    +0.000 OA
ENDBRANCH   5  12
ENDBRANCH   1   8
BRANCH   3  13
ATOM     13  C   UNL     1       4.053   2.590  19.060  0.00  0.00    +0.000 C 
BRANCH  13  14
ATOM     14  C   UNL     1       2.791   3.408  19.364  0.00  0.00    +0.000 C 
ATOM     15  C   UNL     1       1.699   2.570  20.039  0.00  0.00    +0.000 C 
ATOM     16  C   UNL     1       0.730   3.604  20.587  0.00  0.00    +0.000 C 
ATOM     17  C   UNL     1       1.576   4.826  20.913  0.00  0.00    +0.000 C 
ATOM     18  C   UNL     1       2.990   4.542  20.395  0.00  0.00    +0.000 C 
BRANCH  18  19
ATOM     19  N   UNL     1       3.611   5.734  19.788  0.00  0.00    +0.000 NA
ATOM     20  H   UNL     1       4.629   5.706  19.691  0.00  0.00    +0.000 HD
BRANCH  19  21
ATOM     21  S   UNL     1       2.950   6.434  18.395  0.00  0.00    +0.000 S 
ATOM     22  C   UNL     1       2.122   7.880  19.022  0.00  0.00    +0.000 C 
ATOM     23  O   UNL     1       4.091   6.868  17.616  0.00  0.00    +0.000 OA
ATOM     24  O   UNL     1       1.964   5.542  17.839  0.00  0.00    +0.000 OA
ENDBRANCH  19  21
ENDBRANCH  18  19
ENDBRANCH  13  14
ENDBRANCH   3  13
TORSDOF 6
ENDMDL
MODEL 2
REMARK VINA RESULT:      -7.3      3.381      7.102
REMARK  Name = 
REMARK  8 active torsions:
REMARK  status: ('A' for Active; 'I' for Inactive)
REMARK    1  A    between atoms: C_1  and  O_2
REMARK    2  A    between atoms: O_2  and  C_3
REMARK    3  A    between atoms: C_6  and  C_7
REMARK    4  A    between atoms: N_9  and  C_10
REMARK    5  A    between atoms: C_10  and  C_11
REMARK    6  A    between atoms: C_15  and  N_16
REMARK    7  A    between atoms: N_16  and  S_17
REMARK    8  A    between atoms: S_17  and  C_18
REMARK                            x       y       z     vdW  Elec       q    Type
REMARK                         _______ _______ _______ _____ _____    ______ ____
ROOT
ATOM      1  C   UNL     1       2.741   6.870  17.947  0.00  0.00    +0.000 C 
ATOM      2  O   UNL     1       2.177   5.785  17.869  0.00  0.00    +0.000 OA
ATOM      3  N   UNL     1       4.009   7.119  17.442  0.00  0.00    +0.000 N 
ATOM      4  H   UNL     1       4.299   8.095  17.418  0.00  0.00    +0.000 HD
ENDROOT
BRANCH   1   8
ATOM      5  C   UNL     1       0.848  10.019  19.985  0.00  0.00    +0.000 A 
ATOM      6  C   UNL     1       1.060  10.192  18.629  0.00  0.00    +0.000 A 
ATOM      7  C   UNL     1       1.691   9.167  17.924  0.00  0.00    +0.000 A 
ATOM      8  C   UNL     1       2.078   8.030  18.622  0.00  0.00    +0.000 A 
ATOM      9  N   UNL     1       1.857   7.892  19.953  0.00  0.00    +0.000 NA
ATOM     10  N   UNL     1       1.232   8.897  20.636  0.00  0.00    +0.000 NA
BRANCH   5  12
ATOM     11  C   UNL     1      -1.031  11.395  20.122  0.00  0.00    +0.000 C 
ATOM     12  O   UNL     1       0.238  11.047  20.674  0.00  0.00    +0.000 OA
ENDBRANCH   5  12
ENDBRANCH   1   8
BRANCH   3  13
ATOM     13  C   UNL     1       4.789   6.119  16.724  0.00  0.00    +0.000 C 
BRANCH  13  14
ATOM     14  C   UNL     1       6.174   5.897  17.347  0.00  0.00    +0.000 C 
ATOM     15  C   UNL     1       6.936   7.210  17.563  0.00  0.00    +0.000 C 
ATOM     16  C   UNL     1       8.066   6.826  18.505  0.00  0.00    +0.000 C 
ATOM     17  C   UNL     1       7.522   5.685  19.353  0.00  0.00    +0.000 C 
ATOM     18  C   UNL     1       6.151   5.315  18.778  0.00  0.00    +0.000 C 
BRANCH  18  19
ATOM     19  N   UNL     1       5.923   3.858  18.776  0.00  0.00    +0.000 NA
ATOM     20  H   UNL     1       6.718   3.282  19.063  0.00  0.00    +0.000 HD
BRANCH  19  21
ATOM     21  S   UNL     1       4.509   3.206  19.441  0.00  0.00    +0.000 S 
ATOM     22  C   UNL     1       3.642   2.582  18.017  0.00  0.00    +0.000 C 
ATOM     23  O   UNL     1       4.953   2.076  20.232  0.00  0.00    +0.000 OA
ATOM     24  O   UNL     1       3.730   4.267  20.029  0.00  0.00    +0.000 OA
ENDBRANCH  19  21
ENDBRANCH  18  19
ENDBRANCH  13  14
ENDBRANCH   3  13
TORSDOF 6
ENDMDL
MODEL 3
REMARK VINA RESULT:      -7.3      0.943      1.025
REMARK  Name = 
REMARK  8 active torsions:
REMARK  status: ('A' for Active; 'I' for Inactive)
REMARK    1  A    between atoms: C_1  and  O_2
REMARK    2  A    between atoms: O_2  and  C_3
REMARK    3  A    between atoms: C_6  and  C_7
REMARK    4  A    between atoms: N_9  and  C_10
REMARK    5  A    between atoms: C_10  and  C_11
REMARK    6  A    between atoms: C_15  and  N_16
REMARK    7  A    between atoms: N_16  and  S_17
REMARK    8  A    between atoms: S_17  and  C_18
REMARK                            x       y       z     vdW  Elec       q    Type
REMARK                         _______ _______ _______ _____ _____    ______ ____
ROOT
ATOM      1  C   UNL     1       6.150   4.330  18.026  0.00  0.00    +0.000 C 
ATOM      2  O   UNL     1       6.821   4.934  18.856  0.00  0.00    +0.000 OA
ATOM      3  N   UNL     1       5.073   3.518  18.348  0.00  0.00    +0.000 N 
ATOM      4  H   UNL     1       4.496   3.208  17.569  0.00  0.00    +0.000 HD
ENDROOT
BRANCH   1   8
ATOM      5  C   UNL     1       7.125   4.767  13.963  0.00  0.00    +0.000 A 
ATOM      6  C   UNL     1       6.202   3.787  14.281  0.00  0.00    +0.000 A 
ATOM      7  C   UNL     1       5.860   3.613  15.623  0.00  0.00    +0.000 A 
ATOM      8  C   UNL     1       6.469   4.429  16.567  0.00  0.00    +0.000 A 
ATOM      9  N   UNL     1       7.373   5.380  16.223  0.00  0.00    +0.000 NA
ATOM     10  N   UNL     1       7.697   5.549  14.906  0.00  0.00    +0.000 NA
BRANCH   5  12
ATOM     11  C   UNL     1       6.874   3.920  11.803  0.00  0.00    +0.000 C 
ATOM     12  O   UNL     1       7.467   4.918  12.635  0.00  0.00    +0.000 OA
ENDBRANCH   5  12
ENDBRANCH   1   8
BRANCH   3  13
ATOM     13  C   UNL     1       4.599   3.331  19.714  0.00  0.00    +0.000 C 
BRANCH  13  14
ATOM     14  C   UNL     1       3.069   3.243  19.796  0.00  0.00    +0.000 C 
ATOM     15  C   UNL     1       2.590   2.556  21.081  0.00  0.00    +0.000 C 
ATOM     16  C   UNL     1       1.113   2.903  21.153  0.00  0.00    +0.000 C 
ATOM     17  C   UNL     1       0.979   4.265  20.486  0.00  0.00    +0.000 C 
ATOM     18  C   UNL     1       2.349   4.607  19.890  0.00  0.00    +0.000 C 
BRANCH  18  19
ATOM     19  N   UNL     1       2.236   5.261  18.574  0.00  0.00    +0.000 NA
ATOM     20  H   UNL     1       1.284   5.389  18.219  0.00  0.00    +0.000 HD
BRANCH  19  21
ATOM     21  S   UNL     1       3.139   6.649  18.221  0.00  0.00    +0.000 S 
ATOM     22  C   UNL     1       1.889   7.874  17.897  0.00  0.00    +0.000 C 
ATOM     23  O   UNL     1       3.798   6.993  19.465  0.00  0.00    +0.000 OA
ATOM     24  O   UNL     1       3.894   6.429  17.014  0.00  0.00    +0.000 OA
ENDBRANCH  19  21
ENDBRANCH  18  19
ENDBRANCH  13  14
ENDBRANCH   3  13
TORSDOF 6
ENDMDL
MODEL 4
REMARK VINA RESULT:      -7.3      3.503      7.811
REMARK  Name = 
REMARK  8 active torsions:
REMARK  status: ('A' for Active; 'I' for Inactive)
REMARK    1  A    between atoms: C_1  and  O_2
REMARK    2  A    between atoms: O_2  and  C_3
REMARK    3  A    between atoms: C_6  and  C_7
REMARK    4  A    between atoms: N_9  and  C_10
REMARK    5  A    between atoms: C_10  and  C_11
REMARK    6  A    between atoms: C_15  and  N_16
REMARK    7  A    between atoms: N_16  and  S_17
REMARK    8  A    between atoms: S_17  and  C_18
REMARK                            x       y       z     vdW  Elec       q    Type
REMARK                         _______ _______ _______ _____ _____    ______ ____
ROOT
ATOM      1  C   UNL     1       1.893   8.376  18.773  0.00  0.00    +0.000 C 
ATOM      2  O   UNL     1       1.743   8.837  17.648  0.00  0.00    +0.000 OA
ATOM      3  N   UNL     1       2.680   7.268  19.054  0.00  0.00    +0.000 N 
ATOM      4  H   UNL     1       2.860   7.084  20.040  0.00  0.00    +0.000 HD
ENDROOT
BRANCH   1   8
ATOM      5  C   UNL     1       0.024   9.974  22.179  0.00  0.00    +0.000 A 
ATOM      6  C   UNL     1      -0.328  10.524  20.959  0.00  0.00    +0.000 A 
ATOM      7  C   UNL     1       0.279  10.018  19.809  0.00  0.00    +0.000 A 
ATOM      8  C   UNL     1       1.207   8.995  19.951  0.00  0.00    +0.000 A 
ATOM      9  N   UNL     1       1.532   8.479  21.162  0.00  0.00    +0.000 NA
ATOM     10  N   UNL     1       0.928   8.974  22.284  0.00  0.00    +0.000 NA
BRANCH   5  12
ATOM     11  C   UNL     1      -1.516  11.520  23.008  0.00  0.00    +0.000 C 
ATOM     12  O   UNL     1      -0.571  10.493  23.311  0.00  0.00    +0.000 OA
ENDBRANCH   5  12
ENDBRANCH   1   8
BRANCH   3  13
ATOM     13  C   UNL     1       3.447   6.560  18.038  0.00  0.00    +0.000 C 
BRANCH  13  14
ATOM     14  C   UNL     1       3.399   5.037  18.222  0.00  0.00    +0.000 C 
ATOM     15  C   UNL     1       2.065   4.434  17.768  0.00  0.00    +0.000 C 
ATOM     16  C   UNL     1       2.351   2.945  17.669  0.00  0.00    +0.000 C 
ATOM     17  C   UNL     1       3.823   2.834  17.297  0.00  0.00    +0.000 C 
ATOM     18  C   UNL     1       4.405   4.251  17.351  0.00  0.00    +0.000 C 
BRANCH  18  19
ATOM     19  N   UNL     1       5.763   4.273  17.923  0.00  0.00    +0.000 NA
ATOM     20  H   UNL     1       6.137   3.368  18.219  0.00  0.00    +0.000 HD
BRANCH  19  21
ATOM     21  S   UNL     1       7.000   5.154  17.173  0.00  0.00    +0.000 S 
ATOM     22  C   UNL     1       7.495   6.309  18.433  0.00  0.00    +0.000 C 
ATOM     23  O   UNL     1       8.076   4.202  16.983  0.00  0.00    +0.000 OA
ATOM     24  O   UNL     1       6.450   5.889  16.062  0.00  0.00    +0.000 OA
ENDBRANCH  19  21
ENDBRANCH  18  19
ENDBRANCH  13  14
ENDBRANCH   3  13
TORSDOF 6
ENDMDL
MODEL 5
REMARK VINA RESULT:      -7.3      3.476      7.665
REMARK  Name = 
REMARK  8 active torsions:
REMARK  status: ('A' for Active; 'I' for Inactive)
REMARK    1  A    between atoms: C_1  and  O_2
REMARK    2  A    between atoms: O_2  and  C_3
REMARK    3  A    between atoms: C_6  and  C_7
REMARK    4  A    between atoms: N_9  and  C_10
REMARK    5  A    between atoms: C_10  and  C_11
REMARK    6  A    between atoms: C_15  and  N_16
REMARK    7  A    between atoms: N_16  and  S_17
REMARK    8  A    between atoms: S_17  and  C_18
REMARK                            x       y       z     vdW  Elec       q    Type
REMARK                         _______ _______ _______ _____ _____    ______ ____
ROOT
ATOM      1  C   UNL     1       2.086   8.280  18.586  0.00  0.00    +0.000 C 
ATOM      2  O   UNL     1       2.076   8.805  17.479  0.00  0.00    +0.000 OA
ATOM      3  N   UNL     1       2.644   7.037  18.846  0.00  0.00    +0.000 N 
ATOM      4  H   UNL     1       2.740   6.784  19.828  0.00  0.00    +0.000 HD
ENDROOT
BRANCH   1   8
ATOM      5  C   UNL     1       0.378  10.368  21.807  0.00  0.00    +0.000 A 
ATOM      6  C   UNL     1       0.709   9.044  22.028  0.00  0.00    +0.000 A 
ATOM      7  C   UNL     1       1.274   8.320  20.977  0.00  0.00    +0.000 A 
ATOM      8  C   UNL     1       1.468   8.968  19.763  0.00  0.00    +0.000 A 
ATOM      9  N   UNL     1       1.130  10.267  19.578  0.00  0.00    +0.000 NA
ATOM     10  N   UNL     1       0.584  10.972  20.614  0.00  0.00    +0.000 NA
BRANCH   5  12
ATOM     11  C   UNL     1      -1.524  11.496  22.552  0.00  0.00    +0.000 C 
ATOM     12  O   UNL     1      -0.195  11.068  22.849  0.00  0.00    +0.000 OA
ENDBRANCH   5  12
ENDBRANCH   1   8
BRANCH   3  13
ATOM     13  C   UNL     1       3.318   6.239  17.830  0.00  0.00    +0.000 C 
BRANCH  13  14
ATOM     14  C   UNL     1       3.304   4.740  18.155  0.00  0.00    +0.000 C 
ATOM     15  C   UNL     1       2.030   4.045  17.662  0.00  0.00    +0.000 C 
ATOM     16  C   UNL     1       2.370   2.565  17.729  0.00  0.00    +0.000 C 
ATOM     17  C   UNL     1       3.870   2.478  17.482  0.00  0.00    +0.000 C 
ATOM     18  C   UNL     1       4.400   3.915  17.442  0.00  0.00    +0.000 C 
BRANCH  18  19
ATOM     19  N   UNL     1       5.708   4.045  18.111  0.00  0.00    +0.000 NA
ATOM     20  H   UNL     1       6.053   3.204  18.581  0.00  0.00    +0.000 HD
BRANCH  19  21
ATOM     21  S   UNL     1       7.004   4.803  17.329  0.00  0.00    +0.000 S 
ATOM     22  C   UNL     1       6.675   4.494  15.607  0.00  0.00    +0.000 C 
ATOM     23  O   UNL     1       6.816   6.218  17.579  0.00  0.00    +0.000 OA
ATOM     24  O   UNL     1       8.230   4.139  17.692  0.00  0.00    +0.000 OA
ENDBRANCH  19  21
ENDBRANCH  18  19
ENDBRANCH  13  14
ENDBRANCH   3  13
TORSDOF 6
ENDMDL
MODEL 6
REMARK VINA RESULT:      -7.3      3.599      7.983
REMARK  Name = 
REMARK  8 active torsions:
REMARK  status: ('A' for Active; 'I' for Inactive)
REMARK    1  A    between atoms: C_1  and  O_2
REMARK    2  A    between atoms: O_2  and  C_3
REMARK    3  A    between atoms: C_6  and  C_7
REMARK    4  A    between atoms: N_9  and  C_10
REMARK    5  A    between atoms: C_10  and  C_11
REMARK    6  A    between atoms: C_15  and  N_16
REMARK    7  A    between atoms: N_16  and  S_17
REMARK    8  A    between atoms: S_17  and  C_18
REMARK                            x       y       z     vdW  Elec       q    Type
REMARK                         _______ _______ _______ _____ _____    ______ ____
ROOT
ATOM      1  C   UNL     1       1.771   8.721  18.695  0.00  0.00    +0.000 C 
ATOM      2  O   UNL     1       1.676   9.252  17.595  0.00  0.00    +0.000 OA
ATOM      3  N   UNL     1       2.445   7.530  18.922  0.00  0.00    +0.000 N 
ATOM      4  H   UNL     1       2.598   7.279  19.897  0.00  0.00    +0.000 HD
ENDROOT
BRANCH   1   8
ATOM      5  C   UNL     1       0.025  10.311  22.170  0.00  0.00    +0.000 A 
ATOM      6  C   UNL     1      -0.232  10.975  20.983  0.00  0.00    +0.000 A 
ATOM      7  C   UNL     1       0.338  10.474  19.812  0.00  0.00    +0.000 A 
ATOM      8  C   UNL     1       1.136   9.341  19.901  0.00  0.00    +0.000 A 
ATOM      9  N   UNL     1       1.370   8.716  21.080  0.00  0.00    +0.000 NA
ATOM     10  N   UNL     1       0.804   9.206  22.223  0.00  0.00    +0.000 NA
BRANCH   5  12
ATOM     11  C   UNL     1      -1.653  11.667  23.061  0.00  0.00    +0.000 C 
ATOM     12  O   UNL     1      -0.530  10.825  23.324  0.00  0.00    +0.000 OA
ENDBRANCH   5  12
ENDBRANCH   1   8
BRANCH   3  13
ATOM     13  C   UNL     1       3.152   6.805  17.874  0.00  0.00    +0.000 C 
BRANCH  13  14
ATOM     14  C   UNL     1       3.217   5.296  18.146  0.00  0.00    +0.000 C 
ATOM     15  C   UNL     1       1.905   4.581  17.804  0.00  0.00    +0.000 C 
ATOM     16  C   UNL     1       2.286   3.111  17.774  0.00  0.00    +0.000 C 
ATOM     17  C   UNL     1       3.741   3.073  17.326  0.00  0.00    +0.000 C 
ATOM     18  C   UNL     1       4.227   4.525  17.266  0.00  0.00    +0.000 C 
BRANCH  18  19
ATOM     19  N   UNL     1       5.609   4.670  17.758  0.00  0.00    +0.000 NA
ATOM     20  H   UNL     1       5.914   3.973  18.442  0.00  0.00    +0.000 HD
BRANCH  19  21
ATOM     21  S   UNL     1       6.880   4.969  16.680  0.00  0.00    +0.000 S 
ATOM     22  C   UNL     1       6.278   4.295  15.147  0.00  0.00    +0.000 C 
ATOM     23  O   UNL     1       6.932   6.411  16.552  0.00  0.00    +0.000 OA
ATOM     24  O   UNL     1       8.038   4.216  17.093  0.00  0.00    +0.000 OA
ENDBRANCH  19  21
ENDBRANCH  18  19
ENDBRANCH  13  14
ENDBRANCH   3  13
TORSDOF 6
ENDMDL
MODEL 7
REMARK VINA RESULT:      -7.3      3.918      8.056
REMARK  Name = 
REMARK  8 active torsions:
REMARK  status: ('A' for Active; 'I' for Inactive)
REMARK    1  A    between atoms: C_1  and  O_2
REMARK    2  A    between atoms: O_2  and  C_3
REMARK    3  A    between atoms: C_6  and  C_7
REMARK    4  A    between atoms: N_9  and  C_10
REMARK    5  A    between atoms: C_10  and  C_11
REMARK    6  A    between atoms: C_15  and  N_16
REMARK    7  A    between atoms: N_16  and  S_17
REMARK    8  A    between atoms: S_17  and  C_18
REMARK                            x       y       z     vdW  Elec       q    Type
REMARK                         _______ _______ _______ _____ _____    ______ ____
ROOT
ATOM      1  C   UNL     1       1.749   8.877  18.901  0.00  0.00    +0.000 C 
ATOM      2  O   UNL     1       1.821   9.561  17.886  0.00  0.00    +0.000 OA
ATOM      3  N   UNL     1       2.294   7.607  19.016  0.00  0.00    +0.000 N 
ATOM      4  H   UNL     1       2.316   7.211  19.954  0.00  0.00    +0.000 HD
ENDROOT
BRANCH   1   8
ATOM      5  C   UNL     1      -0.213  10.471  22.257  0.00  0.00    +0.000 A 
ATOM      6  C   UNL     1       0.068   9.117  22.283  0.00  0.00    +0.000 A 
ATOM      7  C   UNL     1       0.715   8.555  21.182  0.00  0.00    +0.000 A 
ATOM      8  C   UNL     1       1.037   9.385  20.115  0.00  0.00    +0.000 A 
ATOM      9  N   UNL     1       0.744  10.709  20.119  0.00  0.00    +0.000 NA
ATOM     10  N   UNL     1       0.117  11.253  21.204  0.00  0.00    +0.000 NA
BRANCH   5  12
ATOM     11  C   UNL     1      -1.955  11.853  22.963  0.00  0.00    +0.000 C 
ATOM     12  O   UNL     1      -0.868  11.011  23.344  0.00  0.00    +0.000 OA
ENDBRANCH   5  12
ENDBRANCH   1   8
BRANCH   3  13
ATOM     13  C   UNL     1       3.051   6.967  17.948  0.00  0.00    +0.000 C 
BRANCH  13  14
ATOM     14  C   UNL     1       3.185   5.451  18.150  0.00  0.00    +0.000 C 
ATOM     15  C   UNL     1       1.924   4.690  17.725  0.00  0.00    +0.000 C 
ATOM     16  C   UNL     1       2.381   3.244  17.639  0.00  0.00    +0.000 C 
ATOM     17  C   UNL     1       3.850   3.301  17.243  0.00  0.00    +0.000 C 
ATOM     18  C   UNL     1       4.263   4.777  17.271  0.00  0.00    +0.000 C 
BRANCH  18  19
ATOM     19  N   UNL     1       5.618   4.966  17.821  0.00  0.00    +0.000 NA
ATOM     20  H   UNL     1       5.975   4.200  18.398  0.00  0.00    +0.000 HD
BRANCH  19  21
ATOM     21  S   UNL     1       6.872   5.540  16.840  0.00  0.00    +0.000 S 
ATOM     22  C   UNL     1       7.474   6.954  17.739  0.00  0.00    +0.000 C 
ATOM     23  O   UNL     1       7.888   4.508  16.887  0.00  0.00    +0.000 OA
ATOM     24  O   UNL     1       6.325   5.990  15.584  0.00  0.00    +0.000 OA
ENDBRANCH  19  21
ENDBRANCH  18  19
ENDBRANCH  13  14
ENDBRANCH   3  13
TORSDOF 6
ENDMDL
MODEL 8
REMARK VINA RESULT:      -7.2      3.417      7.418
REMARK  Name = 
REMARK  8 active torsions:
REMARK  status: ('A' for Active; 'I' for Inactive)
REMARK    1  A    between atoms: C_1  and  O_2
REMARK    2  A    between atoms: O_2  and  C_3
REMARK    3  A    between atoms: C_6  and  C_7
REMARK    4  A    between atoms: N_9  and  C_10
REMARK    5  A    between atoms: C_10  and  C_11
REMARK    6  A    between atoms: C_15  and  N_16
REMARK    7  A    between atoms: N_16  and  S_17
REMARK    8  A    between atoms: S_17  and  C_18
REMARK                            x       y       z     vdW  Elec       q    Type
REMARK                         _______ _______ _______ _____ _____    ______ ____
ROOT
ATOM      1  C   UNL     1       2.756   7.825  17.959  0.00  0.00    +0.000 C 
ATOM      2  O   UNL     1       2.701   8.517  16.949  0.00  0.00    +0.000 OA
ATOM      3  N   UNL     1       3.467   6.637  18.043  0.00  0.00    +0.000 N 
ATOM      4  H   UNL     1       3.574   6.243  18.976  0.00  0.00    +0.000 HD
ENDROOT
BRANCH   1   8
ATOM      5  C   UNL     1       0.708   8.784  21.500  0.00  0.00    +0.000 A 
ATOM      6  C   UNL     1       0.734   9.753  20.513  0.00  0.00    +0.000 A 
ATOM      7  C   UNL     1       1.411   9.467  19.326  0.00  0.00    +0.000 A 
ATOM      8  C   UNL     1       2.026   8.228  19.202  0.00  0.00    +0.000 A 
ATOM      9  N   UNL     1       1.983   7.300  20.190  0.00  0.00    +0.000 NA
ATOM     10  N   UNL     1       1.313   7.584  21.347  0.00  0.00    +0.000 NA
BRANCH   5  12
ATOM     11  C   UNL     1      -0.682  10.307  22.592  0.00  0.00    +0.000 C 
ATOM     12  O   UNL     1       0.050   9.085  22.675  0.00  0.00    +0.000 OA
ENDBRANCH   5  12
ENDBRANCH   1   8
BRANCH   3  13
ATOM     13  C   UNL     1       4.264   6.108  16.943  0.00  0.00    +0.000 C 
BRANCH  13  14
ATOM     14  C   UNL     1       5.740   5.927  17.321  0.00  0.00    +0.000 C 
ATOM     15  C   UNL     1       6.492   7.261  17.397  0.00  0.00    +0.000 C 
ATOM     16  C   UNL     1       7.776   6.915  18.133  0.00  0.00    +0.000 C 
ATOM     17  C   UNL     1       7.416   5.769  19.068  0.00  0.00    +0.000 C 
ATOM     18  C   UNL     1       5.977   5.359  18.739  0.00  0.00    +0.000 C 
BRANCH  18  19
ATOM     19  N   UNL     1       5.791   3.897  18.784  0.00  0.00    +0.000 NA
ATOM     20  H   UNL     1       6.588   3.356  19.128  0.00  0.00    +0.000 HD
BRANCH  19  21
ATOM     21  S   UNL     1       4.368   3.229  19.411  0.00  0.00    +0.000 S 
ATOM     22  C   UNL     1       3.596   2.504  17.980  0.00  0.00    +0.000 C 
ATOM     23  O   UNL     1       4.808   2.156  20.280  0.00  0.00    +0.000 OA
ATOM     24  O   UNL     1       3.524   4.288  19.904  0.00  0.00    +0.000 OA
ENDBRANCH  19  21
ENDBRANCH  18  19
ENDBRANCH  13  14
ENDBRANCH   3  13
TORSDOF 6
ENDMDL
MODEL 9
REMARK VINA RESULT:      -7.2      3.387      7.374
REMARK  Name = 
REMARK  8 active torsions:
REMARK  status: ('A' for Active; 'I' for Inactive)
REMARK    1  A    between atoms: C_1  and  O_2
REMARK    2  A    between atoms: O_2  and  C_3
REMARK    3  A    between atoms: C_6  and  C_7
REMARK    4  A    between atoms: N_9  and  C_10
REMARK    5  A    between atoms: C_10  and  C_11
REMARK    6  A    between atoms: C_15  and  N_16
REMARK    7  A    between atoms: N_16  and  S_17
REMARK    8  A    between atoms: S_17  and  C_18
REMARK                            x       y       z     vdW  Elec       q    Type
REMARK                         _______ _______ _______ _____ _____    ______ ____
ROOT
ATOM      1  C   UNL     1       2.497   6.960  18.284  0.00  0.00    +0.000 C 
ATOM      2  O   UNL     1       1.814   6.054  17.820  0.00  0.00    +0.000 OA
ATOM      3  N   UNL     1       3.823   7.179  17.942  0.00  0.00    +0.000 N 
ATOM      4  H   UNL     1       4.230   8.056  18.263  0.00  0.00    +0.000 HD
ENDROOT
BRANCH   1   8
ATOM      5  C   UNL     1       0.910   9.762  20.982  0.00  0.00    +0.000 A 
ATOM      6  C   UNL     1       1.267   8.530  21.500  0.00  0.00    +0.000 A 
ATOM      7  C   UNL     1       1.792   7.575  20.629  0.00  0.00    +0.000 A 
ATOM      8  C   UNL     1       1.924   7.911  19.288  0.00  0.00    +0.000 A 
ATOM      9  N   UNL     1       1.563   9.127  18.811  0.00  0.00    +0.000 NA
ATOM     10  N   UNL     1       1.056  10.060  19.671  0.00  0.00    +0.000 NA
BRANCH   5  12
ATOM     11  C   UNL     1      -0.486  10.099  22.821  0.00  0.00    +0.000 C 
ATOM     12  O   UNL     1       0.377  10.692  21.850  0.00  0.00    +0.000 OA
ENDBRANCH   5  12
ENDBRANCH   1   8
BRANCH   3  13
ATOM     13  C   UNL     1       4.534   6.375  16.957  0.00  0.00    +0.000 C 
BRANCH  13  14
ATOM     14  C   UNL     1       5.989   6.101  17.362  0.00  0.00    +0.000 C 
ATOM     15  C   UNL     1       6.799   7.390  17.543  0.00  0.00    +0.000 C 
ATOM     16  C   UNL     1       8.043   6.939  18.289  0.00  0.00    +0.000 C 
ATOM     17  C   UNL     1       7.604   5.755  19.140  0.00  0.00    +0.000 C 
ATOM     18  C   UNL     1       6.158   5.434  18.746  0.00  0.00    +0.000 C 
BRANCH  18  19
ATOM     19  N   UNL     1       5.904   3.983  18.693  0.00  0.00    +0.000 NA
ATOM     20  H   UNL     1       6.693   3.383  18.946  0.00  0.00    +0.000 HD
BRANCH  19  21
ATOM     21  S   UNL     1       4.489   3.331  19.355  0.00  0.00    +0.000 S 
ATOM     22  C   UNL     1       3.645   2.667  17.935  0.00  0.00    +0.000 C 
ATOM     23  O   UNL     1       4.935   2.223  20.175  0.00  0.00    +0.000 OA
ATOM     24  O   UNL     1       3.692   4.396  19.911  0.00  0.00    +0.000 OA
ENDBRANCH  19  21
ENDBRANCH  18  19
ENDBRANCH  13  14
ENDBRANCH   3  13
TORSDOF 6
ENDMDL
