MODEL 1
REMARK VINA RESULT:      -7.3      0.000      0.000
REMARK  Name = 
REMARK  8 active torsions:
REMARK  status: ('A' for Active; 'I' for Inactive)
REMARK    1  A    between atoms: C_1  and  S_2
REMARK    2  A    between atoms: S_2  and  C_3
REMARK    3  A    between atoms: C_8  and  C_10
REMARK    4  A    between atoms: C_10  and  C_11
REMARK    5  A    between atoms: C_10  and  C_18
REMARK    6  A    between atoms: C_18  and  C_19
REMARK    7  A    between atoms: C_18  and  C_20
REMARK    8  A    between atoms: C_18  and  C_21
REMARK                            x       y       z     vdW  Elec       q    Type
REMARK                         _______ _______ _______ _____ _____    ______ ____
ROOT
ATOM      1  C   UNL     1       3.382   4.110  19.516  0.00  0.00    +0.000 C 
ENDROOT
BRANCH   1   7
ATOM      2  C   UNL     1       0.981   9.787  19.347  0.00  0.00    +0.000 A 
ATOM      3  C   UNL     1       0.918   9.232  20.610  0.00  0.00    +0.000 A 
ATOM      4  N   UNL     1       1.488   7.984  20.741  0.00  0.00    +0.000 NA
ATOM      5  C   UNL     1       2.019   7.636  19.598  0.00  0.00    +0.000 A 
ATOM      6  N   UNL     1       2.644   6.470  19.257  0.00  0.00    +0.000 N 
ATOM      7  C   UNL     1       2.665   5.367  20.073  0.00  0.00    +0.000 C 
ATOM      8  O   UNL     1       2.085   5.286  21.157  0.00  0.00    +0.000 OA
ATOM      9  S   UNL     1       1.906   8.767  18.327  0.00  0.00    +0.000 S 
ATOM     10  H   UNL     1       3.057   6.469  18.343  0.00  0.00    +0.000 HD
BRANCH   2  12
ATOM     11  C   UNL     1      -1.314  10.656  18.162  0.00  0.00    +0.000 C 
ATOM     12  S   UNL     1       0.260  11.287  18.802  0.00  0.00    +0.000 S 
ENDBRANCH   2  12
ENDBRANCH   1   7
BRANCH   1  13
ATOM     13  C   UNL     1       4.367   4.399  18.370  0.00  0.00    +0.000 A 
ATOM     14  C   UNL     1       3.978   4.464  17.019  0.00  0.00    +0.000 A 
ATOM     15  C   UNL     1       4.909   4.619  15.999  0.00  0.00    +0.000 A 
ATOM     16  C   UNL     1       6.259   4.715  16.296  0.00  0.00    +0.000 A 
ATOM     17 CL   UNL     1       7.403   4.836  15.023  0.00  0.00    +0.000 Cl
ATOM     18  C   UNL     1       6.678   4.689  17.624  0.00  0.00    +0.000 A 
ATOM     19  C   UNL     1       5.741   4.538  18.655  0.00  0.00    +0.000 A 
ENDBRANCH   1  13
BRANCH   1  20
ATOM     20  C   UNL     1       2.425   2.873  19.276  0.00  0.00    +0.000 C 
ATOM     21  C   UNL     1       3.221   1.720  18.617  0.00  0.00    +0.000 C 
ATOM     22  C   UNL     1       1.877   2.320  20.613  0.00  0.00    +0.000 C 
ATOM     23  C   UNL     1       1.204   3.189  18.398  0.00  0.00    +0.000 C 
ENDBRANCH   1  20
TORSDOF 4
ENDMDL
MODEL 2
REMARK VINA RESULT:      -7.1      1.840      2.339
REMARK  Name = 
REMARK  8 active torsions:
REMARK  status: ('A' for Active; 'I' for Inactive)
REMARK    1  A    between atoms: C_1  and  S_2
REMARK    2  A    between atoms: S_2  and  C_3
REMARK    3  A    between atoms: C_8  and  C_10
REMARK    4  A    between atoms: C_10  and  C_11
REMARK    5  A    between atoms: C_10  and  C_18
REMARK    6  A    between atoms: C_18  and  C_19
REMARK    7  A    between atoms: C_18  and  C_20
REMARK    8  A    between atoms: C_18  and  C_21
REMARK                            x       y       z     vdW  Elec       q    Type
REMARK                         _______ _______ _______ _____ _____    ______ ____
ROOT
ATOM      1  C   UNL     1       3.600   5.620  19.250  0.00  0.00    +0.000 C 
ENDROOT
BRANCH   1   7
ATOM      2  C   UNL     1       0.270  10.519  20.965  0.00  0.00    +0.000 A 
ATOM      3  C   UNL     1       0.321  10.378  19.592  0.00  0.00    +0.000 A 
ATOM      4  N   UNL     1       1.001   9.270  19.132  0.00  0.00    +0.000 NA
ATOM      5  C   UNL     1       1.406   8.564  20.155  0.00  0.00    +0.000 A 
ATOM      6  N   UNL     1       2.152   7.420  20.171  0.00  0.00    +0.000 N 
ATOM      7  C   UNL     1       2.753   6.903  19.050  0.00  0.00    +0.000 C 
ATOM      8  O   UNL     1       2.735   7.433  17.939  0.00  0.00    +0.000 OA
ATOM      9  S   UNL     1       0.982   9.145  21.701  0.00  0.00    +0.000 S 
ATOM     10  H   UNL     1       2.259   7.003  21.077  0.00  0.00    +0.000 HD
BRANCH   2  12
ATOM     11  C   UNL     1      -1.294  10.938  23.157  0.00  0.00    +0.000 C 
ATOM     12  S   UNL     1      -0.397  11.856  21.877  0.00  0.00    +0.000 S 
ENDBRANCH   2  12
ENDBRANCH   1   7
BRANCH   1  13
ATOM     13  C   UNL     1       4.611   5.347  18.123  0.00  0.00    +0.000 A 
ATOM     14  C   UNL     1       5.926   5.846  18.132  0.00  0.00    +0.000 A 
ATOM     15  C   UNL     1       6.780   5.672  17.049  0.00  0.00    +0.000 A 
ATOM     16  C   UNL     1       6.346   4.995  15.921  0.00  0.00    +0.000 A 
ATOM     17 CL   UNL     1       7.386   4.848  14.565  0.00  0.00    +0.000 Cl
ATOM     18  C   UNL     1       5.061   4.458  15.889  0.00  0.00    +0.000 A 
ATOM     19  C   UNL     1       4.200   4.626  16.982  0.00  0.00    +0.000 A 
ENDBRANCH   1  13
BRANCH   1  20
ATOM     20  C   UNL     1       2.764   4.361  19.716  0.00  0.00    +0.000 C 
ATOM     21  C   UNL     1       3.665   3.102  19.695  0.00  0.00    +0.000 C 
ATOM     22  C   UNL     1       2.269   4.522  21.173  0.00  0.00    +0.000 C 
ATOM     23  C   UNL     1       1.519   4.085  18.858  0.00  0.00    +0.000 C 
ENDBRANCH   1  20
TORSDOF 4
ENDMDL
MODEL 3
REMARK VINA RESULT:      -7.0      1.500      1.859
REMARK  Name = 
REMARK  8 active torsions:
REMARK  status: ('A' for Active; 'I' for Inactive)
REMARK    1  A    between atoms: C_1  and  S_2
REMARK    2  A    between atoms: S_2  and  C_3
REMARK    3  A    between atoms: C_8  and  C_10
REMARK    4  A    between atoms: C_10  and  C_11
REMARK    5  A    between atoms: C_10  and  C_18
REMARK    6  A    between atoms: C_18  and  C_19
REMARK    7  A    between atoms: C_18  and  C_20
REMARK    8  A    between atoms: C_18  and  C_21
REMARK                            x       y       z     vdW  Elec       q    Type
REMARK                         _______ _______ _______ _____ _____    ______ ____
ROOT
ATOM      1  C   UNL     1       3.441   4.607  19.438  0.00  0.00    +0.000 C 
ENDROOT
BRANCH   1   7
ATOM      2  C   UNL     1       0.262   9.771  20.557  0.00  0.00    +0.000 A 
ATOM      3  C   UNL     1       0.147   8.855  21.584  0.00  0.00    +0.000 A 
ATOM      4  N   UNL     1       0.877   7.696  21.433  0.00  0.00    +0.000 NA
ATOM      5  C   UNL     1       1.573   7.772  20.328  0.00  0.00    +0.000 A 
ATOM      6  N   UNL     1       2.395   6.840  19.762  0.00  0.00    +0.000 N 
ATOM      7  C   UNL     1       2.491   5.550  20.221  0.00  0.00    +0.000 C 
ATOM      8  O   UNL     1       1.818   5.081  21.139  0.00  0.00    +0.000 OA
ATOM      9  S   UNL     1       1.430   9.216  19.433  0.00  0.00    +0.000 S 
ATOM     10  H   UNL     1       2.899   7.161  18.957  0.00  0.00    +0.000 HD
BRANCH   2  12
ATOM     11  C   UNL     1      -0.938  11.220  18.585  0.00  0.00    +0.000 C 
ATOM     12  S   UNL     1      -0.610  11.277  20.366  0.00  0.00    +0.000 S 
ENDBRANCH   2  12
ENDBRANCH   1   7
BRANCH   1  13
ATOM     13  C   UNL     1       4.651   5.314  18.802  0.00  0.00    +0.000 A 
ATOM     14  C   UNL     1       5.963   5.186  19.295  0.00  0.00    +0.000 A 
ATOM     15  C   UNL     1       7.017   5.922  18.766  0.00  0.00    +0.000 A 
ATOM     16  C   UNL     1       6.793   6.810  17.727  0.00  0.00    +0.000 A 
ATOM     17 CL   UNL     1       8.089   7.763  17.130  0.00  0.00    +0.000 Cl
ATOM     18  C   UNL     1       5.514   6.940  17.191  0.00  0.00    +0.000 A 
ATOM     19  C   UNL     1       4.451   6.195  17.719  0.00  0.00    +0.000 A 
ENDBRANCH   1  13
BRANCH   1  20
ATOM     20  C   UNL     1       2.697   3.580  18.493  0.00  0.00    +0.000 C 
ATOM     21  C   UNL     1       3.706   2.975  17.486  0.00  0.00    +0.000 C 
ATOM     22  C   UNL     1       2.117   2.394  19.298  0.00  0.00    +0.000 C 
ATOM     23  C   UNL     1       1.526   4.190  17.705  0.00  0.00    +0.000 C 
ENDBRANCH   1  20
TORSDOF 4
ENDMDL
MODEL 4
REMARK VINA RESULT:      -7.0      0.264      1.058
REMARK  Name = 
REMARK  8 active torsions:
REMARK  status: ('A' for Active; 'I' for Inactive)
REMARK    1  A    between atoms: C_1  and  S_2
REMARK    2  A    between atoms: S_2  and  C_3
REMARK    3  A    between atoms: C_8  and  C_10
REMARK    4  A    between atoms: C_10  and  C_11
REMARK    5  A    between atoms: C_10  and  C_18
REMARK    6  A    between atoms: C_18  and  C_19
REMARK    7  A    between atoms: C_18  and  C_20
REMARK    8  A    between atoms: C_18  and  C_21
REMARK                            x       y       z     vdW  Elec       q    Type
REMARK                         _______ _______ _______ _____ _____    ______ ____
ROOT
ATOM      1  C   UNL     1       3.291   4.000  19.615  0.00  0.00    +0.000 C 
ENDROOT
BRANCH   1   7
ATOM      2  C   UNL     1       1.122   9.756  19.180  0.00  0.00    +0.000 A 
ATOM      3  C   UNL     1       1.042   9.265  20.468  0.00  0.00    +0.000 A 
ATOM      4  N   UNL     1       1.562   8.002  20.658  0.00  0.00    +0.000 NA
ATOM      5  C   UNL     1       2.073   7.579  19.531  0.00  0.00    +0.000 A 
ATOM      6  N   UNL     1       2.649   6.373  19.245  0.00  0.00    +0.000 N 
ATOM      7  C   UNL     1       2.628   5.310  20.113  0.00  0.00    +0.000 C 
ATOM      8  O   UNL     1       2.051   5.305  21.200  0.00  0.00    +0.000 OA
ATOM      9  S   UNL     1       2.000   8.651  18.208  0.00  0.00    +0.000 S 
ATOM     10  H   UNL     1       3.057   6.312  18.331  0.00  0.00    +0.000 HD
BRANCH   2  12
ATOM     11  C   UNL     1      -1.299  10.977  18.904  0.00  0.00    +0.000 C 
ATOM     12  S   UNL     1       0.460  11.256  18.566  0.00  0.00    +0.000 S 
ENDBRANCH   2  12
ENDBRANCH   1   7
BRANCH   1  13
ATOM     13  C   UNL     1       4.337   4.203  18.504  0.00  0.00    +0.000 A 
ATOM     14  C   UNL     1       5.699   4.441  18.765  0.00  0.00    +0.000 A 
ATOM     15  C   UNL     1       6.598   4.728  17.744  0.00  0.00    +0.000 A 
ATOM     16  C   UNL     1       6.164   4.785  16.430  0.00  0.00    +0.000 A 
ATOM     17 CL   UNL     1       7.269   5.207  15.187  0.00  0.00    +0.000 Cl
ATOM     18  C   UNL     1       4.829   4.521  16.130  0.00  0.00    +0.000 A 
ATOM     19  C   UNL     1       3.922   4.227  17.157  0.00  0.00    +0.000 A 
ENDBRANCH   1  13
BRANCH   1  20
ATOM     20  C   UNL     1       2.274   2.815  19.365  0.00  0.00    +0.000 C 
ATOM     21  C   UNL     1       3.009   1.631  18.692  0.00  0.00    +0.000 C 
ATOM     22  C   UNL     1       1.701   2.276  20.696  0.00  0.00    +0.000 C 
ATOM     23  C   UNL     1       1.068   3.201  18.492  0.00  0.00    +0.000 C 
ENDBRANCH   1  20
TORSDOF 4
ENDMDL
MODEL 5
REMARK VINA RESULT:      -7.0      1.767      2.302
REMARK  Name = 
REMARK  8 active torsions:
REMARK  status: ('A' for Active; 'I' for Inactive)
REMARK    1  A    between atoms: C_1  and  S_2
REMARK    2  A    between atoms: S_2  and  C_3
REMARK    3  A    between atoms: C_8  and  C_10
REMARK    4  A    between atoms: C_10  and  C_11
REMARK    5  A    between atoms: C_10  and  C_18
REMARK    6  A    between atoms: C_18  and  C_19
REMARK    7  A    between atoms: C_18  and  C_20
REMARK    8  A    between atoms: C_18  and  C_21
REMARK                            x       y       z     vdW  Elec       q    Type
REMARK                         _______ _______ _______ _____ _____    ______ ____
ROOT
ATOM      1  C   UNL     1       3.536   5.441  19.463  0.00  0.00    +0.000 C 
ENDROOT
BRANCH   1   7
ATOM      2  C   UNL     1       0.252  10.368  21.187  0.00  0.00    +0.000 A 
ATOM      3  C   UNL     1       0.291  10.221  19.815  0.00  0.00    +0.000 A 
ATOM      4  N   UNL     1       0.959   9.107  19.353  0.00  0.00    +0.000 NA
ATOM      5  C   UNL     1       1.369   8.402  20.375  0.00  0.00    +0.000 A 
ATOM      6  N   UNL     1       2.107   7.253  20.389  0.00  0.00    +0.000 N 
ATOM      7  C   UNL     1       2.696   6.729  19.265  0.00  0.00    +0.000 C 
ATOM      8  O   UNL     1       2.672   7.255  18.152  0.00  0.00    +0.000 OA
ATOM      9  S   UNL     1       0.962   8.992  21.923  0.00  0.00    +0.000 S 
ATOM     10  H   UNL     1       2.220   6.840  21.296  0.00  0.00    +0.000 HD
BRANCH   2  12
ATOM     11  C   UNL     1      -1.722  12.235  20.976  0.00  0.00    +0.000 C 
ATOM     12  S   UNL     1      -0.399  11.712  22.100  0.00  0.00    +0.000 S 
ENDBRANCH   2  12
ENDBRANCH   1   7
BRANCH   1  13
ATOM     13  C   UNL     1       4.555   5.172  18.341  0.00  0.00    +0.000 A 
ATOM     14  C   UNL     1       5.921   5.486  18.452  0.00  0.00    +0.000 A 
ATOM     15  C   UNL     1       6.795   5.331  17.382  0.00  0.00    +0.000 A 
ATOM     16  C   UNL     1       6.330   4.856  16.167  0.00  0.00    +0.000 A 
ATOM     17 CL   UNL     1       7.404   4.734  14.834  0.00  0.00    +0.000 Cl
ATOM     18  C   UNL     1       4.990   4.502  16.030  0.00  0.00    +0.000 A 
ATOM     19  C   UNL     1       4.108   4.653  17.109  0.00  0.00    +0.000 A 
ENDBRANCH   1  13
BRANCH   1  20
ATOM     20  C   UNL     1       2.692   4.182  19.914  0.00  0.00    +0.000 C 
ATOM     21  C   UNL     1       1.455   4.028  18.996  0.00  0.00    +0.000 C 
ATOM     22  C   UNL     1       3.510   2.877  19.769  0.00  0.00    +0.000 C 
ATOM     23  C   UNL     1       2.213   4.240  21.373  0.00  0.00    +0.000 C 
ENDBRANCH   1  20
TORSDOF 4
ENDMDL
MODEL 6
REMARK VINA RESULT:      -6.9      1.636      2.201
REMARK  Name = 
REMARK  8 active torsions:
REMARK  status: ('A' for Active; 'I' for Inactive)
REMARK    1  A    between atoms: C_1  and  S_2
REMARK    2  A    between atoms: S_2  and  C_3
REMARK    3  A    between atoms: C_8  and  C_10
REMARK    4  A    between atoms: C_10  and  C_11
REMARK    5  A    between atoms: C_10  and  C_18
REMARK    6  A    between atoms: C_18  and  C_19
REMARK    7  A    between atoms: C_18  and  C_20
REMARK    8  A    between atoms: C_18  and  C_21
REMARK                            x       y       z     vdW  Elec       q    Type
REMARK                         _______ _______ _______ _____ _____    ______ ____
ROOT
ATOM      1  C   UNL     1       3.333   4.576  19.467  0.00  0.00    +0.000 C 
ENDROOT
BRANCH   1   7
ATOM      2  C   UNL     1       0.287   9.816  20.603  0.00  0.00    +0.000 A 
ATOM      3  C   UNL     1       0.099   8.877  21.598  0.00  0.00    +0.000 A 
ATOM      4  N   UNL     1       0.796   7.698  21.444  0.00  0.00    +0.000 NA
ATOM      5  C   UNL     1       1.539   7.779  20.371  0.00  0.00    +0.000 A 
ATOM      6  N   UNL     1       2.352   6.834  19.812  0.00  0.00    +0.000 N 
ATOM      7  C   UNL     1       2.385   5.530  20.238  0.00  0.00    +0.000 C 
ATOM      8  O   UNL     1       1.659   5.061  21.115  0.00  0.00    +0.000 OA
ATOM      9  S   UNL     1       1.482   9.251  19.511  0.00  0.00    +0.000 S 
ATOM     10  H   UNL     1       2.899   7.160  19.037  0.00  0.00    +0.000 HD
BRANCH   2  12
ATOM     11  C   UNL     1       0.888  12.475  20.622  0.00  0.00    +0.000 C 
ATOM     12  S   UNL     1      -0.524  11.356  20.421  0.00  0.00    +0.000 S 
ENDBRANCH   2  12
ENDBRANCH   1   7
BRANCH   1  13
ATOM     13  C   UNL     1       4.541   5.275  18.815  0.00  0.00    +0.000 A 
ATOM     14  C   UNL     1       5.857   5.138  19.293  0.00  0.00    +0.000 A 
ATOM     15  C   UNL     1       6.909   5.867  18.750  0.00  0.00    +0.000 A 
ATOM     16  C   UNL     1       6.679   6.756  17.713  0.00  0.00    +0.000 A 
ATOM     17 CL   UNL     1       7.973   7.700  17.099  0.00  0.00    +0.000 Cl
ATOM     18  C   UNL     1       5.394   6.893  17.192  0.00  0.00    +0.000 A 
ATOM     19  C   UNL     1       4.333   6.155  17.734  0.00  0.00    +0.000 A 
ENDBRANCH   1  13
BRANCH   1  20
ATOM     20  C   UNL     1       2.589   3.533  18.541  0.00  0.00    +0.000 C 
ATOM     21  C   UNL     1       1.507   4.258  17.705  0.00  0.00    +0.000 C 
ATOM     22  C   UNL     1       3.563   2.883  17.530  0.00  0.00    +0.000 C 
ATOM     23  C   UNL     1       1.921   2.380  19.309  0.00  0.00    +0.000 C 
ENDBRANCH   1  20
TORSDOF 4
ENDMDL
MODEL 7
REMARK VINA RESULT:      -6.8      1.943      2.468
REMARK  Name = 
REMARK  8 active torsions:
REMARK  status: ('A' for Active; 'I' for Inactive)
REMARK    1  A    between atoms: C_1  and  S_2
REMARK    2  A    between atoms: S_2  and  C_3
REMARK    3  A    between atoms: C_8  and  C_10
REMARK    4  A    between atoms: C_10  and  C_11
REMARK    5  A    between atoms: C_10  and  C_18
REMARK    6  A    between atoms: C_18  and  C_19
REMARK    7  A    between atoms: C_18  and  C_20
REMARK    8  A    between atoms: C_18  and  C_21
REMARK                            x       y       z     vdW  Elec       q    Type
REMARK                         _______ _______ _______ _____ _____    ______ ____
ROOT
ATOM      1  C   UNL     1       3.442   5.842  19.118  0.00  0.00    +0.000 C 
ENDROOT
BRANCH   1   7
ATOM      2  C   UNL     1       0.157  10.663  21.117  0.00  0.00    +0.000 A 
ATOM      3  C   UNL     1      -0.021  10.434  19.766  0.00  0.00    +0.000 A 
ATOM      4  N   UNL     1       0.637   9.336  19.256  0.00  0.00    +0.000 NA
ATOM      5  C   UNL     1       1.257   8.720  20.230  0.00  0.00    +0.000 A 
ATOM      6  N   UNL     1       2.064   7.620  20.178  0.00  0.00    +0.000 N 
ATOM      7  C   UNL     1       2.494   7.063  18.999  0.00  0.00    +0.000 C 
ATOM      8  O   UNL     1       2.252   7.517  17.881  0.00  0.00    +0.000 OA
ATOM      9  S   UNL     1       1.070   9.379  21.791  0.00  0.00    +0.000 S 
ATOM     10  H   UNL     1       2.352   7.270  21.072  0.00  0.00    +0.000 HD
BRANCH   2  12
ATOM     11  C   UNL     1      -1.530  11.151  23.201  0.00  0.00    +0.000 C 
ATOM     12  S   UNL     1      -0.425  12.020  22.056  0.00  0.00    +0.000 S 
ENDBRANCH   2  12
ENDBRANCH   1   7
BRANCH   1  13
ATOM     13  C   UNL     1       4.366   5.637  17.904  0.00  0.00    +0.000 A 
ATOM     14  C   UNL     1       4.120   4.679  16.904  0.00  0.00    +0.000 A 
ATOM     15  C   UNL     1       5.029   4.444  15.879  0.00  0.00    +0.000 A 
ATOM     16  C   UNL     1       6.214   5.160  15.821  0.00  0.00    +0.000 A 
ATOM     17 CL   UNL     1       7.358   4.812  14.591  0.00  0.00    +0.000 Cl
ATOM     18  C   UNL     1       6.476   6.140  16.776  0.00  0.00    +0.000 A 
ATOM     19  C   UNL     1       5.558   6.383  17.807  0.00  0.00    +0.000 A 
ENDBRANCH   1  13
BRANCH   1  20
ATOM     20  C   UNL     1       2.739   4.528  19.650  0.00  0.00    +0.000 C 
ATOM     21  C   UNL     1       2.151   4.786  21.058  0.00  0.00    +0.000 C 
ATOM     22  C   UNL     1       1.551   4.121  18.746  0.00  0.00    +0.000 C 
ATOM     23  C   UNL     1       3.671   3.308  19.725  0.00  0.00    +0.000 C 
ENDBRANCH   1  20
TORSDOF 4
ENDMDL
MODEL 8
REMARK VINA RESULT:      -6.7      1.927      2.292
REMARK  Name = 
REMARK  8 active torsions:
REMARK  status: ('A' for Active; 'I' for Inactive)
REMARK    1  A    between atoms: C_1  and  S_2
REMARK    2  A    between atoms: S_2  and  C_3
REMARK    3  A    between atoms: C_8  and  C_10
REMARK    4  A    between atoms: C_10  and  C_11
REMARK    5  A    between atoms: C_10  and  C_18
REMARK    6  A    between atoms: C_18  and  C_19
REMARK    7  A    between atoms: C_18  and  C_20
REMARK    8  A    between atoms: C_18  and  C_21
REMARK                            x       y       z     vdW  Elec       q    Type
REMARK                         _______ _______ _______ _____ _____    ______ ____
ROOT
ATOM      1  C   UNL     1       3.507   5.813  19.210  0.00  0.00    +0.000 C 
ENDROOT
BRANCH   1   7
ATOM      2  C   UNL     1       0.045  10.446  21.349  0.00  0.00    +0.000 A 
ATOM      3  C   UNL     1      -0.024  10.335  19.974  0.00  0.00    +0.000 A 
ATOM      4  N   UNL     1       0.679   9.284  19.425  0.00  0.00    +0.000 NA
ATOM      5  C   UNL     1       1.223   8.586  20.388  0.00  0.00    +0.000 A 
ATOM      6  N   UNL     1       2.039   7.494  20.306  0.00  0.00    +0.000 N 
ATOM      7  C   UNL     1       2.564   7.041  19.122  0.00  0.00    +0.000 C 
ATOM      8  O   UNL     1       2.409   7.590  18.031  0.00  0.00    +0.000 OA
ATOM      9  S   UNL     1       0.909   9.107  21.981  0.00  0.00    +0.000 S 
ATOM     10  H   UNL     1       2.257   7.068  21.187  0.00  0.00    +0.000 HD
BRANCH   2  12
ATOM     11  C   UNL     1      -1.147  12.880  21.067  0.00  0.00    +0.000 C 
ATOM     12  S   UNL     1      -0.619  11.717  22.353  0.00  0.00    +0.000 S 
ENDBRANCH   2  12
ENDBRANCH   1   7
BRANCH   1  13
ATOM     13  C   UNL     1       4.442   5.644  17.999  0.00  0.00    +0.000 A 
ATOM     14  C   UNL     1       4.130   4.831  16.894  0.00  0.00    +0.000 A 
ATOM     15  C   UNL     1       5.042   4.614  15.868  0.00  0.00    +0.000 A 
ATOM     16  C   UNL     1       6.295   5.204  15.912  0.00  0.00    +0.000 A 
ATOM     17 CL   UNL     1       7.435   4.873  14.674  0.00  0.00    +0.000 Cl
ATOM     18  C   UNL     1       6.626   6.043  16.974  0.00  0.00    +0.000 A 
ATOM     19  C   UNL     1       5.707   6.267  18.008  0.00  0.00    +0.000 A 
ENDBRANCH   1  13
BRANCH   1  20
ATOM     20  C   UNL     1       2.795   4.485  19.692  0.00  0.00    +0.000 C 
ATOM     21  C   UNL     1       1.596   4.172  18.765  0.00  0.00    +0.000 C 
ATOM     22  C   UNL     1       3.750   3.271  19.600  0.00  0.00    +0.000 C 
ATOM     23  C   UNL     1       2.291   4.537  21.143  0.00  0.00    +0.000 C 
ENDBRANCH   1  20
TORSDOF 4
ENDMDL
MODEL 9
REMARK VINA RESULT:      -6.7      1.894      2.080
REMARK  Name = 
REMARK  8 active torsions:
REMARK  status: ('A' for Active; 'I' for Inactive)
REMARK    1  A    between atoms: C_1  and  S_2
REMARK    2  A    between atoms: S_2  and  C_3
REMARK    3  A    between atoms: C_8  and  C_10
REMARK    4  A    between atoms: C_10  and  C_11
REMARK    5  A    between atoms: C_10  and  C_18
REMARK    6  A    between atoms: C_18  and  C_19
REMARK    7  A    between atoms: C_18  and  C_20
REMARK    8  A    between atoms: C_18  and  C_21
REMARK                            x       y       z     vdW  Elec       q    Type
REMARK                         _______ _______ _______ _____ _____    ______ ____
ROOT
ATOM      1  C   UNL     1       3.337   5.599  19.683  0.00  0.00    +0.000 C 
ENDROOT
BRANCH   1   7
ATOM      2  C   UNL     1      -0.034  10.410  21.558  0.00  0.00    +0.000 A 
ATOM      3  C   UNL     1      -0.124  10.209  20.194  0.00  0.00    +0.000 A 
ATOM      4  N   UNL     1       0.557   9.115  19.706  0.00  0.00    +0.000 NA
ATOM      5  C   UNL     1       1.107   8.475  20.706  0.00  0.00    +0.000 A 
ATOM      6  N   UNL     1       1.907   7.369  20.685  0.00  0.00    +0.000 N 
ATOM      7  C   UNL     1       2.409   6.831  19.527  0.00  0.00    +0.000 C 
ATOM      8  O   UNL     1       2.245   7.309  18.404  0.00  0.00    +0.000 OA
ATOM      9  S   UNL     1       0.823   9.105  22.265  0.00  0.00    +0.000 S 
ATOM     10  H   UNL     1       2.133   7.000  21.590  0.00  0.00    +0.000 HD
BRANCH   2  12
ATOM     11  C   UNL     1      -1.297  12.788  21.134  0.00  0.00    +0.000 C 
ATOM     12  S   UNL     1      -0.666  11.754  22.483  0.00  0.00    +0.000 S 
ENDBRANCH   2  12
ENDBRANCH   1   7
BRANCH   1  13
ATOM     13  C   UNL     1       4.368   5.435  18.552  0.00  0.00    +0.000 A 
ATOM     14  C   UNL     1       4.013   5.106  17.230  0.00  0.00    +0.000 A 
ATOM     15  C   UNL     1       4.973   4.859  16.257  0.00  0.00    +0.000 A 
ATOM     16  C   UNL     1       6.320   4.932  16.573  0.00  0.00    +0.000 A 
ATOM     17 CL   UNL     1       7.495   4.556  15.380  0.00  0.00    +0.000 Cl
ATOM     18  C   UNL     1       6.710   5.287  17.862  0.00  0.00    +0.000 A 
ATOM     19  C   UNL     1       5.743   5.542  18.844  0.00  0.00    +0.000 A 
ENDBRANCH   1  13
BRANCH   1  20
ATOM     20  C   UNL     1       2.585   4.271  20.097  0.00  0.00    +0.000 C 
ATOM     21  C   UNL     1       3.487   3.048  19.803  0.00  0.00    +0.000 C 
ATOM     22  C   UNL     1       2.288   4.243  21.615  0.00  0.00    +0.000 C 
ATOM     23  C   UNL     1       1.239   4.067  19.383  0.00  0.00    +0.000 C 
ENDBRANCH   1  20
TORSDOF 4
ENDMDL
