MODEL 1
REMARK VINA RESULT:      -7.7      0.000      0.000
REMARK  Name = 
REMARK  15 active torsions:
REMARK  status: ('A' for Active; 'I' for Inactive)
REMARK    1  A    between atoms: C_1  and  C_2
REMARK    2  A    between atoms: N_4  and  C_5
REMARK    3  A    between atoms: C_6  and  O_7
REMARK    4  A    between atoms: C_9  and  C_10
REMARK    5  A    between atoms: C_10  and  O_12
REMARK    6  A    between atoms: C_14  and  C_15
REMARK    7  A    between atoms: C_15  and  O_16
REMARK    8  A    between atoms: C_15  and  C_17
REMARK    9  A    between atoms: C_17  and  O_18
REMARK   10  A    between atoms: C_17  and  C_19
REMARK   11  A    between atoms: C_19  and  N_20
REMARK   12  A    between atoms: C_22  and  C_23
REMARK   13  A    between atoms: C_26  and  N_27
REMARK   14  A    between atoms: N_27  and  C_28
REMARK   15  A    between atoms: N_27  and  C_29
REMARK                            x       y       z     vdW  Elec       q    Type
REMARK                         _______ _______ _______ _____ _____    ______ ____
ROOT
ATOM      1  C   UNL     1       3.073   7.311  18.921  0.00  0.00    +0.000 C 
ENDROOT
BRANCH   1   7
ATOM      2  C   UNL     1       4.517   5.145  18.927  0.00  0.00    +0.000 C 
ATOM      3  C   UNL     1       4.456   3.635  18.583  0.00  0.00    +0.000 C 
ATOM      4  C   UNL     1       3.156   3.025  18.966  0.00  0.00    +0.000 C 
ATOM      5  C   UNL     1       2.083   3.760  19.288  0.00  0.00    +0.000 C 
ATOM      6  O   UNL     1       2.066   5.144  19.289  0.00  0.00    +0.000 OA
ATOM      7  C   UNL     1       3.147   5.796  18.570  0.00  0.00    +0.000 C 
BRANCH   2  11
ATOM      8  C   UNL     1       8.001   6.479  18.153  0.00  0.00    +0.000 C 
ATOM      9  C   UNL     1       6.924   5.805  18.959  0.00  0.00    +0.000 C 
ATOM     10  O   UNL     1       7.135   5.298  20.056  0.00  0.00    +0.000 OA
ATOM     11  N   UNL     1       5.705   5.758  18.330  0.00  0.00    +0.000 N 
ATOM     12  H   UNL     1       5.677   5.967  17.338  0.00  0.00    +0.000 HD
ENDBRANCH   2  11
BRANCH   3  13
ATOM     13  O   UNL     1       5.498   2.929  19.260  0.00  0.00    +0.000 OA
ATOM     14  H   UNL     1       5.119   2.125  19.653  0.00  0.00    +0.000 HD
ENDBRANCH   3  13
BRANCH   5  15
ATOM     15  C   UNL     1       0.834   3.039  19.685  0.00  0.00    +0.000 C 
ATOM     16  O   UNL     1       0.049   2.518  18.914  0.00  0.00    +0.000 OA
BRANCH  15  17
ATOM     17  O   UNL     1       0.669   3.058  21.026  0.00  0.00    +0.000 OA
ATOM     18  H   UNL     1      -0.081   3.631  21.283  0.00  0.00    +0.000 HD
ENDBRANCH  15  17
ENDBRANCH   5  15
ENDBRANCH   1   7
BRANCH   1  19
ATOM     19  O   UNL     1       3.323   8.121  17.759  0.00  0.00    +0.000 OA
ATOM     20  H   UNL     1       2.496   8.621  17.592  0.00  0.00    +0.000 HD
ENDBRANCH   1  19
BRANCH   1  21
ATOM     21  C   UNL     1       1.717   7.804  19.496  0.00  0.00    +0.000 C 
BRANCH  21  22
ATOM     22  O   UNL     1       1.723   7.576  20.926  0.00  0.00    +0.000 OA
ATOM     23  H   UNL     1       2.458   8.062  21.339  0.00  0.00    +0.000 HD
ENDBRANCH  21  22
BRANCH  21  24
ATOM     24  C   UNL     1       1.274   9.246  19.224  0.00  0.00    +0.000 C 
BRANCH  24  25
ATOM     25  N   UNL     1       0.629   9.978  20.287  0.00  0.00    +0.000 N 
ATOM     26  C   UNL     1      -0.659  10.434  20.277  0.00  0.00    +0.000 A 
ATOM     27  C   UNL     1      -0.786  11.123  21.464  0.00  0.00    +0.000 A 
ATOM     28  N   UNL     1       0.395  11.025  22.154  0.00  0.00    +0.000 NA
ATOM     29  N   UNL     1       1.247  10.304  21.431  0.00  0.00    +0.000 NA
BRANCH  27  30
ATOM     30  C   UNL     1      -1.961  11.861  21.903  0.00  0.00    +0.000 A 
ATOM     31  C   UNL     1      -2.361  11.850  23.242  0.00  0.00    +0.000 A 
ATOM     32  C   UNL     1      -3.524  12.525  23.655  0.00  0.00    +0.000 A 
ATOM     33  C   UNL     1      -4.342  13.232  22.764  0.00  0.00    +0.000 A 
ATOM     34  C   UNL     1      -3.913  13.240  21.424  0.00  0.00    +0.000 A 
ATOM     35  C   UNL     1      -2.743  12.578  21.001  0.00  0.00    +0.000 A 
BRANCH  33  36
ATOM     36  N   UNL     1      -5.529  13.835  23.156  0.00  0.00    +0.000 N 
ATOM     37  C   UNL     1      -6.512  13.112  23.960  0.00  0.00    +0.000 C 
ATOM     38  C   UNL     1      -6.049  15.030  22.499  0.00  0.00    +0.000 C 
ENDBRANCH  33  36
ENDBRANCH  27  30
ENDBRANCH  24  25
ENDBRANCH  21  24
ENDBRANCH   1  21
TORSDOF 12
ENDMDL
MODEL 2
REMARK VINA RESULT:      -7.7      0.692      1.217
REMARK  Name = 
REMARK  15 active torsions:
REMARK  status: ('A' for Active; 'I' for Inactive)
REMARK    1  A    between atoms: C_1  and  C_2
REMARK    2  A    between atoms: N_4  and  C_5
REMARK    3  A    between atoms: C_6  and  O_7
REMARK    4  A    between atoms: C_9  and  C_10
REMARK    5  A    between atoms: C_10  and  O_12
REMARK    6  A    between atoms: C_14  and  C_15
REMARK    7  A    between atoms: C_15  and  O_16
REMARK    8  A    between atoms: C_15  and  C_17
REMARK    9  A    between atoms: C_17  and  O_18
REMARK   10  A    between atoms: C_17  and  C_19
REMARK   11  A    between atoms: C_19  and  N_20
REMARK   12  A    between atoms: C_22  and  C_23
REMARK   13  A    between atoms: C_26  and  N_27
REMARK   14  A    between atoms: N_27  and  C_28
REMARK   15  A    between atoms: N_27  and  C_29
REMARK                            x       y       z     vdW  Elec       q    Type
REMARK                         _______ _______ _______ _____ _____    ______ ____
ROOT
ATOM      1  C   UNL     1       2.884   7.450  18.985  0.00  0.00    +0.000 C 
ENDROOT
BRANCH   1   7
ATOM      2  C   UNL     1       4.442   5.371  18.838  0.00  0.00    +0.000 C 
ATOM      3  C   UNL     1       4.411   3.826  18.724  0.00  0.00    +0.000 C 
ATOM      4  C   UNL     1       3.332   3.225  19.552  0.00  0.00    +0.000 C 
ATOM      5  C   UNL     1       2.342   3.954  20.083  0.00  0.00    +0.000 C 
ATOM      6  O   UNL     1       2.211   5.321  19.911  0.00  0.00    +0.000 OA
ATOM      7  C   UNL     1       2.979   5.905  18.825  0.00  0.00    +0.000 C 
BRANCH   2  11
ATOM      8  C   UNL     1       7.419   6.768  16.914  0.00  0.00    +0.000 C 
ATOM      9  C   UNL     1       6.679   6.189  18.088  0.00  0.00    +0.000 C 
ATOM     10  O   UNL     1       7.228   5.916  19.150  0.00  0.00    +0.000 OA
ATOM     11  N   UNL     1       5.351   5.939  17.841  0.00  0.00    +0.000 N 
ATOM     12  H   UNL     1       5.040   5.951  16.876  0.00  0.00    +0.000 HD
ENDBRANCH   2  11
BRANCH   3  13
ATOM     13  O   UNL     1       5.659   3.271  19.144  0.00  0.00    +0.000 OA
ATOM     14  H   UNL     1       5.507   2.750  19.950  0.00  0.00    +0.000 HD
ENDBRANCH   3  13
BRANCH   5  15
ATOM     15  C   UNL     1       1.325   3.248  20.923  0.00  0.00    +0.000 C 
ATOM     16  O   UNL     1       1.489   2.900  22.078  0.00  0.00    +0.000 OA
BRANCH  15  17
ATOM     17  O   UNL     1       0.191   3.023  20.224  0.00  0.00    +0.000 OA
ATOM     18  H   UNL     1       0.247   3.402  19.324  0.00  0.00    +0.000 HD
ENDBRANCH  15  17
ENDBRANCH   5  15
ENDBRANCH   1   7
BRANCH   1  19
ATOM     19  O   UNL     1       2.830   8.098  17.703  0.00  0.00    +0.000 OA
ATOM     20  H   UNL     1       2.846   9.062  17.882  0.00  0.00    +0.000 HD
ENDBRANCH   1  19
BRANCH   1  21
ATOM     21  C   UNL     1       1.651   7.972  19.774  0.00  0.00    +0.000 C 
BRANCH  21  22
ATOM     22  O   UNL     1       1.876   7.718  21.183  0.00  0.00    +0.000 OA
ATOM     23  H   UNL     1       1.764   6.770  21.373  0.00  0.00    +0.000 HD
ENDBRANCH  21  22
BRANCH  21  24
ATOM     24  C   UNL     1       1.217   9.431  19.595  0.00  0.00    +0.000 C 
BRANCH  24  25
ATOM     25  N   UNL     1       0.500  10.071  20.672  0.00  0.00    +0.000 N 
ATOM     26  C   UNL     1      -0.761  10.589  20.596  0.00  0.00    +0.000 A 
ATOM     27  C   UNL     1      -0.977  11.146  21.838  0.00  0.00    +0.000 A 
ATOM     28  N   UNL     1       0.127  10.913  22.619  0.00  0.00    +0.000 NA
ATOM     29  N   UNL     1       1.016  10.235  21.898  0.00  0.00    +0.000 NA
BRANCH  27  30
ATOM     30  C   UNL     1      -2.159  11.888  22.250  0.00  0.00    +0.000 A 
ATOM     31  C   UNL     1      -2.890  12.648  21.332  0.00  0.00    +0.000 A 
ATOM     32  C   UNL     1      -4.004  13.402  21.742  0.00  0.00    +0.000 A 
ATOM     33  C   UNL     1      -4.438  13.444  23.074  0.00  0.00    +0.000 A 
ATOM     34  C   UNL     1      -3.695  12.663  23.977  0.00  0.00    +0.000 A 
ATOM     35  C   UNL     1      -2.585  11.892  23.576  0.00  0.00    +0.000 A 
BRANCH  33  36
ATOM     36  N   UNL     1      -5.490  14.247  23.493  0.00  0.00    +0.000 N 
ATOM     37  C   UNL     1      -6.801  13.677  23.792  0.00  0.00    +0.000 C 
ATOM     38  C   UNL     1      -5.492  15.693  23.291  0.00  0.00    +0.000 C 
ENDBRANCH  33  36
ENDBRANCH  27  30
ENDBRANCH  24  25
ENDBRANCH  21  24
ENDBRANCH   1  21
TORSDOF 12
ENDMDL
MODEL 3
REMARK VINA RESULT:      -7.7      1.361      1.573
REMARK  Name = 
REMARK  15 active torsions:
REMARK  status: ('A' for Active; 'I' for Inactive)
REMARK    1  A    between atoms: C_1  and  C_2
REMARK    2  A    between atoms: N_4  and  C_5
REMARK    3  A    between atoms: C_6  and  O_7
REMARK    4  A    between atoms: C_9  and  C_10
REMARK    5  A    between atoms: C_10  and  O_12
REMARK    6  A    between atoms: C_14  and  C_15
REMARK    7  A    between atoms: C_15  and  O_16
REMARK    8  A    between atoms: C_15  and  C_17
REMARK    9  A    between atoms: C_17  and  O_18
REMARK   10  A    between atoms: C_17  and  C_19
REMARK   11  A    between atoms: C_19  and  N_20
REMARK   12  A    between atoms: C_22  and  C_23
REMARK   13  A    between atoms: C_26  and  N_27
REMARK   14  A    between atoms: N_27  and  C_28
REMARK   15  A    between atoms: N_27  and  C_29
REMARK                            x       y       z     vdW  Elec       q    Type
REMARK                         _______ _______ _______ _____ _____    ______ ____
ROOT
ATOM      1  C   UNL     1       2.962   7.299  18.468  0.00  0.00    +0.000 C 
ENDROOT
BRANCH   1   7
ATOM      2  C   UNL     1       4.472   5.188  18.660  0.00  0.00    +0.000 C 
ATOM      3  C   UNL     1       4.488   3.666  18.368  0.00  0.00    +0.000 C 
ATOM      4  C   UNL     1       3.184   3.023  18.675  0.00  0.00    +0.000 C 
ATOM      5  C   UNL     1       2.066   3.729  18.890  0.00  0.00    +0.000 C 
ATOM      6  O   UNL     1       2.003   5.111  18.839  0.00  0.00    +0.000 OA
ATOM      7  C   UNL     1       3.112   5.776  18.179  0.00  0.00    +0.000 C 
BRANCH   2  11
ATOM      8  C   UNL     1       7.963   6.605  18.094  0.00  0.00    +0.000 C 
ATOM      9  C   UNL     1       6.853   5.917  18.840  0.00  0.00    +0.000 C 
ATOM     10  O   UNL     1       7.003   5.437  19.959  0.00  0.00    +0.000 OA
ATOM     11  N   UNL     1       5.681   5.822  18.132  0.00  0.00    +0.000 N 
ATOM     12  H   UNL     1       5.714   6.011  17.136  0.00  0.00    +0.000 HD
ENDBRANCH   2  11
BRANCH   3  13
ATOM     13  O   UNL     1       5.499   3.021  19.146  0.00  0.00    +0.000 OA
ATOM     14  H   UNL     1       5.726   3.599  19.893  0.00  0.00    +0.000 HD
ENDBRANCH   3  13
BRANCH   5  15
ATOM     15  C   UNL     1       0.815   2.978  19.219  0.00  0.00    +0.000 C 
ATOM     16  O   UNL     1       0.242   2.206  18.470  0.00  0.00    +0.000 OA
BRANCH  15  17
ATOM     17  O   UNL     1       0.379   3.283  20.460  0.00  0.00    +0.000 OA
ATOM     18  H   UNL     1       1.125   3.485  21.059  0.00  0.00    +0.000 HD
ENDBRANCH  15  17
ENDBRANCH   5  15
ENDBRANCH   1   7
BRANCH   1  19
ATOM     19  O   UNL     1       2.713   8.031  17.256  0.00  0.00    +0.000 OA
ATOM     20  H   UNL     1       2.784   7.381  16.525  0.00  0.00    +0.000 HD
ENDBRANCH   1  19
BRANCH   1  21
ATOM     21  C   UNL     1       1.815   7.690  19.441  0.00  0.00    +0.000 C 
BRANCH  21  22
ATOM     22  O   UNL     1       2.261   7.428  20.794  0.00  0.00    +0.000 OA
ATOM     23  H   UNL     1       3.062   7.945  20.988  0.00  0.00    +0.000 HD
ENDBRANCH  21  22
BRANCH  21  24
ATOM     24  C   UNL     1       1.234   9.106  19.373  0.00  0.00    +0.000 C 
BRANCH  24  25
ATOM     25  N   UNL     1       0.432   9.573  20.479  0.00  0.00    +0.000 N 
ATOM     26  C   UNL     1       0.014  10.857  20.679  0.00  0.00    +0.000 A 
ATOM     27  C   UNL     1      -0.650  10.817  21.886  0.00  0.00    +0.000 A 
ATOM     28  N   UNL     1      -0.645   9.525  22.343  0.00  0.00    +0.000 NA
ATOM     29  N   UNL     1       0.003   8.768  21.462  0.00  0.00    +0.000 NA
BRANCH  27  30
ATOM     30  C   UNL     1      -1.231  11.956  22.581  0.00  0.00    +0.000 A 
ATOM     31  C   UNL     1      -2.459  11.849  23.240  0.00  0.00    +0.000 A 
ATOM     32  C   UNL     1      -3.041  12.963  23.870  0.00  0.00    +0.000 A 
ATOM     33  C   UNL     1      -2.440  14.230  23.870  0.00  0.00    +0.000 A 
ATOM     34  C   UNL     1      -1.200  14.310  23.211  0.00  0.00    +0.000 A 
ATOM     35  C   UNL     1      -0.600  13.198  22.588  0.00  0.00    +0.000 A 
BRANCH  33  36
ATOM     36  N   UNL     1      -3.049  15.346  24.425  0.00  0.00    +0.000 N 
ATOM     37  C   UNL     1      -2.462  16.033  25.573  0.00  0.00    +0.000 C 
ATOM     38  C   UNL     1      -4.452  15.668  24.182  0.00  0.00    +0.000 C 
ENDBRANCH  33  36
ENDBRANCH  27  30
ENDBRANCH  24  25
ENDBRANCH  21  24
ENDBRANCH   1  21
TORSDOF 12
ENDMDL
MODEL 4
REMARK VINA RESULT:      -7.6      2.767      3.259
REMARK  Name = 
REMARK  15 active torsions:
REMARK  status: ('A' for Active; 'I' for Inactive)
REMARK    1  A    between atoms: C_1  and  C_2
REMARK    2  A    between atoms: N_4  and  C_5
REMARK    3  A    between atoms: C_6  and  O_7
REMARK    4  A    between atoms: C_9  and  C_10
REMARK    5  A    between atoms: C_10  and  O_12
REMARK    6  A    between atoms: C_14  and  C_15
REMARK    7  A    between atoms: C_15  and  O_16
REMARK    8  A    between atoms: C_15  and  C_17
REMARK    9  A    between atoms: C_17  and  O_18
REMARK   10  A    between atoms: C_17  and  C_19
REMARK   11  A    between atoms: C_19  and  N_20
REMARK   12  A    between atoms: C_22  and  C_23
REMARK   13  A    between atoms: C_26  and  N_27
REMARK   14  A    between atoms: N_27  and  C_28
REMARK   15  A    between atoms: N_27  and  C_29
REMARK                            x       y       z     vdW  Elec       q    Type
REMARK                         _______ _______ _______ _____ _____    ______ ____
ROOT
ATOM      1  C   UNL     1       3.423   6.440  18.194  0.00  0.00    +0.000 C 
ENDROOT
BRANCH   1   7
ATOM      2  C   UNL     1       3.948   3.944  17.676  0.00  0.00    +0.000 C 
ATOM      3  C   UNL     1       3.375   2.514  17.844  0.00  0.00    +0.000 C 
ATOM      4  C   UNL     1       2.723   2.324  19.165  0.00  0.00    +0.000 C 
ATOM      5  C   UNL     1       2.416   3.350  19.971  0.00  0.00    +0.000 C 
ATOM      6  O   UNL     1       2.660   4.676  19.661  0.00  0.00    +0.000 OA
ATOM      7  C   UNL     1       2.928   4.965  18.263  0.00  0.00    +0.000 C 
BRANCH   2  11
ATOM      8  C   UNL     1       5.879   4.504  14.439  0.00  0.00    +0.000 C 
ATOM      9  C   UNL     1       5.685   4.285  15.915  0.00  0.00    +0.000 C 
ATOM     10  O   UNL     1       6.622   4.168  16.698  0.00  0.00    +0.000 OA
ATOM     11  N   UNL     1       4.370   4.167  16.292  0.00  0.00    +0.000 N 
ATOM     12  H   UNL     1       3.681   4.020  15.562  0.00  0.00    +0.000 HD
ENDBRANCH   2  11
BRANCH   3  13
ATOM     13  O   UNL     1       4.416   1.544  17.715  0.00  0.00    +0.000 OA
ATOM     14  H   UNL     1       4.791   1.377  18.596  0.00  0.00    +0.000 HD
ENDBRANCH   3  13
BRANCH   5  15
ATOM     15  C   UNL     1       1.786   3.039  21.292  0.00  0.00    +0.000 C 
ATOM     16  O   UNL     1       2.368   3.027  22.362  0.00  0.00    +0.000 OA
BRANCH  15  17
ATOM     17  O   UNL     1       0.475   2.748  21.147  0.00  0.00    +0.000 OA
ATOM     18  H   UNL     1       0.161   2.964  20.246  0.00  0.00    +0.000 HD
ENDBRANCH  15  17
ENDBRANCH   5  15
ENDBRANCH   1   7
BRANCH   1  19
ATOM     19  O   UNL     1       3.842   6.780  16.861  0.00  0.00    +0.000 OA
ATOM     20  H   UNL     1       4.177   7.701  16.907  0.00  0.00    +0.000 HD
ENDBRANCH   1  19
BRANCH   1  21
ATOM     21  C   UNL     1       2.381   7.520  18.597  0.00  0.00    +0.000 C 
BRANCH  21  22
ATOM     22  O   UNL     1       2.387   7.637  20.041  0.00  0.00    +0.000 OA
ATOM     23  H   UNL     1       1.591   7.220  20.414  0.00  0.00    +0.000 HD
ENDBRANCH  21  22
BRANCH  21  24
ATOM     24  C   UNL     1       2.486   8.920  17.984  0.00  0.00    +0.000 C 
BRANCH  24  25
ATOM     25  N   UNL     1       1.433   9.870  18.256  0.00  0.00    +0.000 N 
ATOM     26  C   UNL     1       0.093   9.618  18.191  0.00  0.00    +0.000 A 
ATOM     27  C   UNL     1      -0.497  10.834  18.462  0.00  0.00    +0.000 A 
ATOM     28  N   UNL     1       0.491  11.751  18.715  0.00  0.00    +0.000 NA
ATOM     29  N   UNL     1       1.669  11.142  18.606  0.00  0.00    +0.000 NA
BRANCH  27  30
ATOM     30  C   UNL     1      -1.924  11.115  18.448  0.00  0.00    +0.000 A 
ATOM     31  C   UNL     1      -2.754  10.588  17.455  0.00  0.00    +0.000 A 
ATOM     32  C   UNL     1      -4.125  10.899  17.417  0.00  0.00    +0.000 A 
ATOM     33  C   UNL     1      -4.732  11.749  18.352  0.00  0.00    +0.000 A 
ATOM     34  C   UNL     1      -3.880  12.258  19.349  0.00  0.00    +0.000 A 
ATOM     35  C   UNL     1      -2.508  11.942  19.405  0.00  0.00    +0.000 A 
BRANCH  33  36
ATOM     36  N   UNL     1      -6.067  12.117  18.271  0.00  0.00    +0.000 N 
ATOM     37  C   UNL     1      -7.068  11.526  19.156  0.00  0.00    +0.000 C 
ATOM     38  C   UNL     1      -6.620  12.786  17.096  0.00  0.00    +0.000 C 
ENDBRANCH  33  36
ENDBRANCH  27  30
ENDBRANCH  24  25
ENDBRANCH  21  24
ENDBRANCH   1  21
TORSDOF 12
ENDMDL
MODEL 5
REMARK VINA RESULT:      -7.6      0.454      1.057
REMARK  Name = 
REMARK  15 active torsions:
REMARK  status: ('A' for Active; 'I' for Inactive)
REMARK    1  A    between atoms: C_1  and  C_2
REMARK    2  A    between atoms: N_4  and  C_5
REMARK    3  A    between atoms: C_6  and  O_7
REMARK    4  A    between atoms: C_9  and  C_10
REMARK    5  A    between atoms: C_10  and  O_12
REMARK    6  A    between atoms: C_14  and  C_15
REMARK    7  A    between atoms: C_15  and  O_16
REMARK    8  A    between atoms: C_15  and  C_17
REMARK    9  A    between atoms: C_17  and  O_18
REMARK   10  A    between atoms: C_17  and  C_19
REMARK   11  A    between atoms: C_19  and  N_20
REMARK   12  A    between atoms: C_22  and  C_23
REMARK   13  A    between atoms: C_26  and  N_27
REMARK   14  A    between atoms: N_27  and  C_28
REMARK   15  A    between atoms: N_27  and  C_29
REMARK                            x       y       z     vdW  Elec       q    Type
REMARK                         _______ _______ _______ _____ _____    ______ ____
ROOT
ATOM      1  C   UNL     1       3.027   7.344  18.896  0.00  0.00    +0.000 C 
ENDROOT
BRANCH   1   7
ATOM      2  C   UNL     1       4.489   5.192  18.860  0.00  0.00    +0.000 C 
ATOM      3  C   UNL     1       4.449   3.693  18.468  0.00  0.00    +0.000 C 
ATOM      4  C   UNL     1       3.148   3.061  18.807  0.00  0.00    +0.000 C 
ATOM      5  C   UNL     1       2.063   3.776  19.133  0.00  0.00    +0.000 C 
ATOM      6  O   UNL     1       2.033   5.159  19.177  0.00  0.00    +0.000 OA
ATOM      7  C   UNL     1       3.121   5.842  18.499  0.00  0.00    +0.000 C 
BRANCH   2  11
ATOM      8  C   UNL     1       7.974   6.581  18.194  0.00  0.00    +0.000 C 
ATOM      9  C   UNL     1       6.890   5.873  18.958  0.00  0.00    +0.000 C 
ATOM     10  O   UNL     1       7.084   5.335  20.044  0.00  0.00    +0.000 OA
ATOM     11  N   UNL     1       5.682   5.834  18.305  0.00  0.00    +0.000 N 
ATOM     12  H   UNL     1       5.671   6.072  17.319  0.00  0.00    +0.000 HD
ENDBRANCH   2  11
BRANCH   3  13
ATOM     13  O   UNL     1       5.485   2.975  19.141  0.00  0.00    +0.000 OA
ATOM     14  H   UNL     1       6.255   3.562  19.233  0.00  0.00    +0.000 HD
ENDBRANCH   3  13
BRANCH   5  15
ATOM     15  C   UNL     1       0.813   3.032  19.484  0.00  0.00    +0.000 C 
ATOM     16  O   UNL     1       0.285   2.181  18.792  0.00  0.00    +0.000 OA
BRANCH  15  17
ATOM     17  O   UNL     1       0.322   3.445  20.674  0.00  0.00    +0.000 OA
ATOM     18  H   UNL     1       0.283   2.708  21.316  0.00  0.00    +0.000 HD
ENDBRANCH  15  17
ENDBRANCH   5  15
ENDBRANCH   1   7
BRANCH   1  19
ATOM     19  O   UNL     1       3.250   8.193  17.756  0.00  0.00    +0.000 OA
ATOM     20  H   UNL     1       3.859   7.702  17.165  0.00  0.00    +0.000 HD
ENDBRANCH   1  19
BRANCH   1  21
ATOM     21  C   UNL     1       1.670   7.799  19.501  0.00  0.00    +0.000 C 
BRANCH  21  22
ATOM     22  O   UNL     1       1.742   7.643  20.939  0.00  0.00    +0.000 OA
ATOM     23  H   UNL     1       2.570   7.196  21.186  0.00  0.00    +0.000 HD
ENDBRANCH  21  22
BRANCH  21  24
ATOM     24  C   UNL     1       1.143   9.201  19.177  0.00  0.00    +0.000 C 
BRANCH  24  25
ATOM     25  N   UNL     1       0.573   9.984  20.247  0.00  0.00    +0.000 N 
ATOM     26  C   UNL     1      -0.714  10.438  20.308  0.00  0.00    +0.000 A 
ATOM     27  C   UNL     1      -0.758  11.184  21.466  0.00  0.00    +0.000 A 
ATOM     28  N   UNL     1       0.469  11.120  22.074  0.00  0.00    +0.000 NA
ATOM     29  N   UNL     1       1.270  10.365  21.327  0.00  0.00    +0.000 NA
BRANCH  27  30
ATOM     30  C   UNL     1      -1.902  11.942  21.952  0.00  0.00    +0.000 A 
ATOM     31  C   UNL     1      -2.537  12.888  21.142  0.00  0.00    +0.000 A 
ATOM     32  C   UNL     1      -3.611  13.653  21.630  0.00  0.00    +0.000 A 
ATOM     33  C   UNL     1      -4.097  13.523  22.938  0.00  0.00    +0.000 A 
ATOM     34  C   UNL     1      -3.451  12.557  23.730  0.00  0.00    +0.000 A 
ATOM     35  C   UNL     1      -2.382  11.775  23.248  0.00  0.00    +0.000 A 
BRANCH  33  36
ATOM     36  N   UNL     1      -5.106  14.330  23.445  0.00  0.00    +0.000 N 
ATOM     37  C   UNL     1      -4.807  15.634  24.029  0.00  0.00    +0.000 C 
ATOM     38  C   UNL     1      -6.426  13.804  23.785  0.00  0.00    +0.000 C 
ENDBRANCH  33  36
ENDBRANCH  27  30
ENDBRANCH  24  25
ENDBRANCH  21  24
ENDBRANCH   1  21
TORSDOF 12
ENDMDL
MODEL 6
REMARK VINA RESULT:      -7.5      2.605      4.400
REMARK  Name = 
REMARK  15 active torsions:
REMARK  status: ('A' for Active; 'I' for Inactive)
REMARK    1  A    between atoms: C_1  and  C_2
REMARK    2  A    between atoms: N_4  and  C_5
REMARK    3  A    between atoms: C_6  and  O_7
REMARK    4  A    between atoms: C_9  and  C_10
REMARK    5  A    between atoms: C_10  and  O_12
REMARK    6  A    between atoms: C_14  and  C_15
REMARK    7  A    between atoms: C_15  and  O_16
REMARK    8  A    between atoms: C_15  and  C_17
REMARK    9  A    between atoms: C_17  and  O_18
REMARK   10  A    between atoms: C_17  and  C_19
REMARK   11  A    between atoms: C_19  and  N_20
REMARK   12  A    between atoms: C_22  and  C_23
REMARK   13  A    between atoms: C_26  and  N_27
REMARK   14  A    between atoms: N_27  and  C_28
REMARK   15  A    between atoms: N_27  and  C_29
REMARK                            x       y       z     vdW  Elec       q    Type
REMARK                         _______ _______ _______ _____ _____    ______ ____
ROOT
ATOM      1  C   UNL     1       2.191   6.636  19.382  0.00  0.00    +0.000 C 
ENDROOT
BRANCH   1   7
ATOM      2  C   UNL     1       3.401   4.336  19.245  0.00  0.00    +0.000 C 
ATOM      3  C   UNL     1       4.789   3.699  18.982  0.00  0.00    +0.000 C 
ATOM      4  C   UNL     1       5.527   4.392  17.895  0.00  0.00    +0.000 C 
ATOM      5  C   UNL     1       5.154   5.588  17.421  0.00  0.00    +0.000 C 
ATOM      6  O   UNL     1       4.065   6.302  17.893  0.00  0.00    +0.000 OA
ATOM      7  C   UNL     1       3.541   5.886  19.182  0.00  0.00    +0.000 C 
BRANCH   2  11
ATOM      8  C   UNL     1       1.304   2.479  21.828  0.00  0.00    +0.000 C 
ATOM      9  C   UNL     1       1.741   2.918  20.458  0.00  0.00    +0.000 C 
ATOM     10  O   UNL     1       1.224   2.497  19.428  0.00  0.00    +0.000 OA
ATOM     11  N   UNL     1       2.807   3.784  20.464  0.00  0.00    +0.000 N 
ATOM     12  H   UNL     1       3.332   3.880  21.326  0.00  0.00    +0.000 HD
ENDBRANCH   2  11
BRANCH   3  13
ATOM     13  O   UNL     1       4.644   2.324  18.619  0.00  0.00    +0.000 OA
ATOM     14  H   UNL     1       5.473   2.027  18.208  0.00  0.00    +0.000 HD
ENDBRANCH   3  13
BRANCH   5  15
ATOM     15  C   UNL     1       5.955   6.181  16.305  0.00  0.00    +0.000 C 
ATOM     16  O   UNL     1       7.170   6.167  16.228  0.00  0.00    +0.000 OA
BRANCH  15  17
ATOM     17  O   UNL     1       5.151   6.763  15.388  0.00  0.00    +0.000 OA
ATOM     18  H   UNL     1       5.074   6.213  14.583  0.00  0.00    +0.000 HD
ENDBRANCH  15  17
ENDBRANCH   5  15
ENDBRANCH   1   7
BRANCH   1  19
ATOM     19  O   UNL     1       1.705   6.471  20.725  0.00  0.00    +0.000 OA
ATOM     20  H   UNL     1       1.045   7.182  20.867  0.00  0.00    +0.000 HD
ENDBRANCH   1  19
BRANCH   1  21
ATOM     21  C   UNL     1       2.228   8.170  19.133  0.00  0.00    +0.000 C 
BRANCH  21  22
ATOM     22  O   UNL     1       1.730   8.422  17.797  0.00  0.00    +0.000 OA
ATOM     23  H   UNL     1       0.769   8.573  17.821  0.00  0.00    +0.000 HD
ENDBRANCH  21  22
BRANCH  21  24
ATOM     24  C   UNL     1       1.511   9.100  20.116  0.00  0.00    +0.000 C 
BRANCH  24  25
ATOM     25  N   UNL     1       0.607  10.093  19.587  0.00  0.00    +0.000 N 
ATOM     26  C   UNL     1      -0.752  10.093  19.724  0.00  0.00    +0.000 A 
ATOM     27  C   UNL     1      -1.169  11.187  18.997  0.00  0.00    +0.000 A 
ATOM     28  N   UNL     1      -0.064  11.821  18.490  0.00  0.00    +0.000 NA
ATOM     29  N   UNL     1       1.019  11.153  18.876  0.00  0.00    +0.000 NA
BRANCH  27  30
ATOM     30  C   UNL     1      -2.550  11.589  18.772  0.00  0.00    +0.000 A 
ATOM     31  C   UNL     1      -3.270  12.276  19.752  0.00  0.00    +0.000 A 
ATOM     32  C   UNL     1      -4.619  12.621  19.551  0.00  0.00    +0.000 A 
ATOM     33  C   UNL     1      -5.313  12.296  18.377  0.00  0.00    +0.000 A 
ATOM     34  C   UNL     1      -4.564  11.616  17.400  0.00  0.00    +0.000 A 
ATOM     35  C   UNL     1      -3.209  11.277  17.585  0.00  0.00    +0.000 A 
BRANCH  33  36
ATOM     36  N   UNL     1      -6.663  12.569  18.208  0.00  0.00    +0.000 N 
ATOM     37  C   UNL     1      -7.151  13.251  17.012  0.00  0.00    +0.000 C 
ATOM     38  C   UNL     1      -7.604  12.562  19.324  0.00  0.00    +0.000 C 
ENDBRANCH  33  36
ENDBRANCH  27  30
ENDBRANCH  24  25
ENDBRANCH  21  24
ENDBRANCH   1  21
TORSDOF 12
ENDMDL
MODEL 7
REMARK VINA RESULT:      -7.5      1.900      3.839
REMARK  Name = 
REMARK  15 active torsions:
REMARK  status: ('A' for Active; 'I' for Inactive)
REMARK    1  A    between atoms: C_1  and  C_2
REMARK    2  A    between atoms: N_4  and  C_5
REMARK    3  A    between atoms: C_6  and  O_7
REMARK    4  A    between atoms: C_9  and  C_10
REMARK    5  A    between atoms: C_10  and  O_12
REMARK    6  A    between atoms: C_14  and  C_15
REMARK    7  A    between atoms: C_15  and  O_16
REMARK    8  A    between atoms: C_15  and  C_17
REMARK    9  A    between atoms: C_17  and  O_18
REMARK   10  A    between atoms: C_17  and  C_19
REMARK   11  A    between atoms: C_19  and  N_20
REMARK   12  A    between atoms: C_22  and  C_23
REMARK   13  A    between atoms: C_26  and  N_27
REMARK   14  A    between atoms: N_27  and  C_28
REMARK   15  A    between atoms: N_27  and  C_29
REMARK                            x       y       z     vdW  Elec       q    Type
REMARK                         _______ _______ _______ _____ _____    ______ ____
ROOT
ATOM      1  C   UNL     1       2.550   6.461  17.950  0.00  0.00    +0.000 C 
ENDROOT
BRANCH   1   7
ATOM      2  C   UNL     1       3.872   4.464  18.969  0.00  0.00    +0.000 C 
ATOM      3  C   UNL     1       5.306   4.011  19.343  0.00  0.00    +0.000 C 
ATOM      4  C   UNL     1       6.309   4.436  18.333  0.00  0.00    +0.000 C 
ATOM      5  C   UNL     1       6.036   5.344  17.386  0.00  0.00    +0.000 C 
ATOM      6  O   UNL     1       4.815   5.983  17.256  0.00  0.00    +0.000 OA
ATOM      7  C   UNL     1       3.934   5.916  18.409  0.00  0.00    +0.000 C 
BRANCH   2  11
ATOM      8  C   UNL     1       1.364   3.066  21.475  0.00  0.00    +0.000 C 
ATOM      9  C   UNL     1       2.237   3.077  20.250  0.00  0.00    +0.000 C 
ATOM     10  O   UNL     1       2.335   2.115  19.495  0.00  0.00    +0.000 OA
ATOM     11  N   UNL     1       2.956   4.236  20.088  0.00  0.00    +0.000 N 
ATOM     12  H   UNL     1       3.013   4.870  20.878  0.00  0.00    +0.000 HD
ENDBRANCH   2  11
BRANCH   3  13
ATOM     13  O   UNL     1       5.363   2.588  19.460  0.00  0.00    +0.000 OA
ATOM     14  H   UNL     1       4.970   2.199  18.660  0.00  0.00    +0.000 HD
ENDBRANCH   3  13
BRANCH   5  15
ATOM     15  C   UNL     1       7.114   5.676  16.402  0.00  0.00    +0.000 C 
ATOM     16  O   UNL     1       7.519   4.932  15.527  0.00  0.00    +0.000 OA
BRANCH  15  17
ATOM     17  O   UNL     1       7.605   6.915  16.622  0.00  0.00    +0.000 OA
ATOM     18  H   UNL     1       7.152   7.580  16.066  0.00  0.00    +0.000 HD
ENDBRANCH  15  17
ENDBRANCH   5  15
ENDBRANCH   1   7
BRANCH   1  19
ATOM     19  O   UNL     1       1.600   5.391  17.801  0.00  0.00    +0.000 OA
ATOM     20  H   UNL     1       2.070   4.570  18.059  0.00  0.00    +0.000 HD
ENDBRANCH   1  19
BRANCH   1  21
ATOM     21  C   UNL     1       1.881   7.490  18.903  0.00  0.00    +0.000 C 
BRANCH  21  22
ATOM     22  O   UNL     1       2.450   7.318  20.224  0.00  0.00    +0.000 OA
ATOM     23  H   UNL     1       3.112   8.010  20.396  0.00  0.00    +0.000 HD
ENDBRANCH  21  22
BRANCH  21  24
ATOM     24  C   UNL     1       1.917   8.976  18.535  0.00  0.00    +0.000 C 
BRANCH  24  25
ATOM     25  N   UNL     1       0.765   9.789  18.848  0.00  0.00    +0.000 N 
ATOM     26  C   UNL     1       0.534  10.425  20.034  0.00  0.00    +0.000 A 
ATOM     27  C   UNL     1      -0.707  11.003  19.876  0.00  0.00    +0.000 A 
ATOM     28  N   UNL     1      -1.154  10.735  18.607  0.00  0.00    +0.000 NA
ATOM     29  N   UNL     1      -0.234  10.008  17.981  0.00  0.00    +0.000 NA
BRANCH  27  30
ATOM     30  C   UNL     1      -1.441  11.745  20.890  0.00  0.00    +0.000 A 
ATOM     31  C   UNL     1      -1.152  11.591  22.248  0.00  0.00    +0.000 A 
ATOM     32  C   UNL     1      -1.895  12.273  23.228  0.00  0.00    +0.000 A 
ATOM     33  C   UNL     1      -2.957  13.130  22.909  0.00  0.00    +0.000 A 
ATOM     34  C   UNL     1      -3.222  13.280  21.536  0.00  0.00    +0.000 A 
ATOM     35  C   UNL     1      -2.476  12.611  20.544  0.00  0.00    +0.000 A 
BRANCH  33  36
ATOM     36  N   UNL     1      -3.739  13.744  23.877  0.00  0.00    +0.000 N 
ATOM     37  C   UNL     1      -5.191  13.820  23.738  0.00  0.00    +0.000 C 
ATOM     38  C   UNL     1      -3.178  14.668  24.859  0.00  0.00    +0.000 C 
ENDBRANCH  33  36
ENDBRANCH  27  30
ENDBRANCH  24  25
ENDBRANCH  21  24
ENDBRANCH   1  21
TORSDOF 12
ENDMDL
MODEL 8
REMARK VINA RESULT:      -7.4      6.415      9.427
REMARK  Name = 
REMARK  15 active torsions:
REMARK  status: ('A' for Active; 'I' for Inactive)
REMARK    1  A    between atoms: C_1  and  C_2
REMARK    2  A    between atoms: N_4  and  C_5
REMARK    3  A    between atoms: C_6  and  O_7
REMARK    4  A    between atoms: C_9  and  C_10
REMARK    5  A    between atoms: C_10  and  O_12
REMARK    6  A    between atoms: C_14  and  C_15
REMARK    7  A    between atoms: C_15  and  O_16
REMARK    8  A    between atoms: C_15  and  C_17
REMARK    9  A    between atoms: C_17  and  O_18
REMARK   10  A    between atoms: C_17  and  C_19
REMARK   11  A    between atoms: C_19  and  N_20
REMARK   12  A    between atoms: C_22  and  C_23
REMARK   13  A    between atoms: C_26  and  N_27
REMARK   14  A    between atoms: N_27  and  C_28
REMARK   15  A    between atoms: N_27  and  C_29
REMARK                            x       y       z     vdW  Elec       q    Type
REMARK                         _______ _______ _______ _____ _____    ______ ____
ROOT
ATOM      1  C   UNL     1       6.780   5.514  18.355  0.00  0.00    +0.000 C 
ENDROOT
BRANCH   1   7
ATOM      2  C   UNL     1       4.824   4.065  17.433  0.00  0.00    +0.000 C 
ATOM      3  C   UNL     1       3.291   4.083  17.207  0.00  0.00    +0.000 C 
ATOM      4  C   UNL     1       2.567   4.726  18.333  0.00  0.00    +0.000 C 
ATOM      5  C   UNL     1       3.191   5.454  19.269  0.00  0.00    +0.000 C 
ATOM      6  O   UNL     1       4.554   5.692  19.281  0.00  0.00    +0.000 OA
ATOM      7  C   UNL     1       5.258   5.434  18.037  0.00  0.00    +0.000 C 
BRANCH   2  11
ATOM      8  C   UNL     1       6.331   3.766  13.946  0.00  0.00    +0.000 C 
ATOM      9  C   UNL     1       5.559   4.401  15.070  0.00  0.00    +0.000 C 
ATOM     10  O   UNL     1       5.061   5.519  14.987  0.00  0.00    +0.000 OA
ATOM     11  N   UNL     1       5.516   3.642  16.214  0.00  0.00    +0.000 N 
ATOM     12  H   UNL     1       6.158   2.860  16.287  0.00  0.00    +0.000 HD
ENDBRANCH   2  11
BRANCH   3  13
ATOM     13  O   UNL     1       2.796   2.750  17.059  0.00  0.00    +0.000 OA
ATOM     14  H   UNL     1       3.426   2.248  16.515  0.00  0.00    +0.000 HD
ENDBRANCH   3  13
BRANCH   5  15
ATOM     15  C   UNL     1       2.364   6.033  20.374  0.00  0.00    +0.000 C 
ATOM     16  O   UNL     1       1.841   7.133  20.357  0.00  0.00    +0.000 OA
BRANCH  15  17
ATOM     17  O   UNL     1       2.287   5.180  21.418  0.00  0.00    +0.000 OA
ATOM     18  H   UNL     1       2.915   4.437  21.317  0.00  0.00    +0.000 HD
ENDBRANCH  15  17
ENDBRANCH   5  15
ENDBRANCH   1   7
BRANCH   1  19
ATOM     19  O   UNL     1       7.414   4.238  18.161  0.00  0.00    +0.000 OA
ATOM     20  H   UNL     1       6.726   3.562  18.338  0.00  0.00    +0.000 HD
ENDBRANCH   1  19
BRANCH   1  21
ATOM     21  C   UNL     1       7.595   6.524  17.500  0.00  0.00    +0.000 C 
BRANCH  21  22
ATOM     22  O   UNL     1       7.695   5.998  16.154  0.00  0.00    +0.000 OA
ATOM     23  H   UNL     1       6.881   5.518  15.921  0.00  0.00    +0.000 HD
ENDBRANCH  21  22
BRANCH  21  24
ATOM     24  C   UNL     1       7.133   7.983  17.432  0.00  0.00    +0.000 C 
BRANCH  24  25
ATOM     25  N   UNL     1       7.984   9.000  18.003  0.00  0.00    +0.000 N 
ATOM     26  C   UNL     1       8.055  10.303  17.601  0.00  0.00    +0.000 A 
ATOM     27  C   UNL     1       9.044  10.851  18.389  0.00  0.00    +0.000 A 
ATOM     28  N   UNL     1       9.499   9.886  19.251  0.00  0.00    +0.000 NA
ATOM     29  N   UNL     1       8.827   8.763  19.019  0.00  0.00    +0.000 NA
BRANCH  27  30
ATOM     30  C   UNL     1       9.550  12.212  18.303  0.00  0.00    +0.000 A 
ATOM     31  C   UNL     1      10.838  12.475  17.828  0.00  0.00    +0.000 A 
ATOM     32  C   UNL     1      11.342  13.787  17.791  0.00  0.00    +0.000 A 
ATOM     33  C   UNL     1      10.600  14.893  18.228  0.00  0.00    +0.000 A 
ATOM     34  C   UNL     1       9.303  14.606  18.690  0.00  0.00    +0.000 A 
ATOM     35  C   UNL     1       8.782  13.297  18.719  0.00  0.00    +0.000 A 
BRANCH  33  36
ATOM     36  N   UNL     1      11.123  16.178  18.263  0.00  0.00    +0.000 N 
ATOM     37  C   UNL     1      10.840  17.078  19.378  0.00  0.00    +0.000 C 
ATOM     38  C   UNL     1      11.636  16.842  17.067  0.00  0.00    +0.000 C 
ENDBRANCH  33  36
ENDBRANCH  27  30
ENDBRANCH  24  25
ENDBRANCH  21  24
ENDBRANCH   1  21
TORSDOF 12
ENDMDL
MODEL 9
REMARK VINA RESULT:      -7.4      1.736      1.966
REMARK  Name = 
REMARK  15 active torsions:
REMARK  status: ('A' for Active; 'I' for Inactive)
REMARK    1  A    between atoms: C_1  and  C_2
REMARK    2  A    between atoms: N_4  and  C_5
REMARK    3  A    between atoms: C_6  and  O_7
REMARK    4  A    between atoms: C_9  and  C_10
REMARK    5  A    between atoms: C_10  and  O_12
REMARK    6  A    between atoms: C_14  and  C_15
REMARK    7  A    between atoms: C_15  and  O_16
REMARK    8  A    between atoms: C_15  and  C_17
REMARK    9  A    between atoms: C_17  and  O_18
REMARK   10  A    between atoms: C_17  and  C_19
REMARK   11  A    between atoms: C_19  and  N_20
REMARK   12  A    between atoms: C_22  and  C_23
REMARK   13  A    between atoms: C_26  and  N_27
REMARK   14  A    between atoms: N_27  and  C_28
REMARK   15  A    between atoms: N_27  and  C_29
REMARK                            x       y       z     vdW  Elec       q    Type
REMARK                         _______ _______ _______ _____ _____    ______ ____
ROOT
ATOM      1  C   UNL     1       2.612   7.252  19.270  0.00  0.00    +0.000 C 
ENDROOT
BRANCH   1   7
ATOM      2  C   UNL     1       3.781   5.185  18.204  0.00  0.00    +0.000 C 
ATOM      3  C   UNL     1       3.616   3.658  18.001  0.00  0.00    +0.000 C 
ATOM      4  C   UNL     1       3.060   2.990  19.206  0.00  0.00    +0.000 C 
ATOM      5  C   UNL     1       2.502   3.672  20.215  0.00  0.00    +0.000 C 
ATOM      6  O   UNL     1       2.375   5.050  20.239  0.00  0.00    +0.000 OA
ATOM      7  C   UNL     1       2.533   5.728  18.964  0.00  0.00    +0.000 C 
BRANCH   2  11
ATOM      8  C   UNL     1       5.481   6.733  15.166  0.00  0.00    +0.000 C 
ATOM      9  C   UNL     1       5.391   6.050  16.502  0.00  0.00    +0.000 C 
ATOM     10  O   UNL     1       6.379   5.669  17.123  0.00  0.00    +0.000 OA
ATOM     11  N   UNL     1       4.105   5.838  16.934  0.00  0.00    +0.000 N 
ATOM     12  H   UNL     1       3.356   5.947  16.258  0.00  0.00    +0.000 HD
ENDBRANCH   2  11
BRANCH   3  13
ATOM     13  O   UNL     1       4.877   3.058  17.698  0.00  0.00    +0.000 OA
ATOM     14  H   UNL     1       4.715   2.241  17.197  0.00  0.00    +0.000 HD
ENDBRANCH   3  13
BRANCH   5  15
ATOM     15  C   UNL     1       2.000   2.898  21.392  0.00  0.00    +0.000 C 
ATOM     16  O   UNL     1       2.699   2.413  22.264  0.00  0.00    +0.000 OA
BRANCH  15  17
ATOM     17  O   UNL     1       0.654   2.782  21.357  0.00  0.00    +0.000 OA
ATOM     18  H   UNL     1       0.271   3.312  20.630  0.00  0.00    +0.000 HD
ENDBRANCH  15  17
ENDBRANCH   5  15
ENDBRANCH   1   7
BRANCH   1  19
ATOM     19  O   UNL     1       2.553   8.024  18.058  0.00  0.00    +0.000 OA
ATOM     20  H   UNL     1       2.727   7.396  17.325  0.00  0.00    +0.000 HD
ENDBRANCH   1  19
BRANCH   1  21
ATOM     21  C   UNL     1       1.489   7.815  20.184  0.00  0.00    +0.000 C 
BRANCH  21  22
ATOM     22  O   UNL     1       1.766   7.404  21.545  0.00  0.00    +0.000 OA
ATOM     23  H   UNL     1       1.014   7.626  22.121  0.00  0.00    +0.000 HD
ENDBRANCH  21  22
BRANCH  21  24
ATOM     24  C   UNL     1       1.202   9.321  20.167  0.00  0.00    +0.000 C 
BRANCH  24  25
ATOM     25  N   UNL     1       0.531   9.904  21.305  0.00  0.00    +0.000 N 
ATOM     26  C   UNL     1      -0.392  10.910  21.260  0.00  0.00    +0.000 A 
ATOM     27  C   UNL     1      -0.684  11.165  22.582  0.00  0.00    +0.000 A 
ATOM     28  N   UNL     1       0.029  10.291  23.363  0.00  0.00    +0.000 NA
ATOM     29  N   UNL     1       0.754   9.510  22.567  0.00  0.00    +0.000 NA
BRANCH  27  30
ATOM     30  C   UNL     1      -1.572  12.206  23.077  0.00  0.00    +0.000 A 
ATOM     31  C   UNL     1      -2.910  11.933  23.375  0.00  0.00    +0.000 A 
ATOM     32  C   UNL     1      -3.778  12.951  23.807  0.00  0.00    +0.000 A 
ATOM     33  C   UNL     1      -3.363  14.282  23.957  0.00  0.00    +0.000 A 
ATOM     34  C   UNL     1      -2.010  14.531  23.664  0.00  0.00    +0.000 A 
ATOM     35  C   UNL     1      -1.128  13.516  23.243  0.00  0.00    +0.000 A 
BRANCH  33  36
ATOM     36  N   UNL     1      -4.236  15.301  24.310  0.00  0.00    +0.000 N 
ATOM     37  C   UNL     1      -5.593  15.352  23.772  0.00  0.00    +0.000 C 
ATOM     38  C   UNL     1      -3.772  16.555  24.896  0.00  0.00    +0.000 C 
ENDBRANCH  33  36
ENDBRANCH  27  30
ENDBRANCH  24  25
ENDBRANCH  21  24
ENDBRANCH   1  21
TORSDOF 12
ENDMDL
