MODEL 1
REMARK VINA RESULT:      -6.8      0.000      0.000
REMARK  Name = 
REMARK  9 active torsions:
REMARK  status: ('A' for Active; 'I' for Inactive)
REMARK    1  A    between atoms: C_1  and  C_2
REMARK    2  A    between atoms: C_4  and  C_5
REMARK    3  A    between atoms: C_5  and  S_6
REMARK    4  A    between atoms: S_6  and  N_9
REMARK    5  A    between atoms: C_12  and  C_13
REMARK    6  A    between atoms: C_13  and  O_14
REMARK    7  A    between atoms: C_18  and  N_19
REMARK    8  A    between atoms: N_19  and  C_20
REMARK    9  A    between atoms: N_19  and  C_21
REMARK                            x       y       z     vdW  Elec       q    Type
REMARK                         _______ _______ _______ _____ _____    ______ ____
ROOT
ATOM      1  C   UNL     1       3.418   6.862  17.439  0.00  0.00    +0.000 C 
ATOM      2  C   UNL     1       2.509   6.131  18.423  0.00  0.00    +0.000 C 
ATOM      3  C   UNL     1       2.833   6.520  19.875  0.00  0.00    +0.000 C 
ATOM      4  C   UNL     1       1.682   6.142  20.823  0.00  0.00    +0.000 C 
ATOM      5  C   UNL     1       1.369   4.641  20.684  0.00  0.00    +0.000 C 
ATOM      6  C   UNL     1       1.241   4.162  19.225  0.00  0.00    +0.000 C 
ATOM      7  C   UNL     1       2.429   4.576  18.311  0.00  0.00    +0.000 C 
ENDROOT
BRANCH   7   8
ATOM      8  N   UNL     1       3.715   3.939  18.683  0.00  0.00    +0.000 N 
ATOM      9  C   UNL     1       3.803   2.695  19.437  0.00  0.00    +0.000 C 
BRANCH   8  10
ATOM     10  C   UNL     1       4.800   4.112  17.809  0.00  0.00    +0.000 A 
ATOM     11  N   UNL     1       4.727   3.656  16.530  0.00  0.00    +0.000 NA
ATOM     12  C   UNL     1       5.770   3.850  15.697  0.00  0.00    +0.000 A 
ATOM     13  N   UNL     1       6.948   4.444  15.959  0.00  0.00    +0.000 NA
ATOM     14  C   UNL     1       6.990   4.883  17.224  0.00  0.00    +0.000 A 
ATOM     15  N   UNL     1       8.056   5.540  17.775  0.00  0.00    +0.000 N 
ATOM     16  C   UNL     1       7.775   5.880  19.071  0.00  0.00    +0.000 A 
ATOM     17  C   UNL     1       6.501   5.433  19.349  0.00  0.00    +0.000 A 
ATOM     18  C   UNL     1       5.998   4.773  18.186  0.00  0.00    +0.000 A 
ATOM     19  H   UNL     1       8.906   5.747  17.271  0.00  0.00    +0.000 HD
ENDBRANCH   8  10
ENDBRANCH   7   8
BRANCH   4  20
ATOM     20  C   UNL     1       0.402   6.979  20.616  0.00  0.00    +0.000 C 
BRANCH  20  21
ATOM     21  S   UNL     1       0.504   8.594  21.397  0.00  0.00    +0.000 S 
ATOM     22  O   UNL     1      -0.628   8.737  22.287  0.00  0.00    +0.000 OA
ATOM     23  O   UNL     1       1.856   8.837  21.858  0.00  0.00    +0.000 OA
BRANCH  21  24
ATOM     24  N   UNL     1       0.268   9.679  20.104  0.00  0.00    +0.000 NA
ATOM     25  C   UNL     1       1.349  10.664  19.839  0.00  0.00    +0.000 C 
ATOM     26  C   UNL     1       1.005  11.865  20.696  0.00  0.00    +0.000 C 
ATOM     27  C   UNL     1      -0.522  11.909  20.676  0.00  0.00    +0.000 C 
ATOM     28  C   UNL     1      -0.978  10.497  20.284  0.00  0.00    +0.000 C 
BRANCH  27  29
ATOM     29  C   UNL     1      -1.129  12.398  21.993  0.00  0.00    +0.000 C 
BRANCH  29  30
ATOM     30  O   UNL     1      -0.656  11.735  23.154  0.00  0.00    +0.000 OA
ATOM     31  H   UNL     1      -1.257  11.010  23.425  0.00  0.00    +0.000 HD
ENDBRANCH  29  30
ENDBRANCH  27  29
ENDBRANCH  21  24
ENDBRANCH  20  21
ENDBRANCH   4  20
TORSDOF 7
ENDMDL
MODEL 2
REMARK VINA RESULT:      -6.8      1.282      1.708
REMARK  Name = 
REMARK  9 active torsions:
REMARK  status: ('A' for Active; 'I' for Inactive)
REMARK    1  A    between atoms: C_1  and  C_2
REMARK    2  A    between atoms: C_4  and  C_5
REMARK    3  A    between atoms: C_5  and  S_6
REMARK    4  A    between atoms: S_6  and  N_9
REMARK    5  A    between atoms: C_12  and  C_13
REMARK    6  A    between atoms: C_13  and  O_14
REMARK    7  A    between atoms: C_18  and  N_19
REMARK    8  A    between atoms: N_19  and  C_20
REMARK    9  A    between atoms: N_19  and  C_21
REMARK                            x       y       z     vdW  Elec       q    Type
REMARK                         _______ _______ _______ _____ _____    ______ ____
ROOT
ATOM      1  C   UNL     1       3.598   6.903  17.305  0.00  0.00    +0.000 C 
ATOM      2  C   UNL     1       2.652   6.253  18.311  0.00  0.00    +0.000 C 
ATOM      3  C   UNL     1       2.999   6.670  19.750  0.00  0.00    +0.000 C 
ATOM      4  C   UNL     1       1.830   6.385  20.709  0.00  0.00    +0.000 C 
ATOM      5  C   UNL     1       1.438   4.898  20.617  0.00  0.00    +0.000 C 
ATOM      6  C   UNL     1       1.283   4.381  19.174  0.00  0.00    +0.000 C 
ATOM      7  C   UNL     1       2.490   4.703  18.248  0.00  0.00    +0.000 C 
ENDROOT
BRANCH   7   8
ATOM      8  N   UNL     1       3.740   4.010  18.641  0.00  0.00    +0.000 N 
ATOM      9  C   UNL     1       3.762   2.745  19.366  0.00  0.00    +0.000 C 
BRANCH   8  10
ATOM     10  C   UNL     1       4.857   4.164  17.803  0.00  0.00    +0.000 A 
ATOM     11  N   UNL     1       4.813   3.724  16.517  0.00  0.00    +0.000 NA
ATOM     12  C   UNL     1       5.886   3.899  15.720  0.00  0.00    +0.000 A 
ATOM     13  N   UNL     1       7.069   4.460  16.025  0.00  0.00    +0.000 NA
ATOM     14  C   UNL     1       7.083   4.885  17.295  0.00  0.00    +0.000 A 
ATOM     15  N   UNL     1       8.147   5.508  17.887  0.00  0.00    +0.000 N 
ATOM     16  C   UNL     1       7.834   5.842  19.177  0.00  0.00    +0.000 A 
ATOM     17  C   UNL     1       6.541   5.424  19.411  0.00  0.00    +0.000 A 
ATOM     18  C   UNL     1       6.059   4.790  18.225  0.00  0.00    +0.000 A 
ATOM     19  H   UNL     1       9.018   5.699  17.412  0.00  0.00    +0.000 HD
ENDBRANCH   8  10
ENDBRANCH   7   8
BRANCH   4  20
ATOM     20  C   UNL     1       0.597   7.282  20.475  0.00  0.00    +0.000 C 
BRANCH  20  21
ATOM     21  S   UNL     1       0.694   8.832  21.376  0.00  0.00    +0.000 S 
ATOM     22  O   UNL     1      -0.647   9.215  21.762  0.00  0.00    +0.000 OA
ATOM     23  O   UNL     1       1.766   8.773  22.351  0.00  0.00    +0.000 OA
BRANCH  21  24
ATOM     24  N   UNL     1       1.218   9.948  20.200  0.00  0.00    +0.000 NA
ATOM     25  C   UNL     1       0.877  11.378  20.420  0.00  0.00    +0.000 C 
ATOM     26  C   UNL     1      -0.474  11.566  19.761  0.00  0.00    +0.000 C 
ATOM     27  C   UNL     1      -0.424  10.645  18.543  0.00  0.00    +0.000 C 
ATOM     28  C   UNL     1       0.677   9.617  18.838  0.00  0.00    +0.000 C 
BRANCH  27  29
ATOM     29  C   UNL     1      -1.774  10.008  18.211  0.00  0.00    +0.000 C 
BRANCH  29  30
ATOM     30  O   UNL     1      -2.002   9.770  16.830  0.00  0.00    +0.000 OA
ATOM     31  H   UNL     1      -1.967   8.814  16.619  0.00  0.00    +0.000 HD
ENDBRANCH  29  30
ENDBRANCH  27  29
ENDBRANCH  21  24
ENDBRANCH  20  21
ENDBRANCH   4  20
TORSDOF 7
ENDMDL
MODEL 3
REMARK VINA RESULT:      -6.7      0.970      1.183
REMARK  Name = 
REMARK  9 active torsions:
REMARK  status: ('A' for Active; 'I' for Inactive)
REMARK    1  A    between atoms: C_1  and  C_2
REMARK    2  A    between atoms: C_4  and  C_5
REMARK    3  A    between atoms: C_5  and  S_6
REMARK    4  A    between atoms: S_6  and  N_9
REMARK    5  A    between atoms: C_12  and  C_13
REMARK    6  A    between atoms: C_13  and  O_14
REMARK    7  A    between atoms: C_18  and  N_19
REMARK    8  A    between atoms: N_19  and  C_20
REMARK    9  A    between atoms: N_19  and  C_21
REMARK                            x       y       z     vdW  Elec       q    Type
REMARK                         _______ _______ _______ _____ _____    ______ ____
ROOT
ATOM      1  C   UNL     1       3.667   6.883  17.397  0.00  0.00    +0.000 C 
ATOM      2  C   UNL     1       2.700   6.176  18.342  0.00  0.00    +0.000 C 
ATOM      3  C   UNL     1       3.024   6.496  19.811  0.00  0.00    +0.000 C 
ATOM      4  C   UNL     1       1.836   6.157  20.729  0.00  0.00    +0.000 C 
ATOM      5  C   UNL     1       1.437   4.683  20.534  0.00  0.00    +0.000 C 
ATOM      6  C   UNL     1       1.303   4.262  19.057  0.00  0.00    +0.000 C 
ATOM      7  C   UNL     1       2.528   4.634  18.175  0.00  0.00    +0.000 C 
ENDROOT
BRANCH   7   8
ATOM      8  N   UNL     1       3.767   3.908  18.544  0.00  0.00    +0.000 N 
ATOM      9  C   UNL     1       3.768   2.601  19.189  0.00  0.00    +0.000 C 
BRANCH   8  10
ATOM     10  C   UNL     1       4.898   4.104  17.733  0.00  0.00    +0.000 A 
ATOM     11  N   UNL     1       4.891   3.689  16.438  0.00  0.00    +0.000 NA
ATOM     12  C   UNL     1       5.976   3.905  15.667  0.00  0.00    +0.000 A 
ATOM     13  N   UNL     1       7.140   4.484  16.010  0.00  0.00    +0.000 NA
ATOM     14  C   UNL     1       7.117   4.883  17.289  0.00  0.00    +0.000 A 
ATOM     15  N   UNL     1       8.155   5.517  17.916  0.00  0.00    +0.000 N 
ATOM     16  C   UNL     1       7.807   5.816  19.206  0.00  0.00    +0.000 A 
ATOM     17  C   UNL     1       6.519   5.366  19.403  0.00  0.00    +0.000 A 
ATOM     18  C   UNL     1       6.076   4.747  18.194  0.00  0.00    +0.000 A 
ATOM     19  H   UNL     1       9.031   5.736  17.464  0.00  0.00    +0.000 HD
ENDBRANCH   8  10
ENDBRANCH   7   8
BRANCH   4  20
ATOM     20  C   UNL     1       0.613   7.077  20.534  0.00  0.00    +0.000 C 
BRANCH  20  21
ATOM     21  S   UNL     1       1.006   8.809  20.799  0.00  0.00    +0.000 S 
ATOM     22  O   UNL     1       1.572   8.946  22.124  0.00  0.00    +0.000 OA
ATOM     23  O   UNL     1       1.684   9.348  19.636  0.00  0.00    +0.000 OA
BRANCH  21  24
ATOM     24  N   UNL     1      -0.519   9.568  20.822  0.00  0.00    +0.000 NA
ATOM     25  C   UNL     1      -1.046  10.073  19.527  0.00  0.00    +0.000 C 
ATOM     26  C   UNL     1      -0.524  11.491  19.418  0.00  0.00    +0.000 C 
ATOM     27  C   UNL     1      -0.533  12.001  20.858  0.00  0.00    +0.000 C 
ATOM     28  C   UNL     1      -0.540  10.750  21.746  0.00  0.00    +0.000 C 
BRANCH  27  29
ATOM     29  C   UNL     1       0.620  12.958  21.166  0.00  0.00    +0.000 C 
BRANCH  29  30
ATOM     30  O   UNL     1       1.914  12.377  21.107  0.00  0.00    +0.000 OA
ATOM     31  H   UNL     1       1.907  11.451  21.427  0.00  0.00    +0.000 HD
ENDBRANCH  29  30
ENDBRANCH  27  29
ENDBRANCH  21  24
ENDBRANCH  20  21
ENDBRANCH   4  20
TORSDOF 7
ENDMDL
MODEL 4
REMARK VINA RESULT:      -6.6      3.260      9.305
REMARK  Name = 
REMARK  9 active torsions:
REMARK  status: ('A' for Active; 'I' for Inactive)
REMARK    1  A    between atoms: C_1  and  C_2
REMARK    2  A    between atoms: C_4  and  C_5
REMARK    3  A    between atoms: C_5  and  S_6
REMARK    4  A    between atoms: S_6  and  N_9
REMARK    5  A    between atoms: C_12  and  C_13
REMARK    6  A    between atoms: C_13  and  O_14
REMARK    7  A    between atoms: C_18  and  N_19
REMARK    8  A    between atoms: N_19  and  C_20
REMARK    9  A    between atoms: N_19  and  C_21
REMARK                            x       y       z     vdW  Elec       q    Type
REMARK                         _______ _______ _______ _____ _____    ______ ____
ROOT
ATOM      1  C   UNL     1      -0.533   8.757  21.718  0.00  0.00    +0.000 C 
ATOM      2  C   UNL     1       0.055   8.880  20.315  0.00  0.00    +0.000 C 
ATOM      3  C   UNL     1       1.591   8.796  20.345  0.00  0.00    +0.000 C 
ATOM      4  C   UNL     1       2.158   8.489  18.949  0.00  0.00    +0.000 C 
ATOM      5  C   UNL     1       1.658   9.544  17.944  0.00  0.00    +0.000 C 
ATOM      6  C   UNL     1       0.143   9.813  18.024  0.00  0.00    +0.000 C 
ATOM      7  C   UNL     1      -0.377  10.111  19.459  0.00  0.00    +0.000 C 
ENDROOT
BRANCH   7   8
ATOM      8  N   UNL     1       0.144  11.377  20.028  0.00  0.00    +0.000 N 
ATOM      9  C   UNL     1       1.028  12.278  19.299  0.00  0.00    +0.000 C 
BRANCH   8  10
ATOM     10  C   UNL     1      -0.670  12.057  20.949  0.00  0.00    +0.000 A 
ATOM     11  N   UNL     1      -0.160  12.465  22.141  0.00  0.00    +0.000 NA
ATOM     12  C   UNL     1      -0.949  13.136  23.005  0.00  0.00    +0.000 A 
ATOM     13  N   UNL     1      -2.245  13.467  22.865  0.00  0.00    +0.000 NA
ATOM     14  C   UNL     1      -2.719  13.054  21.683  0.00  0.00    +0.000 A 
ATOM     15  N   UNL     1      -4.002  13.259  21.254  0.00  0.00    +0.000 N 
ATOM     16  C   UNL     1      -4.161  12.743  19.995  0.00  0.00    +0.000 A 
ATOM     17  C   UNL     1      -2.952  12.201  19.614  0.00  0.00    +0.000 A 
ATOM     18  C   UNL     1      -2.030  12.372  20.692  0.00  0.00    +0.000 A 
ATOM     19  H   UNL     1      -4.703  13.739  21.798  0.00  0.00    +0.000 HD
ENDBRANCH   8  10
ENDBRANCH   7   8
BRANCH   4  20
ATOM     20  C   UNL     1       1.837   7.068  18.441  0.00  0.00    +0.000 C 
BRANCH  20  21
ATOM     21  S   UNL     1       2.401   5.790  19.571  0.00  0.00    +0.000 S 
ATOM     22  O   UNL     1       3.844   5.717  19.484  0.00  0.00    +0.000 OA
ATOM     23  O   UNL     1       1.733   5.929  20.850  0.00  0.00    +0.000 OA
BRANCH  21  24
ATOM     24  N   UNL     1       1.783   4.354  18.894  0.00  0.00    +0.000 NA
ATOM     25  C   UNL     1       0.968   3.482  19.779  0.00  0.00    +0.000 C 
ATOM     26  C   UNL     1       1.964   2.549  20.437  0.00  0.00    +0.000 C 
ATOM     27  C   UNL     1       3.015   2.306  19.355  0.00  0.00    +0.000 C 
ATOM     28  C   UNL     1       2.876   3.471  18.365  0.00  0.00    +0.000 C 
BRANCH  27  29
ATOM     29  C   UNL     1       4.430   2.149  19.911  0.00  0.00    +0.000 C 
BRANCH  29  30
ATOM     30  O   UNL     1       5.361   3.123  19.467  0.00  0.00    +0.000 OA
ATOM     31  H   UNL     1       6.158   2.708  19.076  0.00  0.00    +0.000 HD
ENDBRANCH  29  30
ENDBRANCH  27  29
ENDBRANCH  21  24
ENDBRANCH  20  21
ENDBRANCH   4  20
TORSDOF 7
ENDMDL
MODEL 5
REMARK VINA RESULT:      -6.6      1.526      2.455
REMARK  Name = 
REMARK  9 active torsions:
REMARK  status: ('A' for Active; 'I' for Inactive)
REMARK    1  A    between atoms: C_1  and  C_2
REMARK    2  A    between atoms: C_4  and  C_5
REMARK    3  A    between atoms: C_5  and  S_6
REMARK    4  A    between atoms: S_6  and  N_9
REMARK    5  A    between atoms: C_12  and  C_13
REMARK    6  A    between atoms: C_13  and  O_14
REMARK    7  A    between atoms: C_18  and  N_19
REMARK    8  A    between atoms: N_19  and  C_20
REMARK    9  A    between atoms: N_19  and  C_21
REMARK                            x       y       z     vdW  Elec       q    Type
REMARK                         _______ _______ _______ _____ _____    ______ ____
ROOT
ATOM      1  C   UNL     1       4.067   6.997  17.520  0.00  0.00    +0.000 C 
ATOM      2  C   UNL     1       3.000   6.327  18.381  0.00  0.00    +0.000 C 
ATOM      3  C   UNL     1       3.154   6.717  19.861  0.00  0.00    +0.000 C 
ATOM      4  C   UNL     1       1.870   6.413  20.653  0.00  0.00    +0.000 C 
ATOM      5  C   UNL     1       1.499   4.928  20.484  0.00  0.00    +0.000 C 
ATOM      6  C   UNL     1       1.535   4.438  19.023  0.00  0.00    +0.000 C 
ATOM      7  C   UNL     1       2.852   4.778  18.269  0.00  0.00    +0.000 C 
ENDROOT
BRANCH   7   8
ATOM      8  N   UNL     1       4.043   4.079  18.810  0.00  0.00    +0.000 N 
ATOM      9  C   UNL     1       4.037   2.677  19.207  0.00  0.00    +0.000 C 
BRANCH   8  10
ATOM     10  C   UNL     1       5.303   4.499  18.353  0.00  0.00    +0.000 A 
ATOM     11  N   UNL     1       6.199   5.043  19.220  0.00  0.00    +0.000 NA
ATOM     12  C   UNL     1       7.412   5.421  18.770  0.00  0.00    +0.000 A 
ATOM     13  N   UNL     1       7.893   5.354  17.516  0.00  0.00    +0.000 NA
ATOM     14  C   UNL     1       6.992   4.814  16.686  0.00  0.00    +0.000 A 
ATOM     15  N   UNL     1       7.203   4.606  15.350  0.00  0.00    +0.000 N 
ATOM     16  C   UNL     1       6.103   4.014  14.791  0.00  0.00    +0.000 A 
ATOM     17  C   UNL     1       5.173   3.838  15.793  0.00  0.00    +0.000 A 
ATOM     18  C   UNL     1       5.718   4.366  17.003  0.00  0.00    +0.000 A 
ATOM     19  H   UNL     1       8.061   4.847  14.876  0.00  0.00    +0.000 HD
ENDBRANCH   8  10
ENDBRANCH   7   8
BRANCH   4  20
ATOM     20  C   UNL     1       0.675   7.313  20.277  0.00  0.00    +0.000 C 
BRANCH  20  21
ATOM     21  S   UNL     1       0.600   8.806  21.271  0.00  0.00    +0.000 S 
ATOM     22  O   UNL     1      -0.793   9.130  21.495  0.00  0.00    +0.000 OA
ATOM     23  O   UNL     1       1.535   8.715  22.375  0.00  0.00    +0.000 OA
BRANCH  21  24
ATOM     24  N   UNL     1       1.236  10.006  20.242  0.00  0.00    +0.000 NA
ATOM     25  C   UNL     1       0.755  11.398  20.442  0.00  0.00    +0.000 C 
ATOM     26  C   UNL     1      -0.469  11.521  19.558  0.00  0.00    +0.000 C 
ATOM     27  C   UNL     1      -0.136  10.660  18.341  0.00  0.00    +0.000 C 
ATOM     28  C   UNL     1       0.971   9.699  18.797  0.00  0.00    +0.000 C 
BRANCH  27  29
ATOM     29  C   UNL     1      -1.354   9.946  17.753  0.00  0.00    +0.000 C 
BRANCH  29  30
ATOM     30  O   UNL     1      -1.913  10.562  16.603  0.00  0.00    +0.000 OA
ATOM     31  H   UNL     1      -1.420  11.370  16.352  0.00  0.00    +0.000 HD
ENDBRANCH  29  30
ENDBRANCH  27  29
ENDBRANCH  21  24
ENDBRANCH  20  21
ENDBRANCH   4  20
TORSDOF 7
ENDMDL
MODEL 6
REMARK VINA RESULT:      -6.6      3.340      9.088
REMARK  Name = 
REMARK  9 active torsions:
REMARK  status: ('A' for Active; 'I' for Inactive)
REMARK    1  A    between atoms: C_1  and  C_2
REMARK    2  A    between atoms: C_4  and  C_5
REMARK    3  A    between atoms: C_5  and  S_6
REMARK    4  A    between atoms: S_6  and  N_9
REMARK    5  A    between atoms: C_12  and  C_13
REMARK    6  A    between atoms: C_13  and  O_14
REMARK    7  A    between atoms: C_18  and  N_19
REMARK    8  A    between atoms: N_19  and  C_20
REMARK    9  A    between atoms: N_19  and  C_21
REMARK                            x       y       z     vdW  Elec       q    Type
REMARK                         _______ _______ _______ _____ _____    ______ ____
ROOT
ATOM      1  C   UNL     1      -0.346   8.598  21.674  0.00  0.00    +0.000 C 
ATOM      2  C   UNL     1       0.214   8.709  20.259  0.00  0.00    +0.000 C 
ATOM      3  C   UNL     1       1.751   8.653  20.263  0.00  0.00    +0.000 C 
ATOM      4  C   UNL     1       2.299   8.334  18.861  0.00  0.00    +0.000 C 
ATOM      5  C   UNL     1       1.762   9.363  17.850  0.00  0.00    +0.000 C 
ATOM      6  C   UNL     1       0.243   9.606  17.953  0.00  0.00    +0.000 C 
ATOM      7  C   UNL     1      -0.256   9.918  19.392  0.00  0.00    +0.000 C 
ENDROOT
BRANCH   7   8
ATOM      8  N   UNL     1       0.252  11.202  19.931  0.00  0.00    +0.000 N 
ATOM      9  C   UNL     1       1.114  12.103  19.176  0.00  0.00    +0.000 C 
BRANCH   8  10
ATOM     10  C   UNL     1      -0.562  11.887  20.849  0.00  0.00    +0.000 A 
ATOM     11  N   UNL     1      -0.060  12.273  22.052  0.00  0.00    +0.000 NA
ATOM     12  C   UNL     1      -0.849  12.949  22.913  0.00  0.00    +0.000 A 
ATOM     13  N   UNL     1      -2.137  13.304  22.760  0.00  0.00    +0.000 NA
ATOM     14  C   UNL     1      -2.602  12.912  21.567  0.00  0.00    +0.000 A 
ATOM     15  N   UNL     1      -3.876  13.144  21.124  0.00  0.00    +0.000 N 
ATOM     16  C   UNL     1      -4.028  12.644  19.858  0.00  0.00    +0.000 A 
ATOM     17  C   UNL     1      -2.824  12.085  19.487  0.00  0.00    +0.000 A 
ATOM     18  C   UNL     1      -1.912  12.228  20.578  0.00  0.00    +0.000 A 
ATOM     19  H   UNL     1      -4.576  13.631  21.665  0.00  0.00    +0.000 HD
ENDBRANCH   8  10
ENDBRANCH   7   8
BRANCH   4  20
ATOM     20  C   UNL     1       1.994   6.899  18.382  0.00  0.00    +0.000 C 
BRANCH  20  21
ATOM     21  S   UNL     1       3.458   5.859  18.353  0.00  0.00    +0.000 S 
ATOM     22  O   UNL     1       4.323   6.326  17.291  0.00  0.00    +0.000 OA
ATOM     23  O   UNL     1       3.959   5.670  19.700  0.00  0.00    +0.000 OA
BRANCH  21  24
ATOM     24  N   UNL     1       2.858   4.336  17.879  0.00  0.00    +0.000 NA
ATOM     25  C   UNL     1       1.395   4.110  18.014  0.00  0.00    +0.000 C 
ATOM     26  C   UNL     1       1.209   3.565  19.415  0.00  0.00    +0.000 C 
ATOM     27  C   UNL     1       2.457   2.716  19.651  0.00  0.00    +0.000 C 
ATOM     28  C   UNL     1       3.503   3.219  18.647  0.00  0.00    +0.000 C 
BRANCH  27  29
ATOM     29  C   UNL     1       2.944   2.748  21.101  0.00  0.00    +0.000 C 
BRANCH  29  30
ATOM     30  O   UNL     1       1.944   3.046  22.063  0.00  0.00    +0.000 OA
ATOM     31  H   UNL     1       2.021   2.471  22.852  0.00  0.00    +0.000 HD
ENDBRANCH  29  30
ENDBRANCH  27  29
ENDBRANCH  21  24
ENDBRANCH  20  21
ENDBRANCH   4  20
TORSDOF 7
ENDMDL
MODEL 7
REMARK VINA RESULT:      -6.6      0.673      1.700
REMARK  Name = 
REMARK  9 active torsions:
REMARK  status: ('A' for Active; 'I' for Inactive)
REMARK    1  A    between atoms: C_1  and  C_2
REMARK    2  A    between atoms: C_4  and  C_5
REMARK    3  A    between atoms: C_5  and  S_6
REMARK    4  A    between atoms: S_6  and  N_9
REMARK    5  A    between atoms: C_12  and  C_13
REMARK    6  A    between atoms: C_13  and  O_14
REMARK    7  A    between atoms: C_18  and  N_19
REMARK    8  A    between atoms: N_19  and  C_20
REMARK    9  A    between atoms: N_19  and  C_21
REMARK                            x       y       z     vdW  Elec       q    Type
REMARK                         _______ _______ _______ _____ _____    ______ ____
ROOT
ATOM      1  C   UNL     1       3.926   6.952  17.660  0.00  0.00    +0.000 C 
ATOM      2  C   UNL     1       2.892   6.200  18.493  0.00  0.00    +0.000 C 
ATOM      3  C   UNL     1       3.011   6.559  19.984  0.00  0.00    +0.000 C 
ATOM      4  C   UNL     1       1.740   6.161  20.755  0.00  0.00    +0.000 C 
ATOM      5  C   UNL     1       1.454   4.662  20.542  0.00  0.00    +0.000 C 
ATOM      6  C   UNL     1       1.531   4.215  19.069  0.00  0.00    +0.000 C 
ATOM      7  C   UNL     1       2.833   4.649  18.338  0.00  0.00    +0.000 C 
ENDROOT
BRANCH   7   8
ATOM      8  N   UNL     1       4.057   4.004  18.872  0.00  0.00    +0.000 N 
ATOM      9  C   UNL     1       4.118   2.600  19.259  0.00  0.00    +0.000 C 
BRANCH   8  10
ATOM     10  C   UNL     1       5.295   4.487  18.416  0.00  0.00    +0.000 A 
ATOM     11  N   UNL     1       6.157   5.082  19.283  0.00  0.00    +0.000 NA
ATOM     12  C   UNL     1       7.351   5.520  18.833  0.00  0.00    +0.000 A 
ATOM     13  N   UNL     1       7.839   5.471  17.581  0.00  0.00    +0.000 NA
ATOM     14  C   UNL     1       6.970   4.879  16.752  0.00  0.00    +0.000 A 
ATOM     15  N   UNL     1       7.196   4.674  15.418  0.00  0.00    +0.000 N 
ATOM     16  C   UNL     1       6.130   4.021  14.859  0.00  0.00    +0.000 A 
ATOM     17  C   UNL     1       5.207   3.803  15.860  0.00  0.00    +0.000 A 
ATOM     18  C   UNL     1       5.721   4.367  17.068  0.00  0.00    +0.000 A 
ATOM     19  H   UNL     1       8.041   4.957  14.945  0.00  0.00    +0.000 HD
ENDBRANCH   8  10
ENDBRANCH   7   8
BRANCH   4  20
ATOM     20  C   UNL     1       0.499   7.002  20.390  0.00  0.00    +0.000 C 
BRANCH  20  21
ATOM     21  S   UNL     1       0.391   8.517  21.348  0.00  0.00    +0.000 S 
ATOM     22  O   UNL     1      -0.777   8.431  22.199  0.00  0.00    +0.000 OA
ATOM     23  O   UNL     1       1.691   8.854  21.892  0.00  0.00    +0.000 OA
BRANCH  21  24
ATOM     24  N   UNL     1       0.072   9.711  20.175  0.00  0.00    +0.000 NA
ATOM     25  C   UNL     1       1.175  10.650  19.844  0.00  0.00    +0.000 C 
ATOM     26  C   UNL     1       1.019  11.799  20.819  0.00  0.00    +0.000 C 
ATOM     27  C   UNL     1      -0.493  11.932  20.996  0.00  0.00    +0.000 C 
ATOM     28  C   UNL     1      -1.086  10.583  20.567  0.00  0.00    +0.000 C 
BRANCH  27  29
ATOM     29  C   UNL     1      -0.901  12.352  22.409  0.00  0.00    +0.000 C 
BRANCH  29  30
ATOM     30  O   UNL     1      -1.429  11.310  23.215  0.00  0.00    +0.000 OA
ATOM     31  H   UNL     1      -1.278  10.430  22.811  0.00  0.00    +0.000 HD
ENDBRANCH  29  30
ENDBRANCH  27  29
ENDBRANCH  21  24
ENDBRANCH  20  21
ENDBRANCH   4  20
TORSDOF 7
ENDMDL
MODEL 8
REMARK VINA RESULT:      -6.6      3.492      8.223
REMARK  Name = 
REMARK  9 active torsions:
REMARK  status: ('A' for Active; 'I' for Inactive)
REMARK    1  A    between atoms: C_1  and  C_2
REMARK    2  A    between atoms: C_4  and  C_5
REMARK    3  A    between atoms: C_5  and  S_6
REMARK    4  A    between atoms: S_6  and  N_9
REMARK    5  A    between atoms: C_12  and  C_13
REMARK    6  A    between atoms: C_13  and  O_14
REMARK    7  A    between atoms: C_18  and  N_19
REMARK    8  A    between atoms: N_19  and  C_20
REMARK    9  A    between atoms: N_19  and  C_21
REMARK                            x       y       z     vdW  Elec       q    Type
REMARK                         _______ _______ _______ _____ _____    ______ ____
ROOT
ATOM      1  C   UNL     1       2.235   9.839  17.803  0.00  0.00    +0.000 C 
ATOM      2  C   UNL     1       2.206   8.694  18.811  0.00  0.00    +0.000 C 
ATOM      3  C   UNL     1       1.456   7.475  18.248  0.00  0.00    +0.000 C 
ATOM      4  C   UNL     1       1.782   6.202  19.049  0.00  0.00    +0.000 C 
ATOM      5  C   UNL     1       1.469   6.435  20.539  0.00  0.00    +0.000 C 
ATOM      6  C   UNL     1       2.030   7.758  21.096  0.00  0.00    +0.000 C 
ATOM      7  C   UNL     1       1.675   9.010  20.244  0.00  0.00    +0.000 C 
ENDROOT
BRANCH   7   8
ATOM      8  N   UNL     1       0.227   9.326  20.228  0.00  0.00    +0.000 N 
ATOM      9  C   UNL     1      -0.716   8.810  21.212  0.00  0.00    +0.000 C 
BRANCH   8  10
ATOM     10  C   UNL     1      -0.157  10.581  19.729  0.00  0.00    +0.000 A 
ATOM     11  N   UNL     1       0.279  11.720  20.332  0.00  0.00    +0.000 NA
ATOM     12  C   UNL     1      -0.080  12.917  19.827  0.00  0.00    +0.000 A 
ATOM     13  N   UNL     1      -0.866  13.172  18.766  0.00  0.00    +0.000 NA
ATOM     14  C   UNL     1      -1.278  12.034  18.192  0.00  0.00    +0.000 A 
ATOM     15  N   UNL     1      -2.078  11.978  17.084  0.00  0.00    +0.000 N 
ATOM     16  C   UNL     1      -2.295  10.672  16.731  0.00  0.00    +0.000 A 
ATOM     17  C   UNL     1      -1.614   9.882  17.632  0.00  0.00    +0.000 A 
ATOM     18  C   UNL     1      -0.981  10.738  18.584  0.00  0.00    +0.000 A 
ATOM     19  H   UNL     1      -2.429  12.794  16.605  0.00  0.00    +0.000 HD
ENDBRANCH   8  10
ENDBRANCH   7   8
BRANCH   4  20
ATOM     20  C   UNL     1       3.233   5.709  18.876  0.00  0.00    +0.000 C 
BRANCH  20  21
ATOM     21  S   UNL     1       3.383   4.450  17.604  0.00  0.00    +0.000 S 
ATOM     22  O   UNL     1       2.053   4.107  17.149  0.00  0.00    +0.000 OA
ATOM     23  O   UNL     1       4.426   4.815  16.665  0.00  0.00    +0.000 OA
BRANCH  21  24
ATOM     24  N   UNL     1       3.991   3.099  18.447  0.00  0.00    +0.000 NA
ATOM     25  C   UNL     1       3.409   1.773  18.114  0.00  0.00    +0.000 C 
ATOM     26  C   UNL     1       2.226   1.617  19.048  0.00  0.00    +0.000 C 
ATOM     27  C   UNL     1       2.678   2.304  20.336  0.00  0.00    +0.000 C 
ATOM     28  C   UNL     1       3.821   3.245  19.931  0.00  0.00    +0.000 C 
BRANCH  27  29
ATOM     29  C   UNL     1       1.541   3.013  21.073  0.00  0.00    +0.000 C 
BRANCH  29  30
ATOM     30  O   UNL     1       0.331   3.127  20.342  0.00  0.00    +0.000 OA
ATOM     31  H   UNL     1      -0.173   2.287  20.347  0.00  0.00    +0.000 HD
ENDBRANCH  29  30
ENDBRANCH  27  29
ENDBRANCH  21  24
ENDBRANCH  20  21
ENDBRANCH   4  20
TORSDOF 7
ENDMDL
MODEL 9
REMARK VINA RESULT:      -6.4      2.998      9.049
REMARK  Name = 
REMARK  9 active torsions:
REMARK  status: ('A' for Active; 'I' for Inactive)
REMARK    1  A    between atoms: C_1  and  C_2
REMARK    2  A    between atoms: C_4  and  C_5
REMARK    3  A    between atoms: C_5  and  S_6
REMARK    4  A    between atoms: S_6  and  N_9
REMARK    5  A    between atoms: C_12  and  C_13
REMARK    6  A    between atoms: C_13  and  O_14
REMARK    7  A    between atoms: C_18  and  N_19
REMARK    8  A    between atoms: N_19  and  C_20
REMARK    9  A    between atoms: N_19  and  C_21
REMARK                            x       y       z     vdW  Elec       q    Type
REMARK                         _______ _______ _______ _____ _____    ______ ____
ROOT
ATOM      1  C   UNL     1      -0.252   8.774  21.548  0.00  0.00    +0.000 C 
ATOM      2  C   UNL     1       0.374   8.716  20.158  0.00  0.00    +0.000 C 
ATOM      3  C   UNL     1       1.897   8.515  20.241  0.00  0.00    +0.000 C 
ATOM      4  C   UNL     1       2.468   8.032  18.896  0.00  0.00    +0.000 C 
ATOM      5  C   UNL     1       2.076   9.023  17.784  0.00  0.00    +0.000 C 
ATOM      6  C   UNL     1       0.586   9.415  17.794  0.00  0.00    +0.000 C 
ATOM      7  C   UNL     1       0.061   9.889  19.178  0.00  0.00    +0.000 C 
ENDROOT
BRANCH   7   8
ATOM      8  N   UNL     1       0.670  11.159  19.642  0.00  0.00    +0.000 N 
ATOM      9  C   UNL     1       1.610  11.934  18.842  0.00  0.00    +0.000 C 
BRANCH   8  10
ATOM     10  C   UNL     1      -0.092  11.967  20.502  0.00  0.00    +0.000 A 
ATOM     11  N   UNL     1       0.488  12.546  21.587  0.00  0.00    +0.000 NA
ATOM     12  C   UNL     1      -0.252  13.337  22.391  0.00  0.00    +0.000 A 
ATOM     13  N   UNL     1      -1.557  13.642  22.287  0.00  0.00    +0.000 NA
ATOM     14  C   UNL     1      -2.100  13.059  21.210  0.00  0.00    +0.000 A 
ATOM     15  N   UNL     1      -3.410  13.198  20.838  0.00  0.00    +0.000 N 
ATOM     16  C   UNL     1      -3.642  12.502  19.682  0.00  0.00    +0.000 A 
ATOM     17  C   UNL     1      -2.454  11.911  19.308  0.00  0.00    +0.000 A 
ATOM     18  C   UNL     1      -1.468  12.239  20.288  0.00  0.00    +0.000 A 
ATOM     19  H   UNL     1      -4.080  13.753  21.349  0.00  0.00    +0.000 HD
ENDBRANCH   8  10
ENDBRANCH   7   8
BRANCH   4  20
ATOM     20  C   UNL     1       2.044   6.599  18.515  0.00  0.00    +0.000 C 
BRANCH  20  21
ATOM     21  S   UNL     1       3.411   5.436  18.586  0.00  0.00    +0.000 S 
ATOM     22  O   UNL     1       4.255   5.800  19.703  0.00  0.00    +0.000 OA
ATOM     23  O   UNL     1       2.918   4.082  18.430  0.00  0.00    +0.000 OA
BRANCH  21  24
ATOM     24  N   UNL     1       4.289   5.761  17.163  0.00  0.00    +0.000 NA
ATOM     25  C   UNL     1       4.899   4.602  16.461  0.00  0.00    +0.000 C 
ATOM     26  C   UNL     1       6.273   4.446  17.079  0.00  0.00    +0.000 C 
ATOM     27  C   UNL     1       6.711   5.880  17.374  0.00  0.00    +0.000 C 
ATOM     28  C   UNL     1       5.423   6.713  17.413  0.00  0.00    +0.000 C 
BRANCH  27  29
ATOM     29  C   UNL     1       7.554   6.005  18.644  0.00  0.00    +0.000 C 
BRANCH  29  30
ATOM     30  O   UNL     1       7.029   5.336  19.780  0.00  0.00    +0.000 OA
ATOM     31  H   UNL     1       6.566   5.957  20.381  0.00  0.00    +0.000 HD
ENDBRANCH  29  30
ENDBRANCH  27  29
ENDBRANCH  21  24
ENDBRANCH  20  21
ENDBRANCH   4  20
TORSDOF 7
ENDMDL
