MODEL 1
REMARK VINA RESULT:      -9.2      0.000      0.000
REMARK  Name = 
REMARK  8 active torsions:
REMARK  status: ('A' for Active; 'I' for Inactive)
REMARK    1  A    between atoms: C_1  and  N_2
REMARK    2  A    between atoms: C_4  and  C_5
REMARK    3  A    between atoms: C_11  and  N_12
REMARK    4  A    between atoms: N_12  and  C_13
REMARK    5  A    between atoms: N_12  and  C_17
REMARK    6  A    between atoms: C_13  and  C_14
REMARK    7  A    between atoms: C_21  and  O_22
REMARK    8  A    between atoms: O_22  and  C_23
REMARK                            x       y       z     vdW  Elec       q    Type
REMARK                         _______ _______ _______ _____ _____    ______ ____
ROOT
ATOM      1  C   UNL     1       0.521  10.041  20.423  0.00  0.00    +0.000 A 
ATOM      2  C   UNL     1       0.827  10.701  19.223  0.00  0.00    +0.000 A 
ATOM      3  N   UNL     1       1.521  10.047  18.257  0.00  0.00    +0.000 NA
ATOM      4  C   UNL     1       1.976   8.783  18.451  0.00  0.00    +0.000 A 
ATOM      5  C   UNL     1       2.771   8.160  17.492  0.00  0.00    +0.000 A 
ATOM      6  C   UNL     1       3.328   6.906  17.765  0.00  0.00    +0.000 A 
ATOM      7  C   UNL     1       3.088   6.237  18.989  0.00  0.00    +0.000 A 
ATOM      8  C   UNL     1       2.233   6.862  19.924  0.00  0.00    +0.000 A 
ATOM      9  C   UNL     1       1.690   8.125  19.661  0.00  0.00    +0.000 A 
ATOM     10  N   UNL     1       0.942   8.760  20.602  0.00  0.00    +0.000 NA
ENDROOT
BRANCH   1  14
ATOM     11  C   UNL     1      -1.528  13.618  23.246  0.00  0.00    +0.000 C 
ATOM     12  N   UNL     1      -1.053  12.325  22.769  0.00  0.00    +0.000 N 
ATOM     13  C   UNL     1      -0.548  12.067  21.549  0.00  0.00    +0.000 A 
ATOM     14  C   UNL     1      -0.158  10.744  21.527  0.00  0.00    +0.000 A 
ATOM     15  C   UNL     1      -0.478  10.246  22.775  0.00  0.00    +0.000 A 
ATOM     16  N   UNL     1      -1.029  11.230  23.513  0.00  0.00    +0.000 NA
ENDBRANCH   1  14
BRANCH   7  17
ATOM     17  N   UNL     1       3.801   5.004  19.260  0.00  0.00    +0.000 N 
BRANCH  17  18
ATOM     18  C   UNL     1       5.065   4.803  18.589  0.00  0.00    +0.000 A 
ATOM     19  C   UNL     1       6.285   5.262  19.126  0.00  0.00    +0.000 A 
ATOM     20  C   UNL     1       7.474   5.131  18.402  0.00  0.00    +0.000 A 
ATOM     21  C   UNL     1       7.468   4.555  17.131  0.00  0.00    +0.000 A 
ATOM     22  C   UNL     1       6.279   4.082  16.570  0.00  0.00    +0.000 A 
ATOM     23  C   UNL     1       5.085   4.212  17.301  0.00  0.00    +0.000 A 
BRANCH  22  24
ATOM     24  O   UNL     1       6.339   3.554  15.315  0.00  0.00    +0.000 OA
BRANCH  24  25
ATOM     25  C   UNL     1       6.197   4.176  14.083  0.00  0.00    +0.000 C 
ATOM     26  F   UNL     1       6.856   5.389  14.006  0.00  0.00    +0.000 F 
ATOM     27  F   UNL     1       6.656   3.337  13.086  0.00  0.00    +0.000 F 
ATOM     28  F   UNL     1       4.854   4.420  13.874  0.00  0.00    +0.000 F 
ENDBRANCH  24  25
ENDBRANCH  22  24
ENDBRANCH  17  18
BRANCH  17  29
ATOM     29  C   UNL     1       3.457   4.022  20.303  0.00  0.00    +0.000 C 
BRANCH  29  30
ATOM     30  C   UNL     1       2.430   2.948  19.905  0.00  0.00    +0.000 C 
ATOM     31  C   UNL     1       1.055   3.557  19.650  0.00  0.00    +0.000 C 
ATOM     32  C   UNL     1       1.869   3.013  18.485  0.00  0.00    +0.000 C 
ENDBRANCH  29  30
ENDBRANCH  17  29
ENDBRANCH   7  17
TORSDOF 7
ENDMDL
MODEL 2
REMARK VINA RESULT:      -9.1      4.799      9.265
REMARK  Name = 
REMARK  8 active torsions:
REMARK  status: ('A' for Active; 'I' for Inactive)
REMARK    1  A    between atoms: C_1  and  N_2
REMARK    2  A    between atoms: C_4  and  C_5
REMARK    3  A    between atoms: C_11  and  N_12
REMARK    4  A    between atoms: N_12  and  C_13
REMARK    5  A    between atoms: N_12  and  C_17
REMARK    6  A    between atoms: C_13  and  C_14
REMARK    7  A    between atoms: C_21  and  O_22
REMARK    8  A    between atoms: O_22  and  C_23
REMARK                            x       y       z     vdW  Elec       q    Type
REMARK                         _______ _______ _______ _____ _____    ______ ____
ROOT
ATOM      1  C   UNL     1       5.847   4.030  14.656  0.00  0.00    +0.000 A 
ATOM      2  C   UNL     1       7.136   4.417  15.053  0.00  0.00    +0.000 A 
ATOM      3  N   UNL     1       7.341   4.864  16.318  0.00  0.00    +0.000 NA
ATOM      4  C   UNL     1       6.312   5.000  17.192  0.00  0.00    +0.000 A 
ATOM      5  C   UNL     1       6.521   5.553  18.453  0.00  0.00    +0.000 A 
ATOM      6  C   UNL     1       5.426   5.795  19.291  0.00  0.00    +0.000 A 
ATOM      7  C   UNL     1       4.106   5.471  18.899  0.00  0.00    +0.000 A 
ATOM      8  C   UNL     1       3.923   4.859  17.640  0.00  0.00    +0.000 A 
ATOM      9  C   UNL     1       5.014   4.634  16.791  0.00  0.00    +0.000 A 
ATOM     10  N   UNL     1       4.821   4.127  15.544  0.00  0.00    +0.000 NA
ENDROOT
BRANCH   1  14
ATOM     11  C   UNL     1       3.494   3.071  10.354  0.00  0.00    +0.000 C 
ATOM     12  N   UNL     1       4.524   3.192  11.378  0.00  0.00    +0.000 N 
ATOM     13  C   UNL     1       4.383   3.777  12.581  0.00  0.00    +0.000 A 
ATOM     14  C   UNL     1       5.568   3.618  13.267  0.00  0.00    +0.000 A 
ATOM     15  C   UNL     1       6.404   2.936  12.405  0.00  0.00    +0.000 A 
ATOM     16  N   UNL     1       5.745   2.694  11.255  0.00  0.00    +0.000 NA
ENDBRANCH   1  14
BRANCH   7  17
ATOM     17  N   UNL     1       3.007   5.869  19.760  0.00  0.00    +0.000 N 
BRANCH  17  18
ATOM     18  C   UNL     1       2.332   7.108  19.449  0.00  0.00    +0.000 A 
ATOM     19  C   UNL     1       2.373   7.688  18.165  0.00  0.00    +0.000 A 
ATOM     20  C   UNL     1       1.785   8.935  17.929  0.00  0.00    +0.000 A 
ATOM     21  C   UNL     1       1.160   9.629  18.966  0.00  0.00    +0.000 A 
ATOM     22  C   UNL     1       1.095   9.082  20.250  0.00  0.00    +0.000 A 
ATOM     23  C   UNL     1       1.684   7.827  20.484  0.00  0.00    +0.000 A 
BRANCH  22  24
ATOM     24  O   UNL     1       0.494   9.824  21.223  0.00  0.00    +0.000 OA
BRANCH  24  25
ATOM     25  C   UNL     1      -0.114   9.417  22.401  0.00  0.00    +0.000 C 
ATOM     26  F   UNL     1       0.787   9.127  23.409  0.00  0.00    +0.000 F 
ATOM     27  F   UNL     1      -0.989  10.396  22.832  0.00  0.00    +0.000 F 
ATOM     28  F   UNL     1      -0.831   8.266  22.142  0.00  0.00    +0.000 F 
ENDBRANCH  24  25
ENDBRANCH  22  24
ENDBRANCH  17  18
BRANCH  17  29
ATOM     29  C   UNL     1       2.385   5.035  20.803  0.00  0.00    +0.000 C 
BRANCH  29  30
ATOM     30  C   UNL     1       2.253   3.537  20.477  0.00  0.00    +0.000 C 
ATOM     31  C   UNL     1       1.338   2.828  21.469  0.00  0.00    +0.000 C 
ATOM     32  C   UNL     1       0.877   3.039  20.035  0.00  0.00    +0.000 C 
ENDBRANCH  29  30
ENDBRANCH  17  29
ENDBRANCH   7  17
TORSDOF 7
ENDMDL
MODEL 3
REMARK VINA RESULT:      -9.1      0.821      1.074
REMARK  Name = 
REMARK  8 active torsions:
REMARK  status: ('A' for Active; 'I' for Inactive)
REMARK    1  A    between atoms: C_1  and  N_2
REMARK    2  A    between atoms: C_4  and  C_5
REMARK    3  A    between atoms: C_11  and  N_12
REMARK    4  A    between atoms: N_12  and  C_13
REMARK    5  A    between atoms: N_12  and  C_17
REMARK    6  A    between atoms: C_13  and  C_14
REMARK    7  A    between atoms: C_21  and  O_22
REMARK    8  A    between atoms: O_22  and  C_23
REMARK                            x       y       z     vdW  Elec       q    Type
REMARK                         _______ _______ _______ _____ _____    ______ ____
ROOT
ATOM      1  C   UNL     1       0.464  10.711  20.246  0.00  0.00    +0.000 A 
ATOM      2  C   UNL     1       0.894  11.333  19.064  0.00  0.00    +0.000 A 
ATOM      3  N   UNL     1       1.593  10.618  18.146  0.00  0.00    +0.000 NA
ATOM      4  C   UNL     1       1.935   9.324  18.375  0.00  0.00    +0.000 A 
ATOM      5  C   UNL     1       2.736   8.632  17.469  0.00  0.00    +0.000 A 
ATOM      6  C   UNL     1       3.175   7.341  17.782  0.00  0.00    +0.000 A 
ATOM      7  C   UNL     1       2.808   6.705  18.992  0.00  0.00    +0.000 A 
ATOM      8  C   UNL     1       1.949   7.403  19.870  0.00  0.00    +0.000 A 
ATOM      9  C   UNL     1       1.524   8.703  19.568  0.00  0.00    +0.000 A 
ATOM     10  N   UNL     1       0.772   9.403  20.458  0.00  0.00    +0.000 NA
ENDROOT
BRANCH   1  14
ATOM     11  C   UNL     1      -2.870  12.156  23.674  0.00  0.00    +0.000 C 
ATOM     12  N   UNL     1      -1.700  12.110  22.807  0.00  0.00    +0.000 N 
ATOM     13  C   UNL     1      -1.354  11.094  21.996  0.00  0.00    +0.000 A 
ATOM     14  C   UNL     1      -0.224  11.476  21.303  0.00  0.00    +0.000 A 
ATOM     15  C   UNL     1       0.079  12.742  21.762  0.00  0.00    +0.000 A 
ATOM     16  N   UNL     1      -0.835  13.105  22.686  0.00  0.00    +0.000 NA
ENDBRANCH   1  14
BRANCH   7  17
ATOM     17  N   UNL     1       3.405   5.422  19.313  0.00  0.00    +0.000 N 
BRANCH  17  18
ATOM     18  C   UNL     1       4.707   5.135  18.757  0.00  0.00    +0.000 A 
ATOM     19  C   UNL     1       5.902   5.464  19.428  0.00  0.00    +0.000 A 
ATOM     20  C   UNL     1       7.142   5.254  18.816  0.00  0.00    +0.000 A 
ATOM     21  C   UNL     1       7.213   4.728  17.525  0.00  0.00    +0.000 A 
ATOM     22  C   UNL     1       6.050   4.384  16.833  0.00  0.00    +0.000 A 
ATOM     23  C   UNL     1       4.804   4.593  17.452  0.00  0.00    +0.000 A 
BRANCH  22  24
ATOM     24  O   UNL     1       6.188   3.900  15.566  0.00  0.00    +0.000 OA
BRANCH  24  25
ATOM     25  C   UNL     1       6.000   4.536  14.348  0.00  0.00    +0.000 C 
ATOM     26  F   UNL     1       7.164   4.654  13.610  0.00  0.00    +0.000 F 
ATOM     27  F   UNL     1       5.054   3.851  13.610  0.00  0.00    +0.000 F 
ATOM     28  F   UNL     1       5.533   5.811  14.593  0.00  0.00    +0.000 F 
ENDBRANCH  24  25
ENDBRANCH  22  24
ENDBRANCH  17  18
BRANCH  17  29
ATOM     29  C   UNL     1       2.898   4.463  20.310  0.00  0.00    +0.000 C 
BRANCH  29  30
ATOM     30  C   UNL     1       1.507   3.871  20.028  0.00  0.00    +0.000 C 
ATOM     31  C   UNL     1       1.372   3.424  18.576  0.00  0.00    +0.000 C 
ATOM     32  C   UNL     1       1.438   2.384  19.684  0.00  0.00    +0.000 C 
ENDBRANCH  29  30
ENDBRANCH  17  29
ENDBRANCH   7  17
TORSDOF 7
ENDMDL
MODEL 4
REMARK VINA RESULT:      -8.8      1.219      1.465
REMARK  Name = 
REMARK  8 active torsions:
REMARK  status: ('A' for Active; 'I' for Inactive)
REMARK    1  A    between atoms: C_1  and  N_2
REMARK    2  A    between atoms: C_4  and  C_5
REMARK    3  A    between atoms: C_11  and  N_12
REMARK    4  A    between atoms: N_12  and  C_13
REMARK    5  A    between atoms: N_12  and  C_17
REMARK    6  A    between atoms: C_13  and  C_14
REMARK    7  A    between atoms: C_21  and  O_22
REMARK    8  A    between atoms: O_22  and  C_23
REMARK                            x       y       z     vdW  Elec       q    Type
REMARK                         _______ _______ _______ _____ _____    ______ ____
ROOT
ATOM      1  C   UNL     1       0.025  11.261  20.709  0.00  0.00    +0.000 A 
ATOM      2  C   UNL     1       0.396  11.897  19.516  0.00  0.00    +0.000 A 
ATOM      3  N   UNL     1       1.042  11.192  18.553  0.00  0.00    +0.000 NA
ATOM      4  C   UNL     1       1.389   9.893  18.745  0.00  0.00    +0.000 A 
ATOM      5  C   UNL     1       2.138   9.211  17.790  0.00  0.00    +0.000 A 
ATOM      6  C   UNL     1       2.587   7.913  18.062  0.00  0.00    +0.000 A 
ATOM      7  C   UNL     1       2.280   7.262  19.280  0.00  0.00    +0.000 A 
ATOM      8  C   UNL     1       1.471   7.952  20.211  0.00  0.00    +0.000 A 
ATOM      9  C   UNL     1       1.038   9.257  19.949  0.00  0.00    +0.000 A 
ATOM     10  N   UNL     1       0.336   9.948  20.887  0.00  0.00    +0.000 NA
ENDROOT
BRANCH   1  14
ATOM     11  C   UNL     1      -1.103  14.867  23.977  0.00  0.00    +0.000 C 
ATOM     12  N   UNL     1      -1.091  13.603  23.252  0.00  0.00    +0.000 N 
ATOM     13  C   UNL     1      -0.389  13.337  22.136  0.00  0.00    +0.000 A 
ATOM     14  C   UNL     1      -0.604  12.013  21.811  0.00  0.00    +0.000 A 
ATOM     15  C   UNL     1      -1.473  11.535  22.772  0.00  0.00    +0.000 A 
ATOM     16  N   UNL     1      -1.761  12.528  23.637  0.00  0.00    +0.000 NA
ENDBRANCH   1  14
BRANCH   7  17
ATOM     17  N   UNL     1       2.886   5.972  19.552  0.00  0.00    +0.000 N 
BRANCH  17  18
ATOM     18  C   UNL     1       4.073   5.623  18.806  0.00  0.00    +0.000 A 
ATOM     19  C   UNL     1       5.346   5.547  19.406  0.00  0.00    +0.000 A 
ATOM     20  C   UNL     1       6.483   5.297  18.631  0.00  0.00    +0.000 A 
ATOM     21  C   UNL     1       6.376   5.132  17.250  0.00  0.00    +0.000 A 
ATOM     22  C   UNL     1       5.130   5.194  16.622  0.00  0.00    +0.000 A 
ATOM     23  C   UNL     1       3.987   5.443  17.403  0.00  0.00    +0.000 A 
BRANCH  22  24
ATOM     24  O   UNL     1       5.097   5.052  15.266  0.00  0.00    +0.000 OA
BRANCH  24  25
ATOM     25  C   UNL     1       5.908   4.295  14.434  0.00  0.00    +0.000 C 
ATOM     26  F   UNL     1       7.093   4.928  14.105  0.00  0.00    +0.000 F 
ATOM     27  F   UNL     1       6.184   3.082  15.035  0.00  0.00    +0.000 F 
ATOM     28  F   UNL     1       5.223   4.061  13.258  0.00  0.00    +0.000 F 
ENDBRANCH  24  25
ENDBRANCH  22  24
ENDBRANCH  17  18
BRANCH  17  29
ATOM     29  C   UNL     1       2.523   5.066  20.655  0.00  0.00    +0.000 C 
BRANCH  29  30
ATOM     30  C   UNL     1       2.186   3.619  20.254  0.00  0.00    +0.000 C 
ATOM     31  C   UNL     1       2.806   2.613  21.217  0.00  0.00    +0.000 C 
ATOM     32  C   UNL     1       1.298   2.820  21.207  0.00  0.00    +0.000 C 
ENDBRANCH  29  30
ENDBRANCH  17  29
ENDBRANCH   7  17
TORSDOF 7
ENDMDL
MODEL 5
REMARK VINA RESULT:      -8.8      0.854      1.050
REMARK  Name = 
REMARK  8 active torsions:
REMARK  status: ('A' for Active; 'I' for Inactive)
REMARK    1  A    between atoms: C_1  and  N_2
REMARK    2  A    between atoms: C_4  and  C_5
REMARK    3  A    between atoms: C_11  and  N_12
REMARK    4  A    between atoms: N_12  and  C_13
REMARK    5  A    between atoms: N_12  and  C_17
REMARK    6  A    between atoms: C_13  and  C_14
REMARK    7  A    between atoms: C_21  and  O_22
REMARK    8  A    between atoms: O_22  and  C_23
REMARK                            x       y       z     vdW  Elec       q    Type
REMARK                         _______ _______ _______ _____ _____    ______ ____
ROOT
ATOM      1  C   UNL     1       0.281  10.255  20.440  0.00  0.00    +0.000 A 
ATOM      2  C   UNL     1       0.592  11.000  19.293  0.00  0.00    +0.000 A 
ATOM      3  N   UNL     1       1.326  10.430  18.303  0.00  0.00    +0.000 NA
ATOM      4  C   UNL     1       1.814   9.169  18.425  0.00  0.00    +0.000 A 
ATOM      5  C   UNL     1       2.647   8.634  17.446  0.00  0.00    +0.000 A 
ATOM      6  C   UNL     1       3.236   7.381  17.650  0.00  0.00    +0.000 A 
ATOM      7  C   UNL     1       2.989   6.627  18.823  0.00  0.00    +0.000 A 
ATOM      8  C   UNL     1       2.096   7.164  19.776  0.00  0.00    +0.000 A 
ATOM      9  C   UNL     1       1.522   8.427  19.583  0.00  0.00    +0.000 A 
ATOM     10  N   UNL     1       0.735   8.977  20.546  0.00  0.00    +0.000 NA
ENDROOT
BRANCH   1  14
ATOM     11  C   UNL     1      -2.199  13.506  23.310  0.00  0.00    +0.000 C 
ATOM     12  N   UNL     1      -1.528  12.304  22.833  0.00  0.00    +0.000 N 
ATOM     13  C   UNL     1      -1.065  12.095  21.588  0.00  0.00    +0.000 A 
ATOM     14  C   UNL     1      -0.442  10.865  21.572  0.00  0.00    +0.000 A 
ATOM     15  C   UNL     1      -0.584  10.364  22.851  0.00  0.00    +0.000 A 
ATOM     16  N   UNL     1      -1.257  11.260  23.601  0.00  0.00    +0.000 NA
ENDBRANCH   1  14
BRANCH   7  17
ATOM     17  N   UNL     1       3.733   5.399  19.030  0.00  0.00    +0.000 N 
BRANCH  17  18
ATOM     18  C   UNL     1       5.122   5.386  18.633  0.00  0.00    +0.000 A 
ATOM     19  C   UNL     1       6.174   5.446  19.569  0.00  0.00    +0.000 A 
ATOM     20  C   UNL     1       7.503   5.525  19.140  0.00  0.00    +0.000 A 
ATOM     21  C   UNL     1       7.806   5.559  17.779  0.00  0.00    +0.000 A 
ATOM     22  C   UNL     1       6.790   5.494  16.823  0.00  0.00    +0.000 A 
ATOM     23  C   UNL     1       5.454   5.412  17.256  0.00  0.00    +0.000 A 
BRANCH  22  24
ATOM     24  O   UNL     1       7.152   5.559  15.510  0.00  0.00    +0.000 OA
BRANCH  24  25
ATOM     25  C   UNL     1       6.665   4.853  14.419  0.00  0.00    +0.000 C 
ATOM     26  F   UNL     1       5.364   5.188  14.090  0.00  0.00    +0.000 F 
ATOM     27  F   UNL     1       7.487   5.065  13.328  0.00  0.00    +0.000 F 
ATOM     28  F   UNL     1       6.682   3.509  14.732  0.00  0.00    +0.000 F 
ENDBRANCH  24  25
ENDBRANCH  22  24
ENDBRANCH  17  18
BRANCH  17  29
ATOM     29  C   UNL     1       3.263   4.225  19.786  0.00  0.00    +0.000 C 
BRANCH  29  30
ATOM     30  C   UNL     1       1.837   3.744  19.465  0.00  0.00    +0.000 C 
ATOM     31  C   UNL     1       1.678   2.251  19.729  0.00  0.00    +0.000 C 
ATOM     32  C   UNL     1       0.986   3.257  20.636  0.00  0.00    +0.000 C 
ENDBRANCH  29  30
ENDBRANCH  17  29
ENDBRANCH   7  17
TORSDOF 7
ENDMDL
MODEL 6
REMARK VINA RESULT:      -8.6      1.919      2.681
REMARK  Name = 
REMARK  8 active torsions:
REMARK  status: ('A' for Active; 'I' for Inactive)
REMARK    1  A    between atoms: C_1  and  N_2
REMARK    2  A    between atoms: C_4  and  C_5
REMARK    3  A    between atoms: C_11  and  N_12
REMARK    4  A    between atoms: N_12  and  C_13
REMARK    5  A    between atoms: N_12  and  C_17
REMARK    6  A    between atoms: C_13  and  C_14
REMARK    7  A    between atoms: C_21  and  O_22
REMARK    8  A    between atoms: O_22  and  C_23
REMARK                            x       y       z     vdW  Elec       q    Type
REMARK                         _______ _______ _______ _____ _____    ______ ____
ROOT
ATOM      1  C   UNL     1       0.891  10.050  19.643  0.00  0.00    +0.000 A 
ATOM      2  C   UNL     1       0.738   9.661  20.982  0.00  0.00    +0.000 A 
ATOM      3  N   UNL     1       1.229   8.464  21.393  0.00  0.00    +0.000 NA
ATOM      4  C   UNL     1       1.817   7.607  20.519  0.00  0.00    +0.000 A 
ATOM      5  C   UNL     1       2.227   6.343  20.934  0.00  0.00    +0.000 A 
ATOM      6  C   UNL     1       2.718   5.432  19.991  0.00  0.00    +0.000 A 
ATOM      7  C   UNL     1       2.832   5.771  18.621  0.00  0.00    +0.000 A 
ATOM      8  C   UNL     1       2.464   7.078  18.232  0.00  0.00    +0.000 A 
ATOM      9  C   UNL     1       1.953   7.984  19.171  0.00  0.00    +0.000 A 
ATOM     10  N   UNL     1       1.516   9.209  18.774  0.00  0.00    +0.000 NA
ENDROOT
BRANCH   1  14
ATOM     11  C   UNL     1      -0.110  14.892  18.928  0.00  0.00    +0.000 C 
ATOM     12  N   UNL     1      -0.141  13.438  18.835  0.00  0.00    +0.000 N 
ATOM     13  C   UNL     1       0.718  12.587  19.424  0.00  0.00    +0.000 A 
ATOM     14  C   UNL     1       0.299  11.304  19.140  0.00  0.00    +0.000 A 
ATOM     15  C   UNL     1      -0.822  11.449  18.346  0.00  0.00    +0.000 A 
ATOM     16  N   UNL     1      -1.066  12.763  18.169  0.00  0.00    +0.000 NA
ENDBRANCH   1  14
BRANCH   7  17
ATOM     17  N   UNL     1       3.224   4.740  17.680  0.00  0.00    +0.000 N 
BRANCH  17  18
ATOM     18  C   UNL     1       4.520   4.865  17.054  0.00  0.00    +0.000 A 
ATOM     19  C   UNL     1       5.452   5.849  17.442  0.00  0.00    +0.000 A 
ATOM     20  C   UNL     1       6.658   5.998  16.749  0.00  0.00    +0.000 A 
ATOM     21  C   UNL     1       6.951   5.182  15.655  0.00  0.00    +0.000 A 
ATOM     22  C   UNL     1       6.054   4.192  15.247  0.00  0.00    +0.000 A 
ATOM     23  C   UNL     1       4.843   4.042  15.947  0.00  0.00    +0.000 A 
BRANCH  22  24
ATOM     24  O   UNL     1       6.388   3.447  14.155  0.00  0.00    +0.000 OA
BRANCH  24  25
ATOM     25  C   UNL     1       6.021   3.606  12.827  0.00  0.00    +0.000 C 
ATOM     26  F   UNL     1       4.753   4.135  12.671  0.00  0.00    +0.000 F 
ATOM     27  F   UNL     1       6.941   4.416  12.187  0.00  0.00    +0.000 F 
ATOM     28  F   UNL     1       6.030   2.364  12.224  0.00  0.00    +0.000 F 
ENDBRANCH  24  25
ENDBRANCH  22  24
ENDBRANCH  17  18
BRANCH  17  29
ATOM     29  C   UNL     1       2.511   3.472  17.446  0.00  0.00    +0.000 C 
BRANCH  29  30
ATOM     30  C   UNL     1       2.601   2.431  18.575  0.00  0.00    +0.000 C 
ATOM     31  C   UNL     1       3.512   1.269  18.193  0.00  0.00    +0.000 C 
ATOM     32  C   UNL     1       3.957   2.260  19.259  0.00  0.00    +0.000 C 
ENDBRANCH  29  30
ENDBRANCH  17  29
ENDBRANCH   7  17
TORSDOF 7
ENDMDL
MODEL 7
REMARK VINA RESULT:      -8.5      2.182      2.918
REMARK  Name = 
REMARK  8 active torsions:
REMARK  status: ('A' for Active; 'I' for Inactive)
REMARK    1  A    between atoms: C_1  and  N_2
REMARK    2  A    between atoms: C_4  and  C_5
REMARK    3  A    between atoms: C_11  and  N_12
REMARK    4  A    between atoms: N_12  and  C_13
REMARK    5  A    between atoms: N_12  and  C_17
REMARK    6  A    between atoms: C_13  and  C_14
REMARK    7  A    between atoms: C_21  and  O_22
REMARK    8  A    between atoms: O_22  and  C_23
REMARK                            x       y       z     vdW  Elec       q    Type
REMARK                         _______ _______ _______ _____ _____    ______ ____
ROOT
ATOM      1  C   UNL     1       0.036  11.681  20.836  0.00  0.00    +0.000 A 
ATOM      2  C   UNL     1       0.610  12.286  19.709  0.00  0.00    +0.000 A 
ATOM      3  N   UNL     1       1.210  11.514  18.766  0.00  0.00    +0.000 NA
ATOM      4  C   UNL     1       1.315  10.169  18.921  0.00  0.00    +0.000 A 
ATOM      5  C   UNL     1       2.019   9.403  17.995  0.00  0.00    +0.000 A 
ATOM      6  C   UNL     1       2.218   8.039  18.238  0.00  0.00    +0.000 A 
ATOM      7  C   UNL     1       1.702   7.407  19.394  0.00  0.00    +0.000 A 
ATOM      8  C   UNL     1       0.943   8.192  20.291  0.00  0.00    +0.000 A 
ATOM      9  C   UNL     1       0.759   9.561  20.060  0.00  0.00    +0.000 A 
ATOM     10  N   UNL     1       0.105  10.329  20.973  0.00  0.00    +0.000 NA
ENDROOT
BRANCH   1  14
ATOM     11  C   UNL     1      -0.900  15.419  24.016  0.00  0.00    +0.000 C 
ATOM     12  N   UNL     1      -0.953  14.138  23.322  0.00  0.00    +0.000 N 
ATOM     13  C   UNL     1      -0.270  13.810  22.211  0.00  0.00    +0.000 A 
ATOM     14  C   UNL     1      -0.550  12.491  21.921  0.00  0.00    +0.000 A 
ATOM     15  C   UNL     1      -1.438  12.080  22.896  0.00  0.00    +0.000 A 
ATOM     16  N   UNL     1      -1.673  13.107  23.736  0.00  0.00    +0.000 NA
ENDBRANCH   1  14
BRANCH   7  17
ATOM     17  N   UNL     1       2.056   6.024  19.649  0.00  0.00    +0.000 N 
BRANCH  17  18
ATOM     18  C   UNL     1       3.154   5.467  18.893  0.00  0.00    +0.000 A 
ATOM     19  C   UNL     1       2.967   4.826  17.651  0.00  0.00    +0.000 A 
ATOM     20  C   UNL     1       4.043   4.219  16.996  0.00  0.00    +0.000 A 
ATOM     21  C   UNL     1       5.315   4.227  17.568  0.00  0.00    +0.000 A 
ATOM     22  C   UNL     1       5.540   4.858  18.794  0.00  0.00    +0.000 A 
ATOM     23  C   UNL     1       4.457   5.471  19.450  0.00  0.00    +0.000 A 
BRANCH  22  24
ATOM     24  O   UNL     1       6.800   4.806  19.311  0.00  0.00    +0.000 OA
BRANCH  24  25
ATOM     25  C   UNL     1       8.009   5.180  18.742  0.00  0.00    +0.000 C 
ATOM     26  F   UNL     1       8.511   4.240  17.861  0.00  0.00    +0.000 F 
ATOM     27  F   UNL     1       7.858   6.390  18.091  0.00  0.00    +0.000 F 
ATOM     28  F   UNL     1       8.933   5.335  19.756  0.00  0.00    +0.000 F 
ENDBRANCH  24  25
ENDBRANCH  22  24
ENDBRANCH  17  18
BRANCH  17  29
ATOM     29  C   UNL     1       1.533   5.189  20.744  0.00  0.00    +0.000 C 
BRANCH  29  30
ATOM     30  C   UNL     1       2.187   3.806  20.907  0.00  0.00    +0.000 C 
ATOM     31  C   UNL     1       1.314   2.869  21.735  0.00  0.00    +0.000 C 
ATOM     32  C   UNL     1       1.486   2.621  20.244  0.00  0.00    +0.000 C 
ENDBRANCH  29  30
ENDBRANCH  17  29
ENDBRANCH   7  17
TORSDOF 7
ENDMDL
MODEL 8
REMARK VINA RESULT:      -8.5      1.878      2.673
REMARK  Name = 
REMARK  8 active torsions:
REMARK  status: ('A' for Active; 'I' for Inactive)
REMARK    1  A    between atoms: C_1  and  N_2
REMARK    2  A    between atoms: C_4  and  C_5
REMARK    3  A    between atoms: C_11  and  N_12
REMARK    4  A    between atoms: N_12  and  C_13
REMARK    5  A    between atoms: N_12  and  C_17
REMARK    6  A    between atoms: C_13  and  C_14
REMARK    7  A    between atoms: C_21  and  O_22
REMARK    8  A    between atoms: O_22  and  C_23
REMARK                            x       y       z     vdW  Elec       q    Type
REMARK                         _______ _______ _______ _____ _____    ______ ____
ROOT
ATOM      1  C   UNL     1       0.866  10.165  19.592  0.00  0.00    +0.000 A 
ATOM      2  C   UNL     1       0.712   9.818  20.942  0.00  0.00    +0.000 A 
ATOM      3  N   UNL     1       1.205   8.636  21.390  0.00  0.00    +0.000 NA
ATOM      4  C   UNL     1       1.797   7.754  20.544  0.00  0.00    +0.000 A 
ATOM      5  C   UNL     1       2.209   6.504  20.999  0.00  0.00    +0.000 A 
ATOM      6  C   UNL     1       2.705   5.566  20.085  0.00  0.00    +0.000 A 
ATOM      7  C   UNL     1       2.821   5.863  18.706  0.00  0.00    +0.000 A 
ATOM      8  C   UNL     1       2.450   7.156  18.277  0.00  0.00    +0.000 A 
ATOM      9  C   UNL     1       1.935   8.089  19.186  0.00  0.00    +0.000 A 
ATOM     10  N   UNL     1       1.495   9.300  18.751  0.00  0.00    +0.000 NA
ENDROOT
BRANCH   1  14
ATOM     11  C   UNL     1      -0.116  14.981  18.695  0.00  0.00    +0.000 C 
ATOM     12  N   UNL     1      -0.160  13.525  18.664  0.00  0.00    +0.000 N 
ATOM     13  C   UNL     1       0.706  12.693  19.270  0.00  0.00    +0.000 A 
ATOM     14  C   UNL     1       0.272  11.402  19.049  0.00  0.00    +0.000 A 
ATOM     15  C   UNL     1      -0.865  11.523  18.275  0.00  0.00    +0.000 A 
ATOM     16  N   UNL     1      -1.104  12.830  18.048  0.00  0.00    +0.000 NA
ENDBRANCH   1  14
BRANCH   7  17
ATOM     17  N   UNL     1       3.217   4.804  17.798  0.00  0.00    +0.000 N 
BRANCH  17  18
ATOM     18  C   UNL     1       4.501   4.929  17.147  0.00  0.00    +0.000 A 
ATOM     19  C   UNL     1       5.419   5.946  17.480  0.00  0.00    +0.000 A 
ATOM     20  C   UNL     1       6.611   6.090  16.763  0.00  0.00    +0.000 A 
ATOM     21  C   UNL     1       6.903   5.237  15.698  0.00  0.00    +0.000 A 
ATOM     22  C   UNL     1       6.019   4.215  15.343  0.00  0.00    +0.000 A 
ATOM     23  C   UNL     1       4.822   4.070  16.067  0.00  0.00    +0.000 A 
BRANCH  22  24
ATOM     24  O   UNL     1       6.351   3.435  14.275  0.00  0.00    +0.000 OA
BRANCH  24  25
ATOM     25  C   UNL     1       6.073   3.610  12.928  0.00  0.00    +0.000 C 
ATOM     26  F   UNL     1       6.204   2.448  12.189  0.00  0.00    +0.000 F 
ATOM     27  F   UNL     1       4.793   4.109  12.780  0.00  0.00    +0.000 F 
ATOM     28  F   UNL     1       6.968   4.529  12.418  0.00  0.00    +0.000 F 
ENDBRANCH  24  25
ENDBRANCH  22  24
ENDBRANCH  17  18
BRANCH  17  29
ATOM     29  C   UNL     1       2.525   3.515  17.623  0.00  0.00    +0.000 C 
BRANCH  29  30
ATOM     30  C   UNL     1       1.110   3.425  18.221  0.00  0.00    +0.000 C 
ATOM     31  C   UNL     1       0.724   1.983  18.529  0.00  0.00    +0.000 C 
ATOM     32  C   UNL     1       0.993   2.954  19.669  0.00  0.00    +0.000 C 
ENDBRANCH  29  30
ENDBRANCH  17  29
ENDBRANCH   7  17
TORSDOF 7
ENDMDL
MODEL 9
REMARK VINA RESULT:      -8.5      5.804     10.333
REMARK  Name = 
REMARK  8 active torsions:
REMARK  status: ('A' for Active; 'I' for Inactive)
REMARK    1  A    between atoms: C_1  and  N_2
REMARK    2  A    between atoms: C_4  and  C_5
REMARK    3  A    between atoms: C_11  and  N_12
REMARK    4  A    between atoms: N_12  and  C_13
REMARK    5  A    between atoms: N_12  and  C_17
REMARK    6  A    between atoms: C_13  and  C_14
REMARK    7  A    between atoms: C_21  and  O_22
REMARK    8  A    between atoms: O_22  and  C_23
REMARK                            x       y       z     vdW  Elec       q    Type
REMARK                         _______ _______ _______ _____ _____    ______ ____
ROOT
ATOM      1  C   UNL     1       4.319   6.292  17.692  0.00  0.00    +0.000 A 
ATOM      2  C   UNL     1       4.194   5.624  18.919  0.00  0.00    +0.000 A 
ATOM      3  N   UNL     1       3.256   6.031  19.812  0.00  0.00    +0.000 NA
ATOM      4  C   UNL     1       2.473   7.112  19.564  0.00  0.00    +0.000 A 
ATOM      5  C   UNL     1       1.584   7.578  20.530  0.00  0.00    +0.000 A 
ATOM      6  C   UNL     1       0.875   8.763  20.301  0.00  0.00    +0.000 A 
ATOM      7  C   UNL     1       1.020   9.494  19.098  0.00  0.00    +0.000 A 
ATOM      8  C   UNL     1       1.884   8.973  18.110  0.00  0.00    +0.000 A 
ATOM      9  C   UNL     1       2.610   7.798  18.345  0.00  0.00    +0.000 A 
ATOM     10  N   UNL     1       3.507   7.350  17.426  0.00  0.00    +0.000 NA
ENDROOT
BRANCH   1  14
ATOM     11  C   UNL     1       6.739   4.356  13.773  0.00  0.00    +0.000 C 
ATOM     12  N   UNL     1       6.441   5.071  15.007  0.00  0.00    +0.000 N 
ATOM     13  C   UNL     1       5.218   5.275  15.530  0.00  0.00    +0.000 A 
ATOM     14  C   UNL     1       5.380   5.932  16.732  0.00  0.00    +0.000 A 
ATOM     15  C   UNL     1       6.742   6.118  16.870  0.00  0.00    +0.000 A 
ATOM     16  N   UNL     1       7.367   5.588  15.799  0.00  0.00    +0.000 NA
ENDBRANCH   1  14
BRANCH   7  17
ATOM     17  N   UNL     1       0.358  10.780  18.981  0.00  0.00    +0.000 N 
BRANCH  17  18
ATOM     18  C   UNL     1      -1.023  10.782  18.555  0.00  0.00    +0.000 A 
ATOM     19  C   UNL     1      -1.466  10.057  17.430  0.00  0.00    +0.000 A 
ATOM     20  C   UNL     1      -2.792  10.160  16.996  0.00  0.00    +0.000 A 
ATOM     21  C   UNL     1      -3.692  10.992  17.662  0.00  0.00    +0.000 A 
ATOM     22  C   UNL     1      -3.289  11.720  18.785  0.00  0.00    +0.000 A 
ATOM     23  C   UNL     1      -1.956  11.613  19.221  0.00  0.00    +0.000 A 
BRANCH  22  24
ATOM     24  O   UNL     1      -4.210  12.535  19.373  0.00  0.00    +0.000 OA
BRANCH  24  25
ATOM     25  C   UNL     1      -5.513  12.266  19.764  0.00  0.00    +0.000 C 
ATOM     26  F   UNL     1      -5.824  10.918  19.732  0.00  0.00    +0.000 F 
ATOM     27  F   UNL     1      -5.725  12.759  21.037  0.00  0.00    +0.000 F 
ATOM     28  F   UNL     1      -6.368  12.909  18.891  0.00  0.00    +0.000 F 
ENDBRANCH  24  25
ENDBRANCH  22  24
ENDBRANCH  17  18
BRANCH  17  29
ATOM     29  C   UNL     1       0.897  12.071  19.442  0.00  0.00    +0.000 C 
BRANCH  29  30
ATOM     30  C   UNL     1       1.256  13.083  18.340  0.00  0.00    +0.000 C 
ATOM     31  C   UNL     1       1.425  14.489  18.906  0.00  0.00    +0.000 C 
ATOM     32  C   UNL     1       2.641  13.723  18.406  0.00  0.00    +0.000 C 
ENDBRANCH  29  30
ENDBRANCH  17  29
ENDBRANCH   7  17
TORSDOF 7
ENDMDL
