MODEL 1
REMARK VINA RESULT:      -7.1      0.000      0.000
REMARK  Name = 
REMARK  5 active torsions:
REMARK  status: ('A' for Active; 'I' for Inactive)
REMARK    1  A    between atoms: C_2  and  O_3
REMARK    2  A    between atoms: C_2  and  C_14
REMARK    3  A    between atoms: O_3  and  C_4
REMARK    4  A    between atoms: C_4  and  C_5
REMARK    5  A    between atoms: C_8  and  N_9
REMARK                            x       y       z     vdW  Elec       q    Type
REMARK                         _______ _______ _______ _____ _____    ______ ____
ROOT
ATOM      1  C   UNL     1       5.259   4.330  19.005  0.00  0.00    +0.000 C 
ENDROOT
BRANCH   1   2
ATOM      2  C   UNL     1       5.745   4.410  17.577  0.00  0.00    +0.000 A 
ATOM      3  C   UNL     1       7.048   4.844  17.287  0.00  0.00    +0.000 A 
ATOM      4  C   UNL     1       7.491   4.939  15.964  0.00  0.00    +0.000 A 
ATOM      5  C   UNL     1       6.625   4.588  14.920  0.00  0.00    +0.000 A 
ATOM      6  C   UNL     1       5.328   4.136  15.194  0.00  0.00    +0.000 A 
ATOM      7  C   UNL     1       4.894   4.048  16.521  0.00  0.00    +0.000 A 
BRANCH   5   8
ATOM      8  N   UNL     1       7.075   4.694  13.527  0.00  0.00    +0.000 N 
ATOM      9  O   UNL     1       7.925   5.559  13.260  0.00  0.00    +0.000 OA
ATOM     10  O   UNL     1       6.584   3.914  12.700  0.00  0.00    +0.000 OA
ENDBRANCH   5   8
ENDBRANCH   1   2
BRANCH   1  11
ATOM     11  O   UNL     1       4.749   5.599  19.452  0.00  0.00    +0.000 OA
BRANCH  11  13
ATOM     12  O   UNL     1       2.758   6.723  19.594  0.00  0.00    +0.000 OA
ATOM     13  C   UNL     1       3.396   5.676  19.572  0.00  0.00    +0.000 C 
BRANCH  13  14
ATOM     14  C   UNL     1       2.771   4.308  19.779  0.00  0.00    +0.000 C 
ATOM     15  C   UNL     1       2.183   4.163  21.182  0.00  0.00    +0.000 C 
ATOM     16  C   UNL     1       1.296   2.930  21.087  0.00  0.00    +0.000 C 
ATOM     17  C   UNL     1       0.807   2.889  19.642  0.00  0.00    +0.000 C 
ATOM     18  C   UNL     1       1.558   3.999  18.904  0.00  0.00    +0.000 C 
ENDBRANCH  13  14
ENDBRANCH  11  13
ENDBRANCH   1  11
TORSDOF 5
ENDMDL
MODEL 2
REMARK VINA RESULT:      -7.0      3.205      6.858
REMARK  Name = 
REMARK  5 active torsions:
REMARK  status: ('A' for Active; 'I' for Inactive)
REMARK    1  A    between atoms: C_2  and  O_3
REMARK    2  A    between atoms: C_2  and  C_14
REMARK    3  A    between atoms: O_3  and  C_4
REMARK    4  A    between atoms: C_4  and  C_5
REMARK    5  A    between atoms: C_8  and  N_9
REMARK                            x       y       z     vdW  Elec       q    Type
REMARK                         _______ _______ _______ _____ _____    ______ ____
ROOT
ATOM      1  C   UNL     1       5.020   6.195  16.769  0.00  0.00    +0.000 C 
ENDROOT
BRANCH   1   2
ATOM      2  C   UNL     1       3.983   5.303  17.410  0.00  0.00    +0.000 A 
ATOM      3  C   UNL     1       4.031   3.911  17.238  0.00  0.00    +0.000 A 
ATOM      4  C   UNL     1       3.059   3.087  17.814  0.00  0.00    +0.000 A 
ATOM      5  C   UNL     1       2.032   3.660  18.576  0.00  0.00    +0.000 A 
ATOM      6  C   UNL     1       1.981   5.046  18.771  0.00  0.00    +0.000 A 
ATOM      7  C   UNL     1       2.957   5.861  18.188  0.00  0.00    +0.000 A 
BRANCH   5   8
ATOM      8  N   UNL     1       0.999   2.806  19.175  0.00  0.00    +0.000 N 
ATOM      9  O   UNL     1       0.916   2.784  20.413  0.00  0.00    +0.000 OA
ATOM     10  O   UNL     1       0.270   2.160  18.411  0.00  0.00    +0.000 OA
ENDBRANCH   5   8
ENDBRANCH   1   2
BRANCH   1  11
ATOM     11  O   UNL     1       5.353   5.738  15.446  0.00  0.00    +0.000 OA
BRANCH  11  13
ATOM     12  O   UNL     1       7.602   5.860  15.865  0.00  0.00    +0.000 OA
ATOM     13  C   UNL     1       6.651   5.374  15.262  0.00  0.00    +0.000 C 
BRANCH  13  14
ATOM     14  C   UNL     1       6.797   4.360  14.142  0.00  0.00    +0.000 C 
ATOM     15  C   UNL     1       5.439   3.922  13.595  0.00  0.00    +0.000 C 
ATOM     16  C   UNL     1       5.772   3.234  12.280  0.00  0.00    +0.000 C 
ATOM     17  C   UNL     1       7.033   3.924  11.766  0.00  0.00    +0.000 C 
ATOM     18  C   UNL     1       7.486   4.873  12.877  0.00  0.00    +0.000 C 
ENDBRANCH  13  14
ENDBRANCH  11  13
ENDBRANCH   1  11
TORSDOF 5
ENDMDL
MODEL 3
REMARK VINA RESULT:      -7.0      0.267      1.379
REMARK  Name = 
REMARK  5 active torsions:
REMARK  status: ('A' for Active; 'I' for Inactive)
REMARK    1  A    between atoms: C_2  and  O_3
REMARK    2  A    between atoms: C_2  and  C_14
REMARK    3  A    between atoms: O_3  and  C_4
REMARK    4  A    between atoms: C_4  and  C_5
REMARK    5  A    between atoms: C_8  and  N_9
REMARK                            x       y       z     vdW  Elec       q    Type
REMARK                         _______ _______ _______ _____ _____    ______ ____
ROOT
ATOM      1  C   UNL     1       5.151   4.543  19.180  0.00  0.00    +0.000 C 
ENDROOT
BRANCH   1   2
ATOM      2  C   UNL     1       5.658   4.627  17.759  0.00  0.00    +0.000 A 
ATOM      3  C   UNL     1       4.900   4.112  16.696  0.00  0.00    +0.000 A 
ATOM      4  C   UNL     1       5.380   4.171  15.385  0.00  0.00    +0.000 A 
ATOM      5  C   UNL     1       6.626   4.757  15.131  0.00  0.00    +0.000 A 
ATOM      6  C   UNL     1       7.387   5.291  16.179  0.00  0.00    +0.000 A 
ATOM      7  C   UNL     1       6.899   5.224  17.488  0.00  0.00    +0.000 A 
BRANCH   5   8
ATOM      8  N   UNL     1       7.145   4.813  13.758  0.00  0.00    +0.000 N 
ATOM      9  O   UNL     1       6.652   4.038  12.924  0.00  0.00    +0.000 OA
ATOM     10  O   UNL     1       8.042   5.631  13.513  0.00  0.00    +0.000 OA
ENDBRANCH   5   8
ENDBRANCH   1   2
BRANCH   1  11
ATOM     11  O   UNL     1       4.521   5.772  19.581  0.00  0.00    +0.000 OA
BRANCH  11  13
ATOM     12  O   UNL     1       2.449   6.749  19.567  0.00  0.00    +0.000 OA
ATOM     13  C   UNL     1       3.161   5.752  19.604  0.00  0.00    +0.000 C 
BRANCH  13  14
ATOM     14  C   UNL     1       2.623   4.344  19.787  0.00  0.00    +0.000 C 
ATOM     15  C   UNL     1       2.020   4.145  21.177  0.00  0.00    +0.000 C 
ATOM     16  C   UNL     1       1.217   2.858  21.053  0.00  0.00    +0.000 C 
ATOM     17  C   UNL     1       0.758   2.802  19.599  0.00  0.00    +0.000 C 
ATOM     18  C   UNL     1       1.447   3.967  18.886  0.00  0.00    +0.000 C 
ENDBRANCH  13  14
ENDBRANCH  11  13
ENDBRANCH   1  11
TORSDOF 5
ENDMDL
MODEL 4
REMARK VINA RESULT:      -7.0      1.531      2.158
REMARK  Name = 
REMARK  5 active torsions:
REMARK  status: ('A' for Active; 'I' for Inactive)
REMARK    1  A    between atoms: C_2  and  O_3
REMARK    2  A    between atoms: C_2  and  C_14
REMARK    3  A    between atoms: O_3  and  C_4
REMARK    4  A    between atoms: C_4  and  C_5
REMARK    5  A    between atoms: C_8  and  N_9
REMARK                            x       y       z     vdW  Elec       q    Type
REMARK                         _______ _______ _______ _____ _____    ______ ____
ROOT
ATOM      1  C   UNL     1       5.244   4.236  19.247  0.00  0.00    +0.000 C 
ENDROOT
BRANCH   1   2
ATOM      2  C   UNL     1       5.747   4.347  17.827  0.00  0.00    +0.000 A 
ATOM      3  C   UNL     1       7.059   4.770  17.563  0.00  0.00    +0.000 A 
ATOM      4  C   UNL     1       7.518   4.894  16.248  0.00  0.00    +0.000 A 
ATOM      5  C   UNL     1       6.659   4.585  15.186  0.00  0.00    +0.000 A 
ATOM      6  C   UNL     1       5.351   4.145  15.433  0.00  0.00    +0.000 A 
ATOM      7  C   UNL     1       4.902   4.027  16.752  0.00  0.00    +0.000 A 
BRANCH   5   8
ATOM      8  N   UNL     1       7.126   4.723  13.801  0.00  0.00    +0.000 N 
ATOM      9  O   UNL     1       6.625   3.975  12.946  0.00  0.00    +0.000 OA
ATOM     10  O   UNL     1       7.989   5.579  13.565  0.00  0.00    +0.000 OA
ENDBRANCH   5   8
ENDBRANCH   1   2
BRANCH   1  11
ATOM     11  O   UNL     1       5.321   2.880  19.721  0.00  0.00    +0.000 OA
BRANCH  11  13
ATOM     12  O   UNL     1       4.380   1.723  21.460  0.00  0.00    +0.000 OA
ATOM     13  C   UNL     1       4.278   2.470  20.494  0.00  0.00    +0.000 C 
BRANCH  13  14
ATOM     14  C   UNL     1       2.949   2.969  19.955  0.00  0.00    +0.000 C 
ATOM     15  C   UNL     1       2.330   1.976  18.971  0.00  0.00    +0.000 C 
ATOM     16  C   UNL     1       0.887   2.438  18.838  0.00  0.00    +0.000 C 
ATOM     17  C   UNL     1       0.535   3.073  20.180  0.00  0.00    +0.000 C 
ATOM     18  C   UNL     1       1.833   3.113  20.989  0.00  0.00    +0.000 C 
ENDBRANCH  13  14
ENDBRANCH  11  13
ENDBRANCH   1  11
TORSDOF 5
ENDMDL
MODEL 5
REMARK VINA RESULT:      -6.9      3.134      6.505
REMARK  Name = 
REMARK  5 active torsions:
REMARK  status: ('A' for Active; 'I' for Inactive)
REMARK    1  A    between atoms: C_2  and  O_3
REMARK    2  A    between atoms: C_2  and  C_14
REMARK    3  A    between atoms: O_3  and  C_4
REMARK    4  A    between atoms: C_4  and  C_5
REMARK    5  A    between atoms: C_8  and  N_9
REMARK                            x       y       z     vdW  Elec       q    Type
REMARK                         _______ _______ _______ _____ _____    ______ ____
ROOT
ATOM      1  C   UNL     1       4.572   4.037  15.915  0.00  0.00    +0.000 C 
ENDROOT
BRANCH   1   2
ATOM      2  C   UNL     1       3.928   3.739  17.249  0.00  0.00    +0.000 A 
ATOM      3  C   UNL     1       3.406   4.776  18.039  0.00  0.00    +0.000 A 
ATOM      4  C   UNL     1       2.829   4.503  19.283  0.00  0.00    +0.000 A 
ATOM      5  C   UNL     1       2.767   3.181  19.739  0.00  0.00    +0.000 A 
ATOM      6  C   UNL     1       3.268   2.133  18.955  0.00  0.00    +0.000 A 
ATOM      7  C   UNL     1       3.845   2.418  17.713  0.00  0.00    +0.000 A 
BRANCH   5   8
ATOM      8  N   UNL     1       2.174   2.884  21.050  0.00  0.00    +0.000 N 
ATOM      9  O   UNL     1       0.958   3.085  21.191  0.00  0.00    +0.000 OA
ATOM     10  O   UNL     1       2.921   2.448  21.936  0.00  0.00    +0.000 OA
ENDBRANCH   5   8
ENDBRANCH   1   2
BRANCH   1  11
ATOM     11  O   UNL     1       6.000   3.874  15.980  0.00  0.00    +0.000 OA
BRANCH  11  13
ATOM     12  O   UNL     1       7.283   5.392  14.840  0.00  0.00    +0.000 OA
ATOM     13  C   UNL     1       6.725   5.020  15.866  0.00  0.00    +0.000 C 
BRANCH  13  14
ATOM     14  C   UNL     1       6.849   5.740  17.197  0.00  0.00    +0.000 C 
ATOM     15  C   UNL     1       7.656   4.925  18.208  0.00  0.00    +0.000 C 
ATOM     16  C   UNL     1       7.994   5.923  19.304  0.00  0.00    +0.000 C 
ATOM     17  C   UNL     1       8.086   7.279  18.608  0.00  0.00    +0.000 C 
ATOM     18  C   UNL     1       7.633   7.052  17.165  0.00  0.00    +0.000 C 
ENDBRANCH  13  14
ENDBRANCH  11  13
ENDBRANCH   1  11
TORSDOF 5
ENDMDL
MODEL 6
REMARK VINA RESULT:      -6.9      3.103      6.607
REMARK  Name = 
REMARK  5 active torsions:
REMARK  status: ('A' for Active; 'I' for Inactive)
REMARK    1  A    between atoms: C_2  and  O_3
REMARK    2  A    between atoms: C_2  and  C_14
REMARK    3  A    between atoms: O_3  and  C_4
REMARK    4  A    between atoms: C_4  and  C_5
REMARK    5  A    between atoms: C_8  and  N_9
REMARK                            x       y       z     vdW  Elec       q    Type
REMARK                         _______ _______ _______ _____ _____    ______ ____
ROOT
ATOM      1  C   UNL     1       4.532   4.125  16.015  0.00  0.00    +0.000 C 
ENDROOT
BRANCH   1   2
ATOM      2  C   UNL     1       3.920   3.769  17.350  0.00  0.00    +0.000 A 
ATOM      3  C   UNL     1       3.244   2.552  17.526  0.00  0.00    +0.000 A 
ATOM      4  C   UNL     1       2.658   2.233  18.755  0.00  0.00    +0.000 A 
ATOM      5  C   UNL     1       2.756   3.136  19.821  0.00  0.00    +0.000 A 
ATOM      6  C   UNL     1       3.443   4.347  19.666  0.00  0.00    +0.000 A 
ATOM      7  C   UNL     1       4.022   4.658  18.432  0.00  0.00    +0.000 A 
BRANCH   5   8
ATOM      8  N   UNL     1       2.135   2.816  21.113  0.00  0.00    +0.000 N 
ATOM      9  O   UNL     1       0.902   2.923  21.201  0.00  0.00    +0.000 OA
ATOM     10  O   UNL     1       2.877   2.456  22.037  0.00  0.00    +0.000 OA
ENDBRANCH   5   8
ENDBRANCH   1   2
BRANCH   1  11
ATOM     11  O   UNL     1       5.943   3.847  16.000  0.00  0.00    +0.000 OA
BRANCH  11  13
ATOM     12  O   UNL     1       6.812   5.192  14.361  0.00  0.00    +0.000 OA
ATOM     13  C   UNL     1       6.732   4.854  15.537  0.00  0.00    +0.000 C 
BRANCH  13  14
ATOM     14  C   UNL     1       7.588   5.449  16.641  0.00  0.00    +0.000 C 
ATOM     15  C   UNL     1       7.049   6.801  17.108  0.00  0.00    +0.000 C 
ATOM     16  C   UNL     1       7.771   7.055  18.423  0.00  0.00    +0.000 C 
ATOM     17  C   UNL     1       8.038   5.673  19.015  0.00  0.00    +0.000 C 
ATOM     18  C   UNL     1       7.615   4.660  17.950  0.00  0.00    +0.000 C 
ENDBRANCH  13  14
ENDBRANCH  11  13
ENDBRANCH   1  11
TORSDOF 5
ENDMDL
MODEL 7
REMARK VINA RESULT:      -6.8      3.108      6.751
REMARK  Name = 
REMARK  5 active torsions:
REMARK  status: ('A' for Active; 'I' for Inactive)
REMARK    1  A    between atoms: C_2  and  O_3
REMARK    2  A    between atoms: C_2  and  C_14
REMARK    3  A    between atoms: O_3  and  C_4
REMARK    4  A    between atoms: C_4  and  C_5
REMARK    5  A    between atoms: C_8  and  N_9
REMARK                            x       y       z     vdW  Elec       q    Type
REMARK                         _______ _______ _______ _____ _____    ______ ____
ROOT
ATOM      1  C   UNL     1       5.203   6.679  16.775  0.00  0.00    +0.000 C 
ENDROOT
BRANCH   1   2
ATOM      2  C   UNL     1       4.098   5.826  17.354  0.00  0.00    +0.000 A 
ATOM      3  C   UNL     1       3.093   6.400  18.148  0.00  0.00    +0.000 A 
ATOM      4  C   UNL     1       2.083   5.608  18.702  0.00  0.00    +0.000 A 
ATOM      5  C   UNL     1       2.073   4.229  18.455  0.00  0.00    +0.000 A 
ATOM      6  C   UNL     1       3.060   3.644  17.650  0.00  0.00    +0.000 A 
ATOM      7  C   UNL     1       4.067   4.446  17.103  0.00  0.00    +0.000 A 
BRANCH   5   8
ATOM      8  N   UNL     1       1.024   3.386  19.042  0.00  0.00    +0.000 N 
ATOM      9  O   UNL     1       0.561   2.472  18.342  0.00  0.00    +0.000 OA
ATOM     10  O   UNL     1       0.665   3.633  20.200  0.00  0.00    +0.000 OA
ENDBRANCH   5   8
ENDBRANCH   1   2
BRANCH   1  11
ATOM     11  O   UNL     1       5.680   6.136  15.531  0.00  0.00    +0.000 OA
BRANCH  11  13
ATOM     12  O   UNL     1       7.607   5.393  16.525  0.00  0.00    +0.000 OA
ATOM     13  C   UNL     1       6.776   5.334  15.626  0.00  0.00    +0.000 C 
BRANCH  13  14
ATOM     14  C   UNL     1       6.906   4.416  14.422  0.00  0.00    +0.000 C 
ATOM     15  C   UNL     1       5.540   4.028  13.858  0.00  0.00    +0.000 C 
ATOM     16  C   UNL     1       5.856   3.450  12.487  0.00  0.00    +0.000 C 
ATOM     17  C   UNL     1       7.112   4.179  12.016  0.00  0.00    +0.000 C 
ATOM     18  C   UNL     1       7.581   5.031  13.197  0.00  0.00    +0.000 C 
ENDBRANCH  13  14
ENDBRANCH  11  13
ENDBRANCH   1  11
TORSDOF 5
ENDMDL
MODEL 8
REMARK VINA RESULT:      -6.8      3.088      6.548
REMARK  Name = 
REMARK  5 active torsions:
REMARK  status: ('A' for Active; 'I' for Inactive)
REMARK    1  A    between atoms: C_2  and  O_3
REMARK    2  A    between atoms: C_2  and  C_14
REMARK    3  A    between atoms: O_3  and  C_4
REMARK    4  A    between atoms: C_4  and  C_5
REMARK    5  A    between atoms: C_8  and  N_9
REMARK                            x       y       z     vdW  Elec       q    Type
REMARK                         _______ _______ _______ _____ _____    ______ ____
ROOT
ATOM      1  C   UNL     1       4.596   4.007  16.013  0.00  0.00    +0.000 C 
ENDROOT
BRANCH   1   2
ATOM      2  C   UNL     1       3.968   3.711  17.355  0.00  0.00    +0.000 A 
ATOM      3  C   UNL     1       3.818   4.724  18.315  0.00  0.00    +0.000 A 
ATOM      4  C   UNL     1       3.257   4.444  19.565  0.00  0.00    +0.000 A 
ATOM      5  C   UNL     1       2.834   3.141  19.855  0.00  0.00    +0.000 A 
ATOM      6  C   UNL     1       2.960   2.123  18.901  0.00  0.00    +0.000 A 
ATOM      7  C   UNL     1       3.525   2.413  17.655  0.00  0.00    +0.000 A 
BRANCH   5   8
ATOM      8  N   UNL     1       2.254   2.833  21.169  0.00  0.00    +0.000 N 
ATOM      9  O   UNL     1       1.056   3.104  21.348  0.00  0.00    +0.000 OA
ATOM     10  O   UNL     1       2.992   2.319  22.020  0.00  0.00    +0.000 OA
ENDBRANCH   5   8
ENDBRANCH   1   2
BRANCH   1  11
ATOM     11  O   UNL     1       5.984   3.633  15.995  0.00  0.00    +0.000 OA
BRANCH  11  13
ATOM     12  O   UNL     1       7.023   4.802  14.320  0.00  0.00    +0.000 OA
ATOM     13  C   UNL     1       6.838   4.576  15.511  0.00  0.00    +0.000 C 
BRANCH  13  14
ATOM     14  C   UNL     1       7.618   5.253  16.624  0.00  0.00    +0.000 C 
ATOM     15  C   UNL     1       7.080   6.652  16.922  0.00  0.00    +0.000 C 
ATOM     16  C   UNL     1       7.701   7.010  18.264  0.00  0.00    +0.000 C 
ATOM     17  C   UNL     1       7.883   5.684  18.997  0.00  0.00    +0.000 C 
ATOM     18  C   UNL     1       7.519   4.586  17.996  0.00  0.00    +0.000 C 
ENDBRANCH  13  14
ENDBRANCH  11  13
ENDBRANCH   1  11
TORSDOF 5
ENDMDL
MODEL 9
REMARK VINA RESULT:      -6.8      3.006      6.581
REMARK  Name = 
REMARK  5 active torsions:
REMARK  status: ('A' for Active; 'I' for Inactive)
REMARK    1  A    between atoms: C_2  and  O_3
REMARK    2  A    between atoms: C_2  and  C_14
REMARK    3  A    between atoms: O_3  and  C_4
REMARK    4  A    between atoms: C_4  and  C_5
REMARK    5  A    between atoms: C_8  and  N_9
REMARK                            x       y       z     vdW  Elec       q    Type
REMARK                         _______ _______ _______ _____ _____    ______ ____
ROOT
ATOM      1  C   UNL     1       6.252   6.308  17.745  0.00  0.00    +0.000 C 
ENDROOT
BRANCH   1   2
ATOM      2  C   UNL     1       5.066   5.434  18.081  0.00  0.00    +0.000 A 
ATOM      3  C   UNL     1       3.796   5.718  17.554  0.00  0.00    +0.000 A 
ATOM      4  C   UNL     1       2.694   4.923  17.882  0.00  0.00    +0.000 A 
ATOM      5  C   UNL     1       2.864   3.828  18.739  0.00  0.00    +0.000 A 
ATOM      6  C   UNL     1       4.129   3.521  19.259  0.00  0.00    +0.000 A 
ATOM      7  C   UNL     1       5.224   4.325  18.926  0.00  0.00    +0.000 A 
BRANCH   5   8
ATOM      8  N   UNL     1       1.711   2.993  19.100  0.00  0.00    +0.000 N 
ATOM      9  O   UNL     1       1.639   2.586  20.270  0.00  0.00    +0.000 OA
ATOM     10  O   UNL     1       0.879   2.746  18.218  0.00  0.00    +0.000 OA
ENDBRANCH   5   8
ENDBRANCH   1   2
BRANCH   1  11
ATOM     11  O   UNL     1       6.477   6.356  16.325  0.00  0.00    +0.000 OA
BRANCH  11  13
ATOM     12  O   UNL     1       7.868   4.536  16.332  0.00  0.00    +0.000 OA
ATOM     13  C   UNL     1       7.026   5.236  15.781  0.00  0.00    +0.000 C 
BRANCH  13  14
ATOM     14  C   UNL     1       6.547   5.010  14.358  0.00  0.00    +0.000 C 
ATOM     15  C   UNL     1       7.709   4.994  13.366  0.00  0.00    +0.000 C 
ATOM     16  C   UNL     1       7.111   4.395  12.103  0.00  0.00    +0.000 C 
ATOM     17  C   UNL     1       6.014   3.447  12.580  0.00  0.00    +0.000 C 
ATOM     18  C   UNL     1       5.897   3.653  14.092  0.00  0.00    +0.000 C 
ENDBRANCH  13  14
ENDBRANCH  11  13
ENDBRANCH   1  11
TORSDOF 5
ENDMDL
