MODEL 1
REMARK VINA RESULT:      -7.7      0.000      0.000
REMARK  Name = 
REMARK  4 active torsions:
REMARK  status: ('A' for Active; 'I' for Inactive)
REMARK    1  A    between atoms: C_1  and  O_2
REMARK    2  A    between atoms: O_2  and  C_3
REMARK    3  A    between atoms: C_7  and  C_8
REMARK    4  A    between atoms: C_14  and  C_15
REMARK                            x       y       z     vdW  Elec       q    Type
REMARK                         _______ _______ _______ _____ _____    ______ ____
ROOT
ATOM      1  C   UNL     1       5.106   4.422  17.020  0.00  0.00    +0.000 C 
ATOM      2  O   UNL     1       4.831   3.286  16.641  0.00  0.00    +0.000 OA
ATOM      3  N   UNL     1       4.173   5.327  17.429  0.00  0.00    +0.000 N 
ATOM      4  N   UNL     1       4.335   6.612  17.871  0.00  0.00    +0.000 NA
ATOM      5  C   UNL     1       3.070   6.689  18.149  0.00  0.00    +0.000 C 
ATOM      6  C   UNL     1       2.776   5.265  17.731  0.00  0.00    +0.000 C 
ENDROOT
BRANCH   5   7
ATOM      7  C   UNL     1       2.248   7.742  18.699  0.00  0.00    +0.000 A 
ATOM      8  C   UNL     1       1.801   8.755  17.843  0.00  0.00    +0.000 A 
ATOM      9  C   UNL     1       1.029   9.802  18.348  0.00  0.00    +0.000 A 
ATOM     10  C   UNL     1       0.710   9.841  19.705  0.00  0.00    +0.000 A 
ATOM     11  C   UNL     1       1.152   8.829  20.557  0.00  0.00    +0.000 A 
ATOM     12  C   UNL     1       1.916   7.772  20.054  0.00  0.00    +0.000 A 
ENDBRANCH   5   7
BRANCH   6  13
ATOM     13  C   UNL     1       2.290   4.373  18.944  0.00  0.00    +0.000 A 
ATOM     14  C   UNL     1       1.168   3.525  18.832  0.00  0.00    +0.000 A 
ATOM     15  C   UNL     1       0.662   2.812  19.924  0.00  0.00    +0.000 A 
ATOM     16  C   UNL     1       1.277   2.914  21.166  0.00  0.00    +0.000 A 
ATOM     17  C   UNL     1       2.415   3.700  21.307  0.00  0.00    +0.000 A 
ATOM     18  C   UNL     1       2.914   4.406  20.210  0.00  0.00    +0.000 A 
ENDBRANCH   6  13
BRANCH   1  20
ATOM     19  C   UNL     1       7.163   4.790  15.920  0.00  0.00    +0.000 C 
ATOM     20  O   UNL     1       6.370   4.922  17.097  0.00  0.00    +0.000 OA
ENDBRANCH   1  20
TORSDOF 3
ENDMDL
MODEL 2
REMARK VINA RESULT:      -7.7      0.511      1.195
REMARK  Name = 
REMARK  4 active torsions:
REMARK  status: ('A' for Active; 'I' for Inactive)
REMARK    1  A    between atoms: C_1  and  O_2
REMARK    2  A    between atoms: O_2  and  C_3
REMARK    3  A    between atoms: C_7  and  C_8
REMARK    4  A    between atoms: C_14  and  C_15
REMARK                            x       y       z     vdW  Elec       q    Type
REMARK                         _______ _______ _______ _____ _____    ______ ____
ROOT
ATOM      1  C   UNL     1       5.225   4.822  16.958  0.00  0.00    +0.000 C 
ATOM      2  O   UNL     1       5.012   3.682  16.553  0.00  0.00    +0.000 OA
ATOM      3  N   UNL     1       4.243   5.673  17.368  0.00  0.00    +0.000 N 
ATOM      4  N   UNL     1       4.334   6.955  17.836  0.00  0.00    +0.000 NA
ATOM      5  C   UNL     1       3.063   6.966  18.093  0.00  0.00    +0.000 C 
ATOM      6  C   UNL     1       2.845   5.537  17.643  0.00  0.00    +0.000 C 
ENDROOT
BRANCH   5   7
ATOM      7  C   UNL     1       2.181   7.967  18.648  0.00  0.00    +0.000 A 
ATOM      8  C   UNL     1       1.901   7.925  20.018  0.00  0.00    +0.000 A 
ATOM      9  C   UNL     1       1.031   8.860  20.580  0.00  0.00    +0.000 A 
ATOM     10  C   UNL     1       0.438   9.831  19.774  0.00  0.00    +0.000 A 
ATOM     11  C   UNL     1       0.721   9.876  18.408  0.00  0.00    +0.000 A 
ATOM     12  C   UNL     1       1.600   8.949  17.843  0.00  0.00    +0.000 A 
ENDBRANCH   5   7
BRANCH   6  13
ATOM     13  C   UNL     1       2.384   4.599  18.831  0.00  0.00    +0.000 A 
ATOM     14  C   UNL     1       1.295   3.712  18.689  0.00  0.00    +0.000 A 
ATOM     15  C   UNL     1       0.808   2.955  19.760  0.00  0.00    +0.000 A 
ATOM     16  C   UNL     1       1.408   3.052  21.010  0.00  0.00    +0.000 A 
ATOM     17  C   UNL     1       2.514   3.877  21.179  0.00  0.00    +0.000 A 
ATOM     18  C   UNL     1       2.994   4.627  20.104  0.00  0.00    +0.000 A 
ENDBRANCH   6  13
BRANCH   1  20
ATOM     19  C   UNL     1       7.439   4.600  17.751  0.00  0.00    +0.000 C 
ATOM     20  O   UNL     1       6.461   5.381  17.066  0.00  0.00    +0.000 OA
ENDBRANCH   1  20
TORSDOF 3
ENDMDL
MODEL 3
REMARK VINA RESULT:      -7.7      0.168      1.530
REMARK  Name = 
REMARK  4 active torsions:
REMARK  status: ('A' for Active; 'I' for Inactive)
REMARK    1  A    between atoms: C_1  and  O_2
REMARK    2  A    between atoms: O_2  and  C_3
REMARK    3  A    between atoms: C_7  and  C_8
REMARK    4  A    between atoms: C_14  and  C_15
REMARK                            x       y       z     vdW  Elec       q    Type
REMARK                         _______ _______ _______ _____ _____    ______ ____
ROOT
ATOM      1  C   UNL     1       5.021   4.385  17.211  0.00  0.00    +0.000 C 
ATOM      2  O   UNL     1       4.725   3.244  16.862  0.00  0.00    +0.000 OA
ATOM      3  N   UNL     1       4.104   5.329  17.559  0.00  0.00    +0.000 N 
ATOM      4  N   UNL     1       4.289   6.624  17.961  0.00  0.00    +0.000 NA
ATOM      5  C   UNL     1       3.019   6.746  18.196  0.00  0.00    +0.000 C 
ATOM      6  C   UNL     1       2.696   5.317  17.818  0.00  0.00    +0.000 C 
ENDROOT
BRANCH   5   7
ATOM      7  C   UNL     1       2.212   7.841  18.683  0.00  0.00    +0.000 A 
ATOM      8  C   UNL     1       1.887   7.878  20.043  0.00  0.00    +0.000 A 
ATOM      9  C   UNL     1       1.085   8.906  20.540  0.00  0.00    +0.000 A 
ATOM     10  C   UNL     1       0.603   9.891  19.679  0.00  0.00    +0.000 A 
ATOM     11  C   UNL     1       0.932   9.857  18.323  0.00  0.00    +0.000 A 
ATOM     12  C   UNL     1       1.743   8.836  17.823  0.00  0.00    +0.000 A 
ENDBRANCH   5   7
BRANCH   6  13
ATOM     13  C   UNL     1       2.148   4.482  19.045  0.00  0.00    +0.000 A 
ATOM     14  C   UNL     1       2.698   4.626  20.337  0.00  0.00    +0.000 A 
ATOM     15  C   UNL     1       2.298   3.820  21.409  0.00  0.00    +0.000 A 
ATOM     16  C   UNL     1       1.319   2.851  21.223  0.00  0.00    +0.000 A 
ATOM     17  C   UNL     1       0.718   2.712  19.978  0.00  0.00    +0.000 A 
ATOM     18  C   UNL     1       1.121   3.522  18.915  0.00  0.00    +0.000 A 
ENDBRANCH   6  13
BRANCH   1  20
ATOM     19  C   UNL     1       7.075   4.791  16.118  0.00  0.00    +0.000 C 
ATOM     20  O   UNL     1       6.296   4.851  17.310  0.00  0.00    +0.000 OA
ENDBRANCH   1  20
TORSDOF 3
ENDMDL
MODEL 4
REMARK VINA RESULT:      -7.6      0.173      1.084
REMARK  Name = 
REMARK  4 active torsions:
REMARK  status: ('A' for Active; 'I' for Inactive)
REMARK    1  A    between atoms: C_1  and  O_2
REMARK    2  A    between atoms: O_2  and  C_3
REMARK    3  A    between atoms: C_7  and  C_8
REMARK    4  A    between atoms: C_14  and  C_15
REMARK                            x       y       z     vdW  Elec       q    Type
REMARK                         _______ _______ _______ _____ _____    ______ ____
ROOT
ATOM      1  C   UNL     1       5.060   4.356  17.227  0.00  0.00    +0.000 C 
ATOM      2  O   UNL     1       4.767   3.216  16.873  0.00  0.00    +0.000 OA
ATOM      3  N   UNL     1       4.139   5.299  17.571  0.00  0.00    +0.000 N 
ATOM      4  N   UNL     1       4.321   6.593  17.978  0.00  0.00    +0.000 NA
ATOM      5  C   UNL     1       3.049   6.713  18.205  0.00  0.00    +0.000 C 
ATOM      6  C   UNL     1       2.730   5.285  17.821  0.00  0.00    +0.000 C 
ENDROOT
BRANCH   5   7
ATOM      7  C   UNL     1       2.238   7.806  18.689  0.00  0.00    +0.000 A 
ATOM      8  C   UNL     1       1.852   8.802  17.786  0.00  0.00    +0.000 A 
ATOM      9  C   UNL     1       1.092   9.886  18.228  0.00  0.00    +0.000 A 
ATOM     10  C   UNL     1       0.724   9.978  19.570  0.00  0.00    +0.000 A 
ATOM     11  C   UNL     1       1.105   8.982  20.469  0.00  0.00    +0.000 A 
ATOM     12  C   UNL     1       1.856   7.889  20.030  0.00  0.00    +0.000 A 
ENDBRANCH   5   7
BRANCH   6  13
ATOM     13  C   UNL     1       2.175   4.446  19.042  0.00  0.00    +0.000 A 
ATOM     14  C   UNL     1       2.737   4.562  20.332  0.00  0.00    +0.000 A 
ATOM     15  C   UNL     1       2.330   3.752  21.396  0.00  0.00    +0.000 A 
ATOM     16  C   UNL     1       1.330   2.805  21.207  0.00  0.00    +0.000 A 
ATOM     17  C   UNL     1       0.716   2.694  19.965  0.00  0.00    +0.000 A 
ATOM     18  C   UNL     1       1.127   3.509  18.909  0.00  0.00    +0.000 A 
ENDBRANCH   6  13
BRANCH   1  20
ATOM     19  C   UNL     1       7.048   4.973  16.111  0.00  0.00    +0.000 C 
ATOM     20  O   UNL     1       6.334   4.823  17.336  0.00  0.00    +0.000 OA
ENDBRANCH   1  20
TORSDOF 3
ENDMDL
MODEL 5
REMARK VINA RESULT:      -7.4      3.049      6.062
REMARK  Name = 
REMARK  4 active torsions:
REMARK  status: ('A' for Active; 'I' for Inactive)
REMARK    1  A    between atoms: C_1  and  O_2
REMARK    2  A    between atoms: O_2  and  C_3
REMARK    3  A    between atoms: C_7  and  C_8
REMARK    4  A    between atoms: C_14  and  C_15
REMARK                            x       y       z     vdW  Elec       q    Type
REMARK                         _______ _______ _______ _____ _____    ______ ____
ROOT
ATOM      1  C   UNL     1       7.589   6.038  18.674  0.00  0.00    +0.000 C 
ATOM      2  O   UNL     1       7.261   5.561  19.758  0.00  0.00    +0.000 OA
ATOM      3  N   UNL     1       7.290   5.464  17.476  0.00  0.00    +0.000 N 
ATOM      4  N   UNL     1       7.589   5.880  16.207  0.00  0.00    +0.000 NA
ATOM      5  C   UNL     1       6.881   4.914  15.709  0.00  0.00    +0.000 C 
ATOM      6  C   UNL     1       6.446   4.386  17.059  0.00  0.00    +0.000 C 
ENDROOT
BRANCH   5   7
ATOM      7  C   UNL     1       6.584   4.511  14.354  0.00  0.00    +0.000 A 
ATOM      8  C   UNL     1       5.335   3.940  14.085  0.00  0.00    +0.000 A 
ATOM      9  C   UNL     1       5.028   3.515  12.793  0.00  0.00    +0.000 A 
ATOM     10  C   UNL     1       5.968   3.653  11.772  0.00  0.00    +0.000 A 
ATOM     11  C   UNL     1       7.211   4.227  12.039  0.00  0.00    +0.000 A 
ATOM     12  C   UNL     1       7.520   4.665  13.329  0.00  0.00    +0.000 A 
ENDBRANCH   5   7
BRANCH   6  13
ATOM     13  C   UNL     1       4.883   4.507  17.273  0.00  0.00    +0.000 A 
ATOM     14  C   UNL     1       4.270   5.751  17.540  0.00  0.00    +0.000 A 
ATOM     15  C   UNL     1       2.908   5.859  17.837  0.00  0.00    +0.000 A 
ATOM     16  C   UNL     1       2.108   4.723  17.860  0.00  0.00    +0.000 A 
ATOM     17  C   UNL     1       2.663   3.486  17.553  0.00  0.00    +0.000 A 
ATOM     18  C   UNL     1       4.023   3.388  17.255  0.00  0.00    +0.000 A 
ENDBRANCH   6  13
BRANCH   1  20
ATOM     19  C   UNL     1       7.618   8.223  17.777  0.00  0.00    +0.000 C 
ATOM     20  O   UNL     1       8.276   7.203  18.525  0.00  0.00    +0.000 OA
ENDBRANCH   1  20
TORSDOF 3
ENDMDL
MODEL 6
REMARK VINA RESULT:      -7.4      3.029      6.026
REMARK  Name = 
REMARK  4 active torsions:
REMARK  status: ('A' for Active; 'I' for Inactive)
REMARK    1  A    between atoms: C_1  and  O_2
REMARK    2  A    between atoms: O_2  and  C_3
REMARK    3  A    between atoms: C_7  and  C_8
REMARK    4  A    between atoms: C_14  and  C_15
REMARK                            x       y       z     vdW  Elec       q    Type
REMARK                         _______ _______ _______ _____ _____    ______ ____
ROOT
ATOM      1  C   UNL     1       7.594   6.061  18.739  0.00  0.00    +0.000 C 
ATOM      2  O   UNL     1       7.241   5.609  19.826  0.00  0.00    +0.000 OA
ATOM      3  N   UNL     1       7.295   5.476  17.546  0.00  0.00    +0.000 N 
ATOM      4  N   UNL     1       7.621   5.864  16.275  0.00  0.00    +0.000 NA
ATOM      5  C   UNL     1       6.895   4.908  15.783  0.00  0.00    +0.000 C 
ATOM      6  C   UNL     1       6.430   4.413  17.135  0.00  0.00    +0.000 C 
ENDROOT
BRANCH   5   7
ATOM      7  C   UNL     1       6.605   4.492  14.431  0.00  0.00    +0.000 A 
ATOM      8  C   UNL     1       7.541   4.774  13.430  0.00  0.00    +0.000 A 
ATOM      9  C   UNL     1       7.278   4.411  12.108  0.00  0.00    +0.000 A 
ATOM     10  C   UNL     1       6.080   3.773  11.786  0.00  0.00    +0.000 A 
ATOM     11  C   UNL     1       5.149   3.488  12.785  0.00  0.00    +0.000 A 
ATOM     12  C   UNL     1       5.413   3.839  14.112  0.00  0.00    +0.000 A 
ENDBRANCH   5   7
BRANCH   6  13
ATOM     13  C   UNL     1       4.867   4.578  17.327  0.00  0.00    +0.000 A 
ATOM     14  C   UNL     1       4.287   5.836  17.599  0.00  0.00    +0.000 A 
ATOM     15  C   UNL     1       2.924   5.981  17.876  0.00  0.00    +0.000 A 
ATOM     16  C   UNL     1       2.091   4.868  17.875  0.00  0.00    +0.000 A 
ATOM     17  C   UNL     1       2.615   3.619  17.563  0.00  0.00    +0.000 A 
ATOM     18  C   UNL     1       3.976   3.484  17.285  0.00  0.00    +0.000 A 
ENDBRANCH   6  13
BRANCH   1  20
ATOM     19  C   UNL     1       7.683   8.237  17.824  0.00  0.00    +0.000 C 
ATOM     20  O   UNL     1       8.314   7.206  18.580  0.00  0.00    +0.000 OA
ENDBRANCH   1  20
TORSDOF 3
ENDMDL
MODEL 7
REMARK VINA RESULT:      -7.4      2.040      4.151
REMARK  Name = 
REMARK  4 active torsions:
REMARK  status: ('A' for Active; 'I' for Inactive)
REMARK    1  A    between atoms: C_1  and  O_2
REMARK    2  A    between atoms: O_2  and  C_3
REMARK    3  A    between atoms: C_7  and  C_8
REMARK    4  A    between atoms: C_14  and  C_15
REMARK                            x       y       z     vdW  Elec       q    Type
REMARK                         _______ _______ _______ _____ _____    ______ ____
ROOT
ATOM      1  C   UNL     1       3.687   2.879  19.946  0.00  0.00    +0.000 C 
ATOM      2  O   UNL     1       4.824   2.429  20.062  0.00  0.00    +0.000 OA
ATOM      3  N   UNL     1       3.411   4.204  19.797  0.00  0.00    +0.000 N 
ATOM      4  N   UNL     1       2.206   4.839  19.660  0.00  0.00    +0.000 NA
ATOM      5  C   UNL     1       2.809   5.969  19.460  0.00  0.00    +0.000 C 
ATOM      6  C   UNL     1       4.198   5.374  19.548  0.00  0.00    +0.000 C 
ENDROOT
BRANCH   5   7
ATOM      7  C   UNL     1       2.328   7.307  19.205  0.00  0.00    +0.000 A 
ATOM      8  C   UNL     1       1.665   7.986  20.234  0.00  0.00    +0.000 A 
ATOM      9  C   UNL     1       1.162   9.268  20.011  0.00  0.00    +0.000 A 
ATOM     10  C   UNL     1       1.316   9.869  18.762  0.00  0.00    +0.000 A 
ATOM     11  C   UNL     1       1.981   9.194  17.738  0.00  0.00    +0.000 A 
ATOM     12  C   UNL     1       2.496   7.914  17.959  0.00  0.00    +0.000 A 
ENDBRANCH   5   7
BRANCH   6  13
ATOM     13  C   UNL     1       4.987   5.492  18.182  0.00  0.00    +0.000 A 
ATOM     14  C   UNL     1       4.494   4.910  16.994  0.00  0.00    +0.000 A 
ATOM     15  C   UNL     1       5.229   4.913  15.804  0.00  0.00    +0.000 A 
ATOM     16  C   UNL     1       6.481   5.515  15.761  0.00  0.00    +0.000 A 
ATOM     17  C   UNL     1       6.981   6.143  16.897  0.00  0.00    +0.000 A 
ATOM     18  C   UNL     1       6.239   6.137  18.079  0.00  0.00    +0.000 A 
ENDBRANCH   6  13
BRANCH   1  20
ATOM     19  C   UNL     1       2.083   1.728  18.648  0.00  0.00    +0.000 C 
ATOM     20  O   UNL     1       2.558   2.119  19.935  0.00  0.00    +0.000 OA
ENDBRANCH   1  20
TORSDOF 3
ENDMDL
MODEL 8
REMARK VINA RESULT:      -7.4      3.121      5.955
REMARK  Name = 
REMARK  4 active torsions:
REMARK  status: ('A' for Active; 'I' for Inactive)
REMARK    1  A    between atoms: C_1  and  O_2
REMARK    2  A    between atoms: O_2  and  C_3
REMARK    3  A    between atoms: C_7  and  C_8
REMARK    4  A    between atoms: C_14  and  C_15
REMARK                            x       y       z     vdW  Elec       q    Type
REMARK                         _______ _______ _______ _____ _____    ______ ____
ROOT
ATOM      1  C   UNL     1       7.655   6.095  18.681  0.00  0.00    +0.000 C 
ATOM      2  O   UNL     1       7.394   5.621  19.785  0.00  0.00    +0.000 OA
ATOM      3  N   UNL     1       7.327   5.492  17.505  0.00  0.00    +0.000 N 
ATOM      4  N   UNL     1       7.554   5.900  16.219  0.00  0.00    +0.000 NA
ATOM      5  C   UNL     1       6.865   4.899  15.766  0.00  0.00    +0.000 C 
ATOM      6  C   UNL     1       6.510   4.375  17.140  0.00  0.00    +0.000 C 
ENDROOT
BRANCH   5   7
ATOM      7  C   UNL     1       6.525   4.465  14.430  0.00  0.00    +0.000 A 
ATOM      8  C   UNL     1       7.487   4.592  13.422  0.00  0.00    +0.000 A 
ATOM      9  C   UNL     1       7.181   4.209  12.116  0.00  0.00    +0.000 A 
ATOM     10  C   UNL     1       5.915   3.705  11.816  0.00  0.00    +0.000 A 
ATOM     11  C   UNL     1       4.958   3.573  12.823  0.00  0.00    +0.000 A 
ATOM     12  C   UNL     1       5.263   3.945  14.134  0.00  0.00    +0.000 A 
ENDBRANCH   5   7
BRANCH   6  13
ATOM     13  C   UNL     1       4.954   4.438  17.421  0.00  0.00    +0.000 A 
ATOM     14  C   UNL     1       4.146   3.283  17.353  0.00  0.00    +0.000 A 
ATOM     15  C   UNL     1       2.755   3.339  17.493  0.00  0.00    +0.000 A 
ATOM     16  C   UNL     1       2.128   4.558  17.722  0.00  0.00    +0.000 A 
ATOM     17  C   UNL     1       2.893   5.712  17.845  0.00  0.00    +0.000 A 
ATOM     18  C   UNL     1       4.280   5.646  17.707  0.00  0.00    +0.000 A 
ENDBRANCH   6  13
BRANCH   1  20
ATOM     19  C   UNL     1       7.554   8.269  17.763  0.00  0.00    +0.000 C 
ATOM     20  O   UNL     1       8.289   7.284  18.486  0.00  0.00    +0.000 OA
ENDBRANCH   1  20
TORSDOF 3
ENDMDL
MODEL 9
REMARK VINA RESULT:      -7.4      3.140      5.993
REMARK  Name = 
REMARK  4 active torsions:
REMARK  status: ('A' for Active; 'I' for Inactive)
REMARK    1  A    between atoms: C_1  and  O_2
REMARK    2  A    between atoms: O_2  and  C_3
REMARK    3  A    between atoms: C_7  and  C_8
REMARK    4  A    between atoms: C_14  and  C_15
REMARK                            x       y       z     vdW  Elec       q    Type
REMARK                         _______ _______ _______ _____ _____    ______ ____
ROOT
ATOM      1  C   UNL     1       7.673   6.097  18.704  0.00  0.00    +0.000 C 
ATOM      2  O   UNL     1       7.411   5.605  19.799  0.00  0.00    +0.000 OA
ATOM      3  N   UNL     1       7.354   5.509  17.518  0.00  0.00    +0.000 N 
ATOM      4  N   UNL     1       7.583   5.938  16.238  0.00  0.00    +0.000 NA
ATOM      5  C   UNL     1       6.902   4.940  15.768  0.00  0.00    +0.000 C 
ATOM      6  C   UNL     1       6.545   4.393  17.133  0.00  0.00    +0.000 C 
ENDROOT
BRANCH   5   7
ATOM      7  C   UNL     1       6.570   4.524  14.425  0.00  0.00    +0.000 A 
ATOM      8  C   UNL     1       5.297   3.995  14.184  0.00  0.00    +0.000 A 
ATOM      9  C   UNL     1       4.955   3.558  12.905  0.00  0.00    +0.000 A 
ATOM     10  C   UNL     1       5.884   3.642  11.868  0.00  0.00    +0.000 A 
ATOM     11  C   UNL     1       7.152   4.174  12.107  0.00  0.00    +0.000 A 
ATOM     12  C   UNL     1       7.496   4.623  13.384  0.00  0.00    +0.000 A 
ENDBRANCH   5   7
BRANCH   6  13
ATOM     13  C   UNL     1       4.988   4.441  17.409  0.00  0.00    +0.000 A 
ATOM     14  C   UNL     1       4.194   3.275  17.354  0.00  0.00    +0.000 A 
ATOM     15  C   UNL     1       2.802   3.317  17.490  0.00  0.00    +0.000 A 
ATOM     16  C   UNL     1       2.160   4.531  17.700  0.00  0.00    +0.000 A 
ATOM     17  C   UNL     1       2.910   5.696  17.810  0.00  0.00    +0.000 A 
ATOM     18  C   UNL     1       4.299   5.644  17.676  0.00  0.00    +0.000 A 
ENDBRANCH   6  13
BRANCH   1  20
ATOM     19  C   UNL     1       7.575   8.272  17.788  0.00  0.00    +0.000 C 
ATOM     20  O   UNL     1       8.299   7.293  18.529  0.00  0.00    +0.000 OA
ENDBRANCH   1  20
TORSDOF 3
ENDMDL
