MODEL 1
REMARK VINA RESULT:      -7.6      0.000      0.000
REMARK  Name = 
REMARK  12 active torsions:
REMARK  status: ('A' for Active; 'I' for Inactive)
REMARK    1  A    between atoms: C_2  and  O_3
REMARK    2  A    between atoms: C_2  and  C_25
REMARK    3  A    between atoms: O_3  and  C_4
REMARK    4  A    between atoms: C_7  and  O_8
REMARK    5  A    between atoms: C_10  and  O_11
REMARK    6  A    between atoms: C_15  and  C_16
REMARK    7  A    between atoms: C_18  and  O_19
REMARK    8  A    between atoms: C_20  and  O_21
REMARK    9  A    between atoms: C_22  and  O_23
REMARK   10  A    between atoms: C_27  and  O_28
REMARK   11  A    between atoms: C_29  and  O_30
REMARK   12  A    between atoms: C_31  and  O_32
REMARK                            x       y       z     vdW  Elec       q    Type
REMARK                         _______ _______ _______ _____ _____    ______ ____
ROOT
ATOM      1  C   UNL     1       1.487   9.733  18.899  0.00  0.00    +0.000 C 
ATOM      2  C   UNL     1       1.963  11.019  18.205  0.00  0.00    +0.000 C 
ATOM      3  C   UNL     1       1.733  12.248  19.049  0.00  0.00    +0.000 A 
ATOM      4  C   UNL     1       2.170  13.520  18.653  0.00  0.00    +0.000 A 
ATOM      5  C   UNL     1       1.928  14.651  19.436  0.00  0.00    +0.000 A 
ATOM      6  C   UNL     1       1.256  14.514  20.643  0.00  0.00    +0.000 A 
ATOM      7  C   UNL     1       0.821  13.268  21.071  0.00  0.00    +0.000 A 
ATOM      8  C   UNL     1       1.027  12.150  20.257  0.00  0.00    +0.000 A 
ATOM      9  O   UNL     1       0.409  10.995  20.679  0.00  0.00    +0.000 OA
ATOM     10  C   UNL     1       0.149  10.035  19.627  0.00  0.00    +0.000 C 
ENDROOT
BRANCH  10  11
ATOM     11  C   UNL     1      -1.035  10.445  18.729  0.00  0.00    +0.000 A 
ATOM     12  C   UNL     1      -1.252   9.881  17.453  0.00  0.00    +0.000 A 
ATOM     13  C   UNL     1      -2.401  10.186  16.727  0.00  0.00    +0.000 A 
ATOM     14  C   UNL     1      -3.325  11.090  17.228  0.00  0.00    +0.000 A 
ATOM     15  C   UNL     1      -3.090  11.711  18.440  0.00  0.00    +0.000 A 
ATOM     16  C   UNL     1      -1.956  11.407  19.179  0.00  0.00    +0.000 A 
BRANCH  13  17
ATOM     17  O   UNL     1      -2.668   9.603  15.520  0.00  0.00    +0.000 OA
ATOM     18  H   UNL     1      -2.045   9.967  14.866  0.00  0.00    +0.000 HD
ENDBRANCH  13  17
BRANCH  14  19
ATOM     19  O   UNL     1      -4.468  11.380  16.536  0.00  0.00    +0.000 OA
ATOM     20  H   UNL     1      -4.345  10.927  15.677  0.00  0.00    +0.000 HD
ENDBRANCH  14  19
BRANCH  15  21
ATOM     21  O   UNL     1      -3.978  12.621  18.937  0.00  0.00    +0.000 OA
ATOM     22  H   UNL     1      -3.961  13.355  18.293  0.00  0.00    +0.000 HD
ENDBRANCH  15  21
ENDBRANCH  10  11
BRANCH   4  23
ATOM     23  O   UNL     1       2.827  13.747  17.476  0.00  0.00    +0.000 OA
ATOM     24  H   UNL     1       2.193  13.777  16.743  0.00  0.00    +0.000 HD
ENDBRANCH   4  23
BRANCH   6  25
ATOM     25  O   UNL     1       0.968  15.594  21.425  0.00  0.00    +0.000 OA
ATOM     26  H   UNL     1       1.332  15.442  22.313  0.00  0.00    +0.000 HD
ENDBRANCH   6  25
BRANCH   1  27
ATOM     27  O   UNL     1       1.344   8.609  17.994  0.00  0.00    +0.000 OA
BRANCH  27  29
ATOM     28  O   UNL     1       3.411   8.164  17.123  0.00  0.00    +0.000 OA
ATOM     29  C   UNL     1       2.431   7.835  17.773  0.00  0.00    +0.000 C 
BRANCH  29  30
ATOM     30  C   UNL     1       2.315   6.498  18.431  0.00  0.00    +0.000 A 
ATOM     31  C   UNL     1       2.128   5.378  17.595  0.00  0.00    +0.000 A 
ATOM     32  C   UNL     1       2.054   4.102  18.147  0.00  0.00    +0.000 A 
ATOM     33  C   UNL     1       2.167   3.928  19.520  0.00  0.00    +0.000 A 
ATOM     34  C   UNL     1       2.344   5.025  20.348  0.00  0.00    +0.000 A 
ATOM     35  C   UNL     1       2.414   6.313  19.819  0.00  0.00    +0.000 A 
BRANCH  32  36
ATOM     36  O   UNL     1       1.877   2.987  17.378  0.00  0.00    +0.000 OA
ATOM     37  H   UNL     1       1.181   3.169  16.722  0.00  0.00    +0.000 HD
ENDBRANCH  32  36
BRANCH  33  38
ATOM     38  O   UNL     1       2.112   2.677  20.072  0.00  0.00    +0.000 OA
ATOM     39  H   UNL     1       1.339   2.255  19.645  0.00  0.00    +0.000 HD
ENDBRANCH  33  38
BRANCH  34  40
ATOM     40  O   UNL     1       2.459   4.847  21.698  0.00  0.00    +0.000 OA
ATOM     41  H   UNL     1       1.550   4.954  22.044  0.00  0.00    +0.000 HD
ENDBRANCH  34  40
ENDBRANCH  29  30
ENDBRANCH  27  29
ENDBRANCH   1  27
TORSDOF 12
ENDMDL
MODEL 2
REMARK VINA RESULT:      -7.4      0.134      1.443
REMARK  Name = 
REMARK  12 active torsions:
REMARK  status: ('A' for Active; 'I' for Inactive)
REMARK    1  A    between atoms: C_2  and  O_3
REMARK    2  A    between atoms: C_2  and  C_25
REMARK    3  A    between atoms: O_3  and  C_4
REMARK    4  A    between atoms: C_7  and  O_8
REMARK    5  A    between atoms: C_10  and  O_11
REMARK    6  A    between atoms: C_15  and  C_16
REMARK    7  A    between atoms: C_18  and  O_19
REMARK    8  A    between atoms: C_20  and  O_21
REMARK    9  A    between atoms: C_22  and  O_23
REMARK   10  A    between atoms: C_27  and  O_28
REMARK   11  A    between atoms: C_29  and  O_30
REMARK   12  A    between atoms: C_31  and  O_32
REMARK                            x       y       z     vdW  Elec       q    Type
REMARK                         _______ _______ _______ _____ _____    ______ ____
ROOT
ATOM      1  C   UNL     1       1.386   9.775  18.963  0.00  0.00    +0.000 C 
ATOM      2  C   UNL     1       1.873  11.054  18.265  0.00  0.00    +0.000 C 
ATOM      3  C   UNL     1       1.629  12.291  19.093  0.00  0.00    +0.000 A 
ATOM      4  C   UNL     1       2.072  13.559  18.692  0.00  0.00    +0.000 A 
ATOM      5  C   UNL     1       1.816  14.697  19.461  0.00  0.00    +0.000 A 
ATOM      6  C   UNL     1       1.124  14.571  20.657  0.00  0.00    +0.000 A 
ATOM      7  C   UNL     1       0.682  13.330  21.089  0.00  0.00    +0.000 A 
ATOM      8  C   UNL     1       0.902  12.204  20.290  0.00  0.00    +0.000 A 
ATOM      9  O   UNL     1       0.278  11.053  20.712  0.00  0.00    +0.000 OA
ATOM     10  C   UNL     1       0.035  10.083  19.665  0.00  0.00    +0.000 C 
ENDROOT
BRANCH  10  11
ATOM     11  C   UNL     1      -1.133  10.483  18.743  0.00  0.00    +0.000 A 
ATOM     12  C   UNL     1      -1.319   9.918  17.462  0.00  0.00    +0.000 A 
ATOM     13  C   UNL     1      -2.456  10.215  16.713  0.00  0.00    +0.000 A 
ATOM     14  C   UNL     1      -3.396  11.111  17.194  0.00  0.00    +0.000 A 
ATOM     15  C   UNL     1      -3.192  11.734  18.411  0.00  0.00    +0.000 A 
ATOM     16  C   UNL     1      -2.070  11.439  19.173  0.00  0.00    +0.000 A 
BRANCH  13  17
ATOM     17  O   UNL     1      -2.694   9.628  15.501  0.00  0.00    +0.000 OA
ATOM     18  H   UNL     1      -3.565   9.930  15.188  0.00  0.00    +0.000 HD
ENDBRANCH  13  17
BRANCH  14  19
ATOM     19  O   UNL     1      -4.527  11.392  16.480  0.00  0.00    +0.000 OA
ATOM     20  H   UNL     1      -5.243  11.354  17.147  0.00  0.00    +0.000 HD
ENDBRANCH  14  19
BRANCH  15  21
ATOM     21  O   UNL     1      -4.097  12.637  18.889  0.00  0.00    +0.000 OA
ATOM     22  H   UNL     1      -4.408  13.113  18.096  0.00  0.00    +0.000 HD
ENDBRANCH  15  21
ENDBRANCH  10  11
BRANCH   4  23
ATOM     23  O   UNL     1       2.750  13.775  17.525  0.00  0.00    +0.000 OA
ATOM     24  H   UNL     1       3.282  12.996  17.302  0.00  0.00    +0.000 HD
ENDBRANCH   4  23
BRANCH   6  25
ATOM     25  O   UNL     1       0.821  15.659  21.423  0.00  0.00    +0.000 OA
ATOM     26  H   UNL     1       0.163  15.398  22.089  0.00  0.00    +0.000 HD
ENDBRANCH   6  25
BRANCH   1  27
ATOM     27  O   UNL     1       1.259   8.642  18.067  0.00  0.00    +0.000 OA
BRANCH  27  29
ATOM     28  O   UNL     1       3.348   8.303  17.201  0.00  0.00    +0.000 OA
ATOM     29  C   UNL     1       2.368   7.910  17.814  0.00  0.00    +0.000 C 
BRANCH  29  30
ATOM     30  C   UNL     1       2.278   6.532  18.386  0.00  0.00    +0.000 A 
ATOM     31  C   UNL     1       2.439   6.396  19.780  0.00  0.00    +0.000 A 
ATOM     32  C   UNL     1       2.326   5.142  20.375  0.00  0.00    +0.000 A 
ATOM     33  C   UNL     1       2.051   4.024  19.599  0.00  0.00    +0.000 A 
ATOM     34  C   UNL     1       1.898   4.149  18.227  0.00  0.00    +0.000 A 
ATOM     35  C   UNL     1       2.014   5.393  17.608  0.00  0.00    +0.000 A 
BRANCH  32  36
ATOM     36  O   UNL     1       2.471   4.961  21.720  0.00  0.00    +0.000 OA
ATOM     37  H   UNL     1       3.045   5.667  22.069  0.00  0.00    +0.000 HD
ENDBRANCH  32  36
BRANCH  33  38
ATOM     38  O   UNL     1       1.922   2.789  20.175  0.00  0.00    +0.000 OA
ATOM     39  H   UNL     1       1.020   2.790  20.555  0.00  0.00    +0.000 HD
ENDBRANCH  33  38
BRANCH  34  40
ATOM     40  O   UNL     1       1.622   3.046  17.469  0.00  0.00    +0.000 OA
ATOM     41  H   UNL     1       1.590   3.377  16.548  0.00  0.00    +0.000 HD
ENDBRANCH  34  40
ENDBRANCH  29  30
ENDBRANCH  27  29
ENDBRANCH   1  27
TORSDOF 12
ENDMDL
MODEL 3
REMARK VINA RESULT:      -7.4      0.191      2.038
REMARK  Name = 
REMARK  12 active torsions:
REMARK  status: ('A' for Active; 'I' for Inactive)
REMARK    1  A    between atoms: C_2  and  O_3
REMARK    2  A    between atoms: C_2  and  C_25
REMARK    3  A    between atoms: O_3  and  C_4
REMARK    4  A    between atoms: C_7  and  O_8
REMARK    5  A    between atoms: C_10  and  O_11
REMARK    6  A    between atoms: C_15  and  C_16
REMARK    7  A    between atoms: C_18  and  O_19
REMARK    8  A    between atoms: C_20  and  O_21
REMARK    9  A    between atoms: C_22  and  O_23
REMARK   10  A    between atoms: C_27  and  O_28
REMARK   11  A    between atoms: C_29  and  O_30
REMARK   12  A    between atoms: C_31  and  O_32
REMARK                            x       y       z     vdW  Elec       q    Type
REMARK                         _______ _______ _______ _____ _____    ______ ____
ROOT
ATOM      1  C   UNL     1       1.467   9.703  18.962  0.00  0.00    +0.000 C 
ATOM      2  C   UNL     1       1.918  10.986  18.247  0.00  0.00    +0.000 C 
ATOM      3  C   UNL     1       1.726  12.217  19.098  0.00  0.00    +0.000 A 
ATOM      4  C   UNL     1       2.151  13.486  18.682  0.00  0.00    +0.000 A 
ATOM      5  C   UNL     1       1.944  14.619  19.473  0.00  0.00    +0.000 A 
ATOM      6  C   UNL     1       1.321  14.486  20.707  0.00  0.00    +0.000 A 
ATOM      7  C   UNL     1       0.899  13.243  21.153  0.00  0.00    +0.000 A 
ATOM      8  C   UNL     1       1.069  12.123  20.334  0.00  0.00    +0.000 A 
ATOM      9  O   UNL     1       0.465  10.970  20.782  0.00  0.00    +0.000 OA
ATOM     10  C   UNL     1       0.160  10.010  19.743  0.00  0.00    +0.000 C 
ENDROOT
BRANCH  10  11
ATOM     11  C   UNL     1      -1.058  10.422  18.893  0.00  0.00    +0.000 A 
ATOM     12  C   UNL     1      -2.025  11.345  19.347  0.00  0.00    +0.000 A 
ATOM     13  C   UNL     1      -3.040  11.785  18.500  0.00  0.00    +0.000 A 
ATOM     14  C   UNL     1      -3.146  11.280  17.214  0.00  0.00    +0.000 A 
ATOM     15  C   UNL     1      -2.255  10.317  16.779  0.00  0.00    +0.000 A 
ATOM     16  C   UNL     1      -1.232   9.879  17.607  0.00  0.00    +0.000 A 
BRANCH  13  17
ATOM     17  O   UNL     1      -3.948  12.730  18.892  0.00  0.00    +0.000 OA
ATOM     18  H   UNL     1      -3.476  13.398  19.422  0.00  0.00    +0.000 HD
ENDBRANCH  13  17
BRANCH  14  19
ATOM     19  O   UNL     1      -4.123  11.722  16.366  0.00  0.00    +0.000 OA
ATOM     20  H   UNL     1      -3.647  11.892  15.527  0.00  0.00    +0.000 HD
ENDBRANCH  14  19
BRANCH  15  21
ATOM     21  O   UNL     1      -2.359   9.793  15.523  0.00  0.00    +0.000 OA
ATOM     22  H   UNL     1      -2.717   8.895  15.663  0.00  0.00    +0.000 HD
ENDBRANCH  15  21
ENDBRANCH  10  11
BRANCH   4  23
ATOM     23  O   UNL     1       2.761  13.710  17.480  0.00  0.00    +0.000 OA
ATOM     24  H   UNL     1       2.313  13.206  16.782  0.00  0.00    +0.000 HD
ENDBRANCH   4  23
BRANCH   6  25
ATOM     25  O   UNL     1       1.067  15.569  21.497  0.00  0.00    +0.000 OA
ATOM     26  H   UNL     1       0.515  15.285  22.246  0.00  0.00    +0.000 HD
ENDBRANCH   6  25
BRANCH   1  27
ATOM     27  O   UNL     1       1.284   8.578  18.066  0.00  0.00    +0.000 OA
BRANCH  27  29
ATOM     28  O   UNL     1       3.328   8.167  17.125  0.00  0.00    +0.000 OA
ATOM     29  C   UNL     1       2.363   7.812  17.786  0.00  0.00    +0.000 C 
BRANCH  29  30
ATOM     30  C   UNL     1       2.262   6.449  18.390  0.00  0.00    +0.000 A 
ATOM     31  C   UNL     1       2.459   6.340  19.782  0.00  0.00    +0.000 A 
ATOM     32  C   UNL     1       2.338   5.102  20.407  0.00  0.00    +0.000 A 
ATOM     33  C   UNL     1       2.020   3.973  19.664  0.00  0.00    +0.000 A 
ATOM     34  C   UNL     1       1.832   4.071  18.294  0.00  0.00    +0.000 A 
ATOM     35  C   UNL     1       1.955   5.299  17.645  0.00  0.00    +0.000 A 
BRANCH  32  36
ATOM     36  O   UNL     1       2.516   4.947  21.752  0.00  0.00    +0.000 OA
ATOM     37  H   UNL     1       2.669   4.004  21.939  0.00  0.00    +0.000 HD
ENDBRANCH  32  36
BRANCH  33  38
ATOM     38  O   UNL     1       1.882   2.754  20.271  0.00  0.00    +0.000 OA
ATOM     39  H   UNL     1       2.793   2.503  20.525  0.00  0.00    +0.000 HD
ENDBRANCH  33  38
BRANCH  34  40
ATOM     40  O   UNL     1       1.514   2.959  17.569  0.00  0.00    +0.000 OA
ATOM     41  H   UNL     1       0.727   3.216  17.046  0.00  0.00    +0.000 HD
ENDBRANCH  34  40
ENDBRANCH  29  30
ENDBRANCH  27  29
ENDBRANCH   1  27
TORSDOF 12
ENDMDL
MODEL 4
REMARK VINA RESULT:      -7.2      1.277      2.119
REMARK  Name = 
REMARK  12 active torsions:
REMARK  status: ('A' for Active; 'I' for Inactive)
REMARK    1  A    between atoms: C_2  and  O_3
REMARK    2  A    between atoms: C_2  and  C_25
REMARK    3  A    between atoms: O_3  and  C_4
REMARK    4  A    between atoms: C_7  and  O_8
REMARK    5  A    between atoms: C_10  and  O_11
REMARK    6  A    between atoms: C_15  and  C_16
REMARK    7  A    between atoms: C_18  and  O_19
REMARK    8  A    between atoms: C_20  and  O_21
REMARK    9  A    between atoms: C_22  and  O_23
REMARK   10  A    between atoms: C_27  and  O_28
REMARK   11  A    between atoms: C_29  and  O_30
REMARK   12  A    between atoms: C_31  and  O_32
REMARK                            x       y       z     vdW  Elec       q    Type
REMARK                         _______ _______ _______ _____ _____    ______ ____
ROOT
ATOM      1  C   UNL     1       1.544  10.095  19.397  0.00  0.00    +0.000 C 
ATOM      2  C   UNL     1       2.029  11.248  18.506  0.00  0.00    +0.000 C 
ATOM      3  C   UNL     1       1.747  12.602  19.110  0.00  0.00    +0.000 A 
ATOM      4  C   UNL     1       2.181  13.793  18.511  0.00  0.00    +0.000 A 
ATOM      5  C   UNL     1       1.891  15.039  19.073  0.00  0.00    +0.000 A 
ATOM      6  C   UNL     1       1.173  15.102  20.259  0.00  0.00    +0.000 A 
ATOM      7  C   UNL     1       0.739  13.942  20.884  0.00  0.00    +0.000 A 
ATOM      8  C   UNL     1       0.994  12.703  20.289  0.00  0.00    +0.000 A 
ATOM      9  O   UNL     1       0.377  11.627  20.885  0.00  0.00    +0.000 OA
ATOM     10  C   UNL     1       0.173  10.492  20.011  0.00  0.00    +0.000 C 
ENDROOT
BRANCH  10  11
ATOM     11  C   UNL     1      -0.979  10.711  19.011  0.00  0.00    +0.000 A 
ATOM     12  C   UNL     1      -1.040  10.051  17.764  0.00  0.00    +0.000 A 
ATOM     13  C   UNL     1      -2.159  10.181  16.945  0.00  0.00    +0.000 A 
ATOM     14  C   UNL     1      -3.209  11.004  17.321  0.00  0.00    +0.000 A 
ATOM     15  C   UNL     1      -3.132  11.719  18.501  0.00  0.00    +0.000 A 
ATOM     16  C   UNL     1      -2.029  11.590  19.332  0.00  0.00    +0.000 A 
BRANCH  13  17
ATOM     17  O   UNL     1      -2.273   9.500  15.765  0.00  0.00    +0.000 OA
ATOM     18  H   UNL     1      -2.806  10.041  15.156  0.00  0.00    +0.000 HD
ENDBRANCH  13  17
BRANCH  14  19
ATOM     19  O   UNL     1      -4.324  11.121  16.538  0.00  0.00    +0.000 OA
ATOM     20  H   UNL     1      -4.973  11.569  17.117  0.00  0.00    +0.000 HD
ENDBRANCH  14  19
BRANCH  15  21
ATOM     21  O   UNL     1      -4.147  12.551  18.876  0.00  0.00    +0.000 OA
ATOM     22  H   UNL     1      -4.769  12.531  18.123  0.00  0.00    +0.000 HD
ENDBRANCH  15  21
ENDBRANCH  10  11
BRANCH   4  23
ATOM     23  O   UNL     1       2.882  13.824  17.339  0.00  0.00    +0.000 OA
ATOM     24  H   UNL     1       3.110  12.921  17.065  0.00  0.00    +0.000 HD
ENDBRANCH   4  23
BRANCH   6  25
ATOM     25  O   UNL     1       0.837  16.297  20.826  0.00  0.00    +0.000 OA
ATOM     26  H   UNL     1      -0.093  16.257  21.107  0.00  0.00    +0.000 HD
ENDBRANCH   6  25
BRANCH   1  27
ATOM     27  O   UNL     1       1.455   8.827  18.701  0.00  0.00    +0.000 OA
BRANCH  27  29
ATOM     28  O   UNL     1       1.638   7.462  20.527  0.00  0.00    +0.000 OA
ATOM     29  C   UNL     1       1.869   7.718  19.355  0.00  0.00    +0.000 C 
BRANCH  29  30
ATOM     30  C   UNL     1       2.654   6.802  18.474  0.00  0.00    +0.000 A 
ATOM     31  C   UNL     1       3.737   7.357  17.762  0.00  0.00    +0.000 A 
ATOM     32  C   UNL     1       4.531   6.544  16.955  0.00  0.00    +0.000 A 
ATOM     33  C   UNL     1       4.259   5.186  16.852  0.00  0.00    +0.000 A 
ATOM     34  C   UNL     1       3.192   4.635  17.543  0.00  0.00    +0.000 A 
ATOM     35  C   UNL     1       2.380   5.430  18.351  0.00  0.00    +0.000 A 
BRANCH  32  36
ATOM     36  O   UNL     1       5.592   7.035  16.250  0.00  0.00    +0.000 OA
ATOM     37  H   UNL     1       5.485   7.998  16.160  0.00  0.00    +0.000 HD
ENDBRANCH  32  36
BRANCH  33  38
ATOM     38  O   UNL     1       5.042   4.375  16.076  0.00  0.00    +0.000 OA
ATOM     39  H   UNL     1       5.068   4.821  15.205  0.00  0.00    +0.000 HD
ENDBRANCH  33  38
BRANCH  34  40
ATOM     40  O   UNL     1       2.933   3.298  17.443  0.00  0.00    +0.000 OA
ATOM     41  H   UNL     1       2.564   3.047  18.314  0.00  0.00    +0.000 HD
ENDBRANCH  34  40
ENDBRANCH  29  30
ENDBRANCH  27  29
ENDBRANCH   1  27
TORSDOF 12
ENDMDL
MODEL 5
REMARK VINA RESULT:      -7.2      1.116      1.154
REMARK  Name = 
REMARK  12 active torsions:
REMARK  status: ('A' for Active; 'I' for Inactive)
REMARK    1  A    between atoms: C_2  and  O_3
REMARK    2  A    between atoms: C_2  and  C_25
REMARK    3  A    between atoms: O_3  and  C_4
REMARK    4  A    between atoms: C_7  and  O_8
REMARK    5  A    between atoms: C_10  and  O_11
REMARK    6  A    between atoms: C_15  and  C_16
REMARK    7  A    between atoms: C_18  and  O_19
REMARK    8  A    between atoms: C_20  and  O_21
REMARK    9  A    between atoms: C_22  and  O_23
REMARK   10  A    between atoms: C_27  and  O_28
REMARK   11  A    between atoms: C_29  and  O_30
REMARK   12  A    between atoms: C_31  and  O_32
REMARK                            x       y       z     vdW  Elec       q    Type
REMARK                         _______ _______ _______ _____ _____    ______ ____
ROOT
ATOM      1  C   UNL     1       1.100  10.049  19.434  0.00  0.00    +0.000 C 
ATOM      2  C   UNL     1       1.653  11.204  18.585  0.00  0.00    +0.000 C 
ATOM      3  C   UNL     1       1.373  12.555  19.197  0.00  0.00    +0.000 A 
ATOM      4  C   UNL     1       1.862  13.744  18.640  0.00  0.00    +0.000 A 
ATOM      5  C   UNL     1       1.575  14.988  19.208  0.00  0.00    +0.000 A 
ATOM      6  C   UNL     1       0.802  15.049  20.360  0.00  0.00    +0.000 A 
ATOM      7  C   UNL     1       0.312  13.891  20.944  0.00  0.00    +0.000 A 
ATOM      8  C   UNL     1       0.567  12.655  20.341  0.00  0.00    +0.000 A 
ATOM      9  O   UNL     1      -0.102  11.585  20.889  0.00  0.00    +0.000 OA
ATOM     10  C   UNL     1      -0.289  10.468  19.987  0.00  0.00    +0.000 C 
ENDROOT
BRANCH  10  11
ATOM     11  C   UNL     1      -1.387  10.730  18.938  0.00  0.00    +0.000 A 
ATOM     12  C   UNL     1      -1.392  10.107  17.671  0.00  0.00    +0.000 A 
ATOM     13  C   UNL     1      -2.467  10.274  16.801  0.00  0.00    +0.000 A 
ATOM     14  C   UNL     1      -3.525  11.099  17.147  0.00  0.00    +0.000 A 
ATOM     15  C   UNL     1      -3.501  11.779  18.350  0.00  0.00    +0.000 A 
ATOM     16  C   UNL     1      -2.442  11.612  19.232  0.00  0.00    +0.000 A 
BRANCH  13  17
ATOM     17  O   UNL     1      -2.529   9.627  15.597  0.00  0.00    +0.000 OA
ATOM     18  H   UNL     1      -2.390   8.677  15.760  0.00  0.00    +0.000 HD
ENDBRANCH  13  17
BRANCH  14  19
ATOM     19  O   UNL     1      -4.598  11.252  16.313  0.00  0.00    +0.000 OA
ATOM     20  H   UNL     1      -4.368  12.038  15.776  0.00  0.00    +0.000 HD
ENDBRANCH  14  19
BRANCH  15  21
ATOM     21  O   UNL     1      -4.524  12.613  18.697  0.00  0.00    +0.000 OA
ATOM     22  H   UNL     1      -5.214  12.019  19.048  0.00  0.00    +0.000 HD
ENDBRANCH  15  21
ENDBRANCH  10  11
BRANCH   4  23
ATOM     23  O   UNL     1       2.620  13.776  17.503  0.00  0.00    +0.000 OA
ATOM     24  H   UNL     1       3.520  14.072  17.712  0.00  0.00    +0.000 HD
ENDBRANCH   4  23
BRANCH   6  25
ATOM     25  O   UNL     1       0.467  16.243  20.930  0.00  0.00    +0.000 OA
ATOM     26  H   UNL     1      -0.500  16.341  20.899  0.00  0.00    +0.000 HD
ENDBRANCH   6  25
BRANCH   1  27
ATOM     27  O   UNL     1       1.015   8.794  18.713  0.00  0.00    +0.000 OA
BRANCH  27  29
ATOM     28  O   UNL     1       2.579   9.017  17.060  0.00  0.00    +0.000 OA
ATOM     29  C   UNL     1       2.094   8.402  17.998  0.00  0.00    +0.000 C 
BRANCH  29  30
ATOM     30  C   UNL     1       2.658   7.109  18.488  0.00  0.00    +0.000 A 
ATOM     31  C   UNL     1       3.645   6.489  17.694  0.00  0.00    +0.000 A 
ATOM     32  C   UNL     1       4.236   5.301  18.119  0.00  0.00    +0.000 A 
ATOM     33  C   UNL     1       3.859   4.727  19.325  0.00  0.00    +0.000 A 
ATOM     34  C   UNL     1       2.885   5.327  20.108  0.00  0.00    +0.000 A 
ATOM     35  C   UNL     1       2.274   6.512  19.700  0.00  0.00    +0.000 A 
BRANCH  32  36
ATOM     36  O   UNL     1       5.198   4.667  17.386  0.00  0.00    +0.000 OA
ATOM     37  H   UNL     1       4.790   4.319  16.573  0.00  0.00    +0.000 HD
ENDBRANCH  32  36
BRANCH  33  38
ATOM     38  O   UNL     1       4.446   3.570  19.760  0.00  0.00    +0.000 OA
ATOM     39  H   UNL     1       4.370   3.608  20.735  0.00  0.00    +0.000 HD
ENDBRANCH  33  38
BRANCH  34  40
ATOM     40  O   UNL     1       2.523   4.760  21.296  0.00  0.00    +0.000 OA
ATOM     41  H   UNL     1       1.877   4.064  21.056  0.00  0.00    +0.000 HD
ENDBRANCH  34  40
ENDBRANCH  29  30
ENDBRANCH  27  29
ENDBRANCH   1  27
TORSDOF 12
ENDMDL
MODEL 6
REMARK VINA RESULT:      -7.2      1.272      2.046
REMARK  Name = 
REMARK  12 active torsions:
REMARK  status: ('A' for Active; 'I' for Inactive)
REMARK    1  A    between atoms: C_2  and  O_3
REMARK    2  A    between atoms: C_2  and  C_25
REMARK    3  A    between atoms: O_3  and  C_4
REMARK    4  A    between atoms: C_7  and  O_8
REMARK    5  A    between atoms: C_10  and  O_11
REMARK    6  A    between atoms: C_15  and  C_16
REMARK    7  A    between atoms: C_18  and  O_19
REMARK    8  A    between atoms: C_20  and  O_21
REMARK    9  A    between atoms: C_22  and  O_23
REMARK   10  A    between atoms: C_27  and  O_28
REMARK   11  A    between atoms: C_29  and  O_30
REMARK   12  A    between atoms: C_31  and  O_32
REMARK                            x       y       z     vdW  Elec       q    Type
REMARK                         _______ _______ _______ _____ _____    ______ ____
ROOT
ATOM      1  C   UNL     1       1.497  10.163  19.457  0.00  0.00    +0.000 C 
ATOM      2  C   UNL     1       1.988  11.296  18.543  0.00  0.00    +0.000 C 
ATOM      3  C   UNL     1       1.705  12.663  19.116  0.00  0.00    +0.000 A 
ATOM      4  C   UNL     1       2.144  13.840  18.495  0.00  0.00    +0.000 A 
ATOM      5  C   UNL     1       1.854  15.098  19.028  0.00  0.00    +0.000 A 
ATOM      6  C   UNL     1       1.129  15.188  20.209  0.00  0.00    +0.000 A 
ATOM      7  C   UNL     1       0.689  14.042  20.856  0.00  0.00    +0.000 A 
ATOM      8  C   UNL     1       0.946  12.790  20.289  0.00  0.00    +0.000 A 
ATOM      9  O   UNL     1       0.324  11.728  20.905  0.00  0.00    +0.000 OA
ATOM     10  C   UNL     1       0.123  10.575  20.053  0.00  0.00    +0.000 C 
ENDROOT
BRANCH  10  11
ATOM     11  C   UNL     1      -1.023  10.774  19.043  0.00  0.00    +0.000 A 
ATOM     12  C   UNL     1      -1.075  10.094  17.807  0.00  0.00    +0.000 A 
ATOM     13  C   UNL     1      -2.189  10.207  16.979  0.00  0.00    +0.000 A 
ATOM     14  C   UNL     1      -3.243  11.034  17.334  0.00  0.00    +0.000 A 
ATOM     15  C   UNL     1      -3.176  11.768  18.502  0.00  0.00    +0.000 A 
ATOM     16  C   UNL     1      -2.077  11.656  19.343  0.00  0.00    +0.000 A 
BRANCH  13  17
ATOM     17  O   UNL     1      -2.294   9.505  15.809  0.00  0.00    +0.000 OA
ATOM     18  H   UNL     1      -3.083   9.825  15.337  0.00  0.00    +0.000 HD
ENDBRANCH  13  17
BRANCH  14  19
ATOM     19  O   UNL     1      -4.353  11.135  16.542  0.00  0.00    +0.000 OA
ATOM     20  H   UNL     1      -4.061  11.702  15.799  0.00  0.00    +0.000 HD
ENDBRANCH  14  19
BRANCH  15  21
ATOM     21  O   UNL     1      -4.195  12.604  18.856  0.00  0.00    +0.000 OA
ATOM     22  H   UNL     1      -4.295  12.473  19.818  0.00  0.00    +0.000 HD
ENDBRANCH  15  21
ENDBRANCH  10  11
BRANCH   4  23
ATOM     23  O   UNL     1       2.853  13.844  17.326  0.00  0.00    +0.000 OA
ATOM     24  H   UNL     1       3.145  12.944  17.112  0.00  0.00    +0.000 HD
ENDBRANCH   4  23
BRANCH   6  25
ATOM     25  O   UNL     1       0.792  16.395  20.748  0.00  0.00    +0.000 OA
ATOM     26  H   UNL     1       1.596  16.815  21.097  0.00  0.00    +0.000 HD
ENDBRANCH   6  25
BRANCH   1  27
ATOM     27  O   UNL     1       1.409   8.880  18.787  0.00  0.00    +0.000 OA
BRANCH  27  29
ATOM     28  O   UNL     1       1.591   7.524  20.619  0.00  0.00    +0.000 OA
ATOM     29  C   UNL     1       1.848   7.789  19.455  0.00  0.00    +0.000 C 
BRANCH  29  30
ATOM     30  C   UNL     1       2.698   6.907  18.599  0.00  0.00    +0.000 A 
ATOM     31  C   UNL     1       2.460   5.518  18.661  0.00  0.00    +0.000 A 
ATOM     32  C   UNL     1       3.193   4.649  17.858  0.00  0.00    +0.000 A 
ATOM     33  C   UNL     1       4.158   5.146  16.992  0.00  0.00    +0.000 A 
ATOM     34  C   UNL     1       4.402   6.509  16.931  0.00  0.00    +0.000 A 
ATOM     35  C   UNL     1       3.686   7.398  17.731  0.00  0.00    +0.000 A 
BRANCH  32  36
ATOM     36  O   UNL     1       2.996   3.298  17.880  0.00  0.00    +0.000 OA
ATOM     37  H   UNL     1       3.769   2.878  18.297  0.00  0.00    +0.000 HD
ENDBRANCH  32  36
BRANCH  33  38
ATOM     38  O   UNL     1       4.873   4.303  16.185  0.00  0.00    +0.000 OA
ATOM     39  H   UNL     1       4.615   3.406  16.478  0.00  0.00    +0.000 HD
ENDBRANCH  33  38
BRANCH  34  40
ATOM     40  O   UNL     1       5.349   6.993  16.073  0.00  0.00    +0.000 OA
ATOM     41  H   UNL     1       6.009   6.274  15.995  0.00  0.00    +0.000 HD
ENDBRANCH  34  40
ENDBRANCH  29  30
ENDBRANCH  27  29
ENDBRANCH   1  27
TORSDOF 12
ENDMDL
MODEL 7
REMARK VINA RESULT:      -7.2      3.189      7.744
REMARK  Name = 
REMARK  12 active torsions:
REMARK  status: ('A' for Active; 'I' for Inactive)
REMARK    1  A    between atoms: C_2  and  O_3
REMARK    2  A    between atoms: C_2  and  C_25
REMARK    3  A    between atoms: O_3  and  C_4
REMARK    4  A    between atoms: C_7  and  O_8
REMARK    5  A    between atoms: C_10  and  O_11
REMARK    6  A    between atoms: C_15  and  C_16
REMARK    7  A    between atoms: C_18  and  O_19
REMARK    8  A    between atoms: C_20  and  O_21
REMARK    9  A    between atoms: C_22  and  O_23
REMARK   10  A    between atoms: C_27  and  O_28
REMARK   11  A    between atoms: C_29  and  O_30
REMARK   12  A    between atoms: C_31  and  O_32
REMARK                            x       y       z     vdW  Elec       q    Type
REMARK                         _______ _______ _______ _____ _____    ______ ____
ROOT
ATOM      1  C   UNL     1      -0.502  13.154  21.002  0.00  0.00    +0.000 C 
ATOM      2  C   UNL     1      -0.778  11.868  21.794  0.00  0.00    +0.000 C 
ATOM      3  C   UNL     1      -0.024  10.681  21.248  0.00  0.00    +0.000 A 
ATOM      4  C   UNL     1      -0.056   9.425  21.868  0.00  0.00    +0.000 A 
ATOM      5  C   UNL     1       0.631   8.331  21.336  0.00  0.00    +0.000 A 
ATOM      6  C   UNL     1       1.378   8.492  20.177  0.00  0.00    +0.000 A 
ATOM      7  C   UNL     1       1.441   9.725  19.545  0.00  0.00    +0.000 A 
ATOM      8  C   UNL     1       0.712  10.802  20.060  0.00  0.00    +0.000 A 
ATOM      9  O   UNL     1       0.695  11.930  19.273  0.00  0.00    +0.000 OA
ATOM     10  C   UNL     1      -0.443  12.797  19.491  0.00  0.00    +0.000 C 
ENDROOT
BRANCH  10  11
ATOM     11  C   UNL     1      -1.741  12.240  18.874  0.00  0.00    +0.000 A 
ATOM     12  C   UNL     1      -2.978  12.268  19.554  0.00  0.00    +0.000 A 
ATOM     13  C   UNL     1      -4.150  11.869  18.914  0.00  0.00    +0.000 A 
ATOM     14  C   UNL     1      -4.108  11.390  17.614  0.00  0.00    +0.000 A 
ATOM     15  C   UNL     1      -2.895  11.283  16.961  0.00  0.00    +0.000 A 
ATOM     16  C   UNL     1      -1.722  11.687  17.582  0.00  0.00    +0.000 A 
BRANCH  13  17
ATOM     17  O   UNL     1      -5.370  11.951  19.526  0.00  0.00    +0.000 OA
ATOM     18  H   UNL     1      -5.888  11.168  19.266  0.00  0.00    +0.000 HD
ENDBRANCH  13  17
BRANCH  14  19
ATOM     19  O   UNL     1      -5.254  11.019  16.967  0.00  0.00    +0.000 OA
ATOM     20  H   UNL     1      -5.096  10.083  16.726  0.00  0.00    +0.000 HD
ENDBRANCH  14  19
BRANCH  15  21
ATOM     21  O   UNL     1      -2.834  10.791  15.689  0.00  0.00    +0.000 OA
ATOM     22  H   UNL     1      -3.393   9.992  15.709  0.00  0.00    +0.000 HD
ENDBRANCH  15  21
ENDBRANCH  10  11
BRANCH   4  23
ATOM     23  O   UNL     1      -0.774   9.174  23.004  0.00  0.00    +0.000 OA
ATOM     24  H   UNL     1      -1.273   9.964  23.262  0.00  0.00    +0.000 HD
ENDBRANCH   4  23
BRANCH   6  25
ATOM     25  O   UNL     1       2.036   7.445  19.602  0.00  0.00    +0.000 OA
ATOM     26  H   UNL     1       1.778   6.627  20.059  0.00  0.00    +0.000 HD
ENDBRANCH   6  25
BRANCH   1  27
ATOM     27  O   UNL     1      -1.471  14.204  21.250  0.00  0.00    +0.000 OA
BRANCH  27  29
ATOM     28  O   UNL     1      -1.081  15.038  23.343  0.00  0.00    +0.000 OA
ATOM     29  C   UNL     1      -1.799  14.469  22.535  0.00  0.00    +0.000 C 
BRANCH  29  30
ATOM     30  C   UNL     1      -3.173  13.991  22.878  0.00  0.00    +0.000 A 
ATOM     31  C   UNL     1      -4.222  14.353  22.009  0.00  0.00    +0.000 A 
ATOM     32  C   UNL     1      -5.517  13.904  22.256  0.00  0.00    +0.000 A 
ATOM     33  C   UNL     1      -5.778  13.097  23.354  0.00  0.00    +0.000 A 
ATOM     34  C   UNL     1      -4.753  12.742  24.217  0.00  0.00    +0.000 A 
ATOM     35  C   UNL     1      -3.450  13.185  23.995  0.00  0.00    +0.000 A 
BRANCH  32  36
ATOM     36  O   UNL     1      -6.565  14.226  21.441  0.00  0.00    +0.000 OA
ATOM     37  H   UNL     1      -6.301  14.064  20.518  0.00  0.00    +0.000 HD
ENDBRANCH  32  36
BRANCH  33  38
ATOM     38  O   UNL     1      -7.043  12.636  23.597  0.00  0.00    +0.000 OA
ATOM     39  H   UNL     1      -6.982  12.202  24.472  0.00  0.00    +0.000 HD
ENDBRANCH  33  38
BRANCH  34  40
ATOM     40  O   UNL     1      -5.014  11.943  25.293  0.00  0.00    +0.000 OA
ATOM     41  H   UNL     1      -5.069  12.556  26.054  0.00  0.00    +0.000 HD
ENDBRANCH  34  40
ENDBRANCH  29  30
ENDBRANCH  27  29
ENDBRANCH   1  27
TORSDOF 12
ENDMDL
MODEL 8
REMARK VINA RESULT:      -7.2      1.229      1.756
REMARK  Name = 
REMARK  12 active torsions:
REMARK  status: ('A' for Active; 'I' for Inactive)
REMARK    1  A    between atoms: C_2  and  O_3
REMARK    2  A    between atoms: C_2  and  C_25
REMARK    3  A    between atoms: O_3  and  C_4
REMARK    4  A    between atoms: C_7  and  O_8
REMARK    5  A    between atoms: C_10  and  O_11
REMARK    6  A    between atoms: C_15  and  C_16
REMARK    7  A    between atoms: C_18  and  O_19
REMARK    8  A    between atoms: C_20  and  O_21
REMARK    9  A    between atoms: C_22  and  O_23
REMARK   10  A    between atoms: C_27  and  O_28
REMARK   11  A    between atoms: C_29  and  O_30
REMARK   12  A    between atoms: C_31  and  O_32
REMARK                            x       y       z     vdW  Elec       q    Type
REMARK                         _______ _______ _______ _____ _____    ______ ____
ROOT
ATOM      1  C   UNL     1       1.029  10.231  19.615  0.00  0.00    +0.000 C 
ATOM      2  C   UNL     1       1.591  11.340  18.713  0.00  0.00    +0.000 C 
ATOM      3  C   UNL     1       1.288  12.721  19.241  0.00  0.00    +0.000 A 
ATOM      4  C   UNL     1       1.780  13.880  18.627  0.00  0.00    +0.000 A 
ATOM      5  C   UNL     1       1.471  15.152  19.116  0.00  0.00    +0.000 A 
ATOM      6  C   UNL     1       0.673  15.273  20.245  0.00  0.00    +0.000 A 
ATOM      7  C   UNL     1       0.179  14.145  20.884  0.00  0.00    +0.000 A 
ATOM      8  C   UNL     1       0.456  12.879  20.359  0.00  0.00    +0.000 A 
ATOM      9  O   UNL     1      -0.217  11.837  20.954  0.00  0.00    +0.000 OA
ATOM     10  C   UNL     1      -0.376  10.668  20.114  0.00  0.00    +0.000 C 
ENDROOT
BRANCH  10  11
ATOM     11  C   UNL     1      -1.452  10.860  19.028  0.00  0.00    +0.000 A 
ATOM     12  C   UNL     1      -1.407  10.190  17.786  0.00  0.00    +0.000 A 
ATOM     13  C   UNL     1      -2.463  10.294  16.883  0.00  0.00    +0.000 A 
ATOM     14  C   UNL     1      -3.552  11.101  17.171  0.00  0.00    +0.000 A 
ATOM     15  C   UNL     1      -3.577  11.826  18.347  0.00  0.00    +0.000 A 
ATOM     16  C   UNL     1      -2.538  11.723  19.261  0.00  0.00    +0.000 A 
BRANCH  13  17
ATOM     17  O   UNL     1      -2.475   9.601  15.704  0.00  0.00    +0.000 OA
ATOM     18  H   UNL     1      -1.733   8.970  15.719  0.00  0.00    +0.000 HD
ENDBRANCH  13  17
BRANCH  14  19
ATOM     19  O   UNL     1      -4.605  11.192  16.304  0.00  0.00    +0.000 OA
ATOM     20  H   UNL     1      -5.027  12.045  16.535  0.00  0.00    +0.000 HD
ENDBRANCH  14  19
BRANCH  15  21
ATOM     21  O   UNL     1      -4.631  12.644  18.636  0.00  0.00    +0.000 OA
ATOM     22  H   UNL     1      -5.256  12.073  19.122  0.00  0.00    +0.000 HD
ENDBRANCH  15  21
ENDBRANCH  10  11
BRANCH   4  23
ATOM     23  O   UNL     1       2.562  13.854  17.506  0.00  0.00    +0.000 OA
ATOM     24  H   UNL     1       2.316  13.100  16.947  0.00  0.00    +0.000 HD
ENDBRANCH   4  23
BRANCH   6  25
ATOM     25  O   UNL     1       0.316  16.494  20.737  0.00  0.00    +0.000 OA
ATOM     26  H   UNL     1      -0.401  16.854  20.188  0.00  0.00    +0.000 HD
ENDBRANCH   6  25
BRANCH   1  27
ATOM     27  O   UNL     1       0.969   8.935  18.966  0.00  0.00    +0.000 OA
BRANCH  27  29
ATOM     28  O   UNL     1       2.253   9.266  17.104  0.00  0.00    +0.000 OA
ATOM     29  C   UNL     1       1.955   8.619  18.096  0.00  0.00    +0.000 C 
BRANCH  29  30
ATOM     30  C   UNL     1       2.671   7.367  18.483  0.00  0.00    +0.000 A 
ATOM     31  C   UNL     1       2.263   6.726  19.671  0.00  0.00    +0.000 A 
ATOM     32  C   UNL     1       2.867   5.534  20.063  0.00  0.00    +0.000 A 
ATOM     33  C   UNL     1       3.869   4.972  19.284  0.00  0.00    +0.000 A 
ATOM     34  C   UNL     1       4.281   5.599  18.119  0.00  0.00    +0.000 A 
ATOM     35  C   UNL     1       3.696   6.797  17.710  0.00  0.00    +0.000 A 
BRANCH  32  36
ATOM     36  O   UNL     1       2.503   4.876  21.202  0.00  0.00    +0.000 OA
ATOM     37  H   UNL     1       3.230   4.944  21.846  0.00  0.00    +0.000 HD
ENDBRANCH  32  36
BRANCH  33  38
ATOM     38  O   UNL     1       4.459   3.792  19.650  0.00  0.00    +0.000 OA
ATOM     39  H   UNL     1       5.078   3.591  18.921  0.00  0.00    +0.000 HD
ENDBRANCH  33  38
BRANCH  34  40
ATOM     40  O   UNL     1       5.264   5.039  17.354  0.00  0.00    +0.000 OA
ATOM     41  H   UNL     1       5.825   5.791  17.074  0.00  0.00    +0.000 HD
ENDBRANCH  34  40
ENDBRANCH  29  30
ENDBRANCH  27  29
ENDBRANCH   1  27
TORSDOF 12
ENDMDL
MODEL 9
REMARK VINA RESULT:      -7.2      3.413      8.002
REMARK  Name = 
REMARK  12 active torsions:
REMARK  status: ('A' for Active; 'I' for Inactive)
REMARK    1  A    between atoms: C_2  and  O_3
REMARK    2  A    between atoms: C_2  and  C_25
REMARK    3  A    between atoms: O_3  and  C_4
REMARK    4  A    between atoms: C_7  and  O_8
REMARK    5  A    between atoms: C_10  and  O_11
REMARK    6  A    between atoms: C_15  and  C_16
REMARK    7  A    between atoms: C_18  and  O_19
REMARK    8  A    between atoms: C_20  and  O_21
REMARK    9  A    between atoms: C_22  and  O_23
REMARK   10  A    between atoms: C_27  and  O_28
REMARK   11  A    between atoms: C_29  and  O_30
REMARK   12  A    between atoms: C_31  and  O_32
REMARK                            x       y       z     vdW  Elec       q    Type
REMARK                         _______ _______ _______ _____ _____    ______ ____
ROOT
ATOM      1  C   UNL     1      -0.343  13.065  21.203  0.00  0.00    +0.000 C 
ATOM      2  C   UNL     1      -0.615  11.743  21.937  0.00  0.00    +0.000 C 
ATOM      3  C   UNL     1       0.108  10.576  21.311  0.00  0.00    +0.000 A 
ATOM      4  C   UNL     1       0.076   9.291  21.868  0.00  0.00    +0.000 A 
ATOM      5  C   UNL     1       0.733   8.217  21.262  0.00  0.00    +0.000 A 
ATOM      6  C   UNL     1       1.449   8.428  20.092  0.00  0.00    +0.000 A 
ATOM      7  C   UNL     1       1.512   9.690  19.520  0.00  0.00    +0.000 A 
ATOM      8  C   UNL     1       0.812  10.748  20.109  0.00  0.00    +0.000 A 
ATOM      9  O   UNL     1       0.789  11.915  19.381  0.00  0.00    +0.000 OA
ATOM     10  C   UNL     1      -0.331  12.784  19.675  0.00  0.00    +0.000 C 
ENDROOT
BRANCH  10  11
ATOM     11  C   UNL     1      -1.653  12.275  19.068  0.00  0.00    +0.000 A 
ATOM     12  C   UNL     1      -2.887  12.369  19.747  0.00  0.00    +0.000 A 
ATOM     13  C   UNL     1      -4.076  12.013  19.114  0.00  0.00    +0.000 A 
ATOM     14  C   UNL     1      -4.057  11.509  17.823  0.00  0.00    +0.000 A 
ATOM     15  C   UNL     1      -2.850  11.336  17.171  0.00  0.00    +0.000 A 
ATOM     16  C   UNL     1      -1.660  11.699  17.785  0.00  0.00    +0.000 A 
BRANCH  13  17
ATOM     17  O   UNL     1      -5.291  12.159  19.725  0.00  0.00    +0.000 OA
ATOM     18  H   UNL     1      -5.896  11.492  19.352  0.00  0.00    +0.000 HD
ENDBRANCH  13  17
BRANCH  14  19
ATOM     19  O   UNL     1      -5.218  11.179  17.182  0.00  0.00    +0.000 OA
ATOM     20  H   UNL     1      -5.884  11.777  17.578  0.00  0.00    +0.000 HD
ENDBRANCH  14  19
BRANCH  15  21
ATOM     21  O   UNL     1      -2.812  10.821  15.908  0.00  0.00    +0.000 OA
ATOM     22  H   UNL     1      -3.586  10.228  15.863  0.00  0.00    +0.000 HD
ENDBRANCH  15  21
ENDBRANCH  10  11
BRANCH   4  23
ATOM     23  O   UNL     1      -0.614   8.991  23.009  0.00  0.00    +0.000 OA
ATOM     24  H   UNL     1      -0.067   8.440  23.592  0.00  0.00    +0.000 HD
ENDBRANCH   4  23
BRANCH   6  25
ATOM     25  O   UNL     1       2.077   7.403  19.446  0.00  0.00    +0.000 OA
ATOM     26  H   UNL     1       2.258   6.695  20.088  0.00  0.00    +0.000 HD
ENDBRANCH   6  25
BRANCH   1  27
ATOM     27  O   UNL     1      -1.291  14.112  21.530  0.00  0.00    +0.000 OA
BRANCH  27  29
ATOM     28  O   UNL     1      -0.692  14.696  23.659  0.00  0.00    +0.000 OA
ATOM     29  C   UNL     1      -1.532  14.358  22.838  0.00  0.00    +0.000 C 
BRANCH  29  30
ATOM     30  C   UNL     1      -2.973  14.180  23.192  0.00  0.00    +0.000 A 
ATOM     31  C   UNL     1      -3.328  13.011  23.895  0.00  0.00    +0.000 A 
ATOM     32  C   UNL     1      -4.649  12.808  24.287  0.00  0.00    +0.000 A 
ATOM     33  C   UNL     1      -5.618  13.757  23.989  0.00  0.00    +0.000 A 
ATOM     34  C   UNL     1      -5.277  14.905  23.291  0.00  0.00    +0.000 A 
ATOM     35  C   UNL     1      -3.963  15.127  22.883  0.00  0.00    +0.000 A 
BRANCH  32  36
ATOM     36  O   UNL     1      -5.041  11.694  24.973  0.00  0.00    +0.000 OA
ATOM     37  H   UNL     1      -4.417  10.973  24.776  0.00  0.00    +0.000 HD
ENDBRANCH  32  36
BRANCH  33  38
ATOM     38  O   UNL     1      -6.916  13.577  24.383  0.00  0.00    +0.000 OA
ATOM     39  H   UNL     1      -7.326  14.460  24.288  0.00  0.00    +0.000 HD
ENDBRANCH  33  38
BRANCH  34  40
ATOM     40  O   UNL     1      -6.234  15.838  23.006  0.00  0.00    +0.000 OA
ATOM     41  H   UNL     1      -7.023  15.550  23.509  0.00  0.00    +0.000 HD
ENDBRANCH  34  40
ENDBRANCH  29  30
ENDBRANCH  27  29
ENDBRANCH   1  27
TORSDOF 12
ENDMDL
