MODEL 1
REMARK VINA RESULT:      -7.0      0.000      0.000
REMARK  Name = 
REMARK  8 active torsions:
REMARK  status: ('A' for Active; 'I' for Inactive)
REMARK    1  A    between atoms: NE_4  and  CD_5
REMARK    2  A    between atoms: CD_5  and  CG_6
REMARK    3  A    between atoms: CG_6  and  CB_7
REMARK    4  A    between atoms: CB_7  and  CA_8
REMARK    5  A    between atoms: CA_8  and  N_9
REMARK    6  A    between atoms: CA_8  and  C_18
REMARK    7  A    between atoms: C_10  and  C_12
REMARK    8  A    between atoms: C_18  and  OXT_20
REMARK                            x       y       z     vdW  Elec       q    Type
REMARK                         _______ _______ _______ _____ _____    ______ ____
ROOT
ATOM      1  CA  ARG A   1       4.054   4.372  17.963  0.00  0.00    +0.000 C 
ENDROOT
BRANCH   1   2
ATOM      2  N   ARG A   1       3.261   5.480  18.519  0.00  0.00    +0.000 N 
ATOM      3  C   UNK A   0       3.397   6.765  18.020  0.00  0.00    +0.000 C 
ATOM      4  O   UNK A   0       4.232   7.071  17.180  0.00  0.00    +0.000 OA
ATOM      5  H   ARG A   1       2.408   5.247  19.018  0.00  0.00    +0.000 HD
BRANCH   3   6
ATOM      6  C   UNK A   0       2.467   7.772  18.578  0.00  0.00    +0.000 A 
ATOM      7  C   UNK A   0       2.068   7.725  19.920  0.00  0.00    +0.000 A 
ATOM      8  C   UNK A   0       1.141   8.649  20.400  0.00  0.00    +0.000 A 
ATOM      9  C   UNK A   0       0.621   9.623  19.547  0.00  0.00    +0.000 A 
ATOM     10  C   UNK A   0       1.055   9.699  18.222  0.00  0.00    +0.000 A 
ATOM     11  C   UNK A   0       1.988   8.782  17.738  0.00  0.00    +0.000 A 
ENDBRANCH   3   6
ENDBRANCH   1   2
BRANCH   1  12
ATOM     12  C   ARG A   1       5.098   3.900  18.996  0.00  0.00    +0.000 C 
ATOM     13  O   ARG A   1       6.070   4.559  19.341  0.00  0.00    +0.000 OA
BRANCH  12  14
ATOM     14  OXT ARG A   1       4.885   2.642  19.455  0.00  0.00    +0.000 OA
ATOM     15  HXT ARG A   1       3.934   2.432  19.365  0.00  0.00    +0.000 HD
ENDBRANCH  12  14
ENDBRANCH   1  12
BRANCH   1  16
ATOM     16  CB  ARG A   1       3.174   3.171  17.571  0.00  0.00    +0.000 C 
BRANCH  16  17
ATOM     17  CG  ARG A   1       1.670   3.422  17.751  0.00  0.00    +0.000 C 
BRANCH  17  18
ATOM     18  CD  ARG A   1       1.039   2.376  18.679  0.00  0.00    +0.000 C 
BRANCH  18  22
ATOM     19  NH1 ARG A   1       1.117   4.409  20.725  0.00  0.00    +0.000 NA
ATOM     20  CZ  ARG A   1       1.678   3.272  20.889  0.00  0.00    +0.000 C 
ATOM     21  NH2 ARG A   1       2.296   2.917  22.034  0.00  0.00    +0.000 N 
ATOM     22  NE  ARG A   1       1.739   2.301  19.950  0.00  0.00    +0.000 N 
ATOM     23  HH1 ARG A   1       1.207   4.960  21.581  0.00  0.00    +0.000 HD
ATOM     24 HH21 ARG A   1       2.543   3.688  22.643  0.00  0.00    +0.000 HD
ATOM     25 HH22 ARG A   1       3.078   2.286  21.913  0.00  0.00    +0.000 HD
ATOM     26  HE  ARG A   1       1.939   1.365  20.275  0.00  0.00    +0.000 HD
ENDBRANCH  18  22
ENDBRANCH  17  18
ENDBRANCH  16  17
ENDBRANCH   1  16
TORSDOF 8
ENDMDL
MODEL 2
REMARK VINA RESULT:      -6.9      3.723      5.880
REMARK  Name = 
REMARK  8 active torsions:
REMARK  status: ('A' for Active; 'I' for Inactive)
REMARK    1  A    between atoms: NE_4  and  CD_5
REMARK    2  A    between atoms: CD_5  and  CG_6
REMARK    3  A    between atoms: CG_6  and  CB_7
REMARK    4  A    between atoms: CB_7  and  CA_8
REMARK    5  A    between atoms: CA_8  and  N_9
REMARK    6  A    between atoms: CA_8  and  C_18
REMARK    7  A    between atoms: C_10  and  C_12
REMARK    8  A    between atoms: C_18  and  OXT_20
REMARK                            x       y       z     vdW  Elec       q    Type
REMARK                         _______ _______ _______ _____ _____    ______ ____
ROOT
ATOM      1  CA  ARG A   1       6.288   5.521  17.628  0.00  0.00    +0.000 C 
ENDROOT
BRANCH   1   2
ATOM      2  N   ARG A   1       5.125   4.746  18.088  0.00  0.00    +0.000 N 
ATOM      3  C   UNK A   0       3.935   5.380  18.407  0.00  0.00    +0.000 C 
ATOM      4  O   UNK A   0       3.810   6.597  18.424  0.00  0.00    +0.000 OA
ATOM      5  H   ARG A   1       5.095   3.757  17.858  0.00  0.00    +0.000 HD
BRANCH   3   6
ATOM      6  C   UNK A   0       2.804   4.488  18.747  0.00  0.00    +0.000 A 
ATOM      7  C   UNK A   0       1.944   4.781  19.814  0.00  0.00    +0.000 A 
ATOM      8  C   UNK A   0       0.927   3.889  20.149  0.00  0.00    +0.000 A 
ATOM      9  C   UNK A   0       0.762   2.714  19.417  0.00  0.00    +0.000 A 
ATOM     10  C   UNK A   0       1.587   2.444  18.325  0.00  0.00    +0.000 A 
ATOM     11  C   UNK A   0       2.602   3.336  17.979  0.00  0.00    +0.000 A 
ENDBRANCH   3   6
ENDBRANCH   1   2
BRANCH   1  12
ATOM     12  C   ARG A   1       7.570   5.008  18.317  0.00  0.00    +0.000 C 
ATOM     13  O   ARG A   1       8.004   5.446  19.373  0.00  0.00    +0.000 OA
BRANCH  12  14
ATOM     14  OXT ARG A   1       8.227   4.056  17.610  0.00  0.00    +0.000 OA
ATOM     15  HXT ARG A   1       8.196   3.215  18.110  0.00  0.00    +0.000 HD
ENDBRANCH  12  14
ENDBRANCH   1  12
BRANCH   1  16
ATOM     16  CB  ARG A   1       6.478   5.428  16.104  0.00  0.00    +0.000 C 
BRANCH  16  17
ATOM     17  CG  ARG A   1       5.616   4.346  15.438  0.00  0.00    +0.000 C 
BRANCH  17  18
ATOM     18  CD  ARG A   1       6.227   3.889  14.108  0.00  0.00    +0.000 C 
BRANCH  18  22
ATOM     19  NH1 ARG A   1       6.186   2.153  11.803  0.00  0.00    +0.000 NA
ATOM     20  CZ  ARG A   1       5.251   2.996  12.023  0.00  0.00    +0.000 C 
ATOM     21  NH2 ARG A   1       4.160   3.104  11.237  0.00  0.00    +0.000 N 
ATOM     22  NE  ARG A   1       5.239   3.884  13.042  0.00  0.00    +0.000 N 
ATOM     23  HH1 ARG A   1       5.957   1.598  10.976  0.00  0.00    +0.000 HD
ATOM     24 HH21 ARG A   1       4.255   2.692  10.316  0.00  0.00    +0.000 HD
ATOM     25 HH22 ARG A   1       3.773   4.036  11.178  0.00  0.00    +0.000 HD
ATOM     26  HE  ARG A   1       4.345   4.287  13.286  0.00  0.00    +0.000 HD
ENDBRANCH  18  22
ENDBRANCH  17  18
ENDBRANCH  16  17
ENDBRANCH   1  16
TORSDOF 8
ENDMDL
MODEL 3
REMARK VINA RESULT:      -6.8      3.719      5.778
REMARK  Name = 
REMARK  8 active torsions:
REMARK  status: ('A' for Active; 'I' for Inactive)
REMARK    1  A    between atoms: NE_4  and  CD_5
REMARK    2  A    between atoms: CD_5  and  CG_6
REMARK    3  A    between atoms: CG_6  and  CB_7
REMARK    4  A    between atoms: CB_7  and  CA_8
REMARK    5  A    between atoms: CA_8  and  N_9
REMARK    6  A    between atoms: CA_8  and  C_18
REMARK    7  A    between atoms: C_10  and  C_12
REMARK    8  A    between atoms: C_18  and  OXT_20
REMARK                            x       y       z     vdW  Elec       q    Type
REMARK                         _______ _______ _______ _____ _____    ______ ____
ROOT
ATOM      1  CA  ARG A   1       6.176   6.077  17.750  0.00  0.00    +0.000 C 
ENDROOT
BRANCH   1   2
ATOM      2  N   ARG A   1       5.061   5.291  18.301  0.00  0.00    +0.000 N 
ATOM      3  C   UNK A   0       3.785   5.828  18.371  0.00  0.00    +0.000 C 
ATOM      4  O   UNK A   0       3.532   6.989  18.081  0.00  0.00    +0.000 OA
ATOM      5  H   ARG A   1       5.157   4.280  18.317  0.00  0.00    +0.000 HD
BRANCH   3   6
ATOM      6  C   UNK A   0       2.725   4.905  18.835  0.00  0.00    +0.000 A 
ATOM      7  C   UNK A   0       2.135   5.056  20.097  0.00  0.00    +0.000 A 
ATOM      8  C   UNK A   0       1.185   4.133  20.532  0.00  0.00    +0.000 A 
ATOM      9  C   UNK A   0       0.818   3.069  19.708  0.00  0.00    +0.000 A 
ATOM     10  C   UNK A   0       1.371   2.946  18.432  0.00  0.00    +0.000 A 
ATOM     11  C   UNK A   0       2.316   3.871  17.988  0.00  0.00    +0.000 A 
ENDBRANCH   3   6
ENDBRANCH   1   2
BRANCH   1  12
ATOM     12  C   ARG A   1       7.503   5.641  18.406  0.00  0.00    +0.000 C 
ATOM     13  O   ARG A   1       7.896   4.484  18.458  0.00  0.00    +0.000 OA
BRANCH  12  14
ATOM     14  OXT ARG A   1       8.184   6.657  18.991  0.00  0.00    +0.000 OA
ATOM     15  HXT ARG A   1       7.997   6.650  19.951  0.00  0.00    +0.000 HD
ENDBRANCH  12  14
ENDBRANCH   1  12
BRANCH   1  16
ATOM     16  CB  ARG A   1       6.303   5.910  16.226  0.00  0.00    +0.000 C 
BRANCH  16  17
ATOM     17  CG  ARG A   1       6.047   4.478  15.737  0.00  0.00    +0.000 C 
BRANCH  17  18
ATOM     18  CD  ARG A   1       5.549   4.466  14.287  0.00  0.00    +0.000 C 
BRANCH  18  22
ATOM     19  NH1 ARG A   1       4.717   3.379  11.746  0.00  0.00    +0.000 NA
ATOM     20  CZ  ARG A   1       5.840   3.069  12.272  0.00  0.00    +0.000 C 
ATOM     21  NH2 ARG A   1       6.735   2.261  11.667  0.00  0.00    +0.000 N 
ATOM     22  NE  ARG A   1       6.263   3.485  13.487  0.00  0.00    +0.000 N 
ATOM     23  HH1 ARG A   1       4.638   2.939  10.827  0.00  0.00    +0.000 HD
ATOM     24 HH21 ARG A   1       6.359   1.691  10.919  0.00  0.00    +0.000 HD
ATOM     25 HH22 ARG A   1       7.297   1.706  12.299  0.00  0.00    +0.000 HD
ATOM     26  HE  ARG A   1       7.255   3.422  13.670  0.00  0.00    +0.000 HD
ENDBRANCH  18  22
ENDBRANCH  17  18
ENDBRANCH  16  17
ENDBRANCH   1  16
TORSDOF 8
ENDMDL
MODEL 4
REMARK VINA RESULT:      -6.8      4.186      6.096
REMARK  Name = 
REMARK  8 active torsions:
REMARK  status: ('A' for Active; 'I' for Inactive)
REMARK    1  A    between atoms: NE_4  and  CD_5
REMARK    2  A    between atoms: CD_5  and  CG_6
REMARK    3  A    between atoms: CG_6  and  CB_7
REMARK    4  A    between atoms: CB_7  and  CA_8
REMARK    5  A    between atoms: CA_8  and  N_9
REMARK    6  A    between atoms: CA_8  and  C_18
REMARK    7  A    between atoms: C_10  and  C_12
REMARK    8  A    between atoms: C_18  and  OXT_20
REMARK                            x       y       z     vdW  Elec       q    Type
REMARK                         _______ _______ _______ _____ _____    ______ ____
ROOT
ATOM      1  CA  ARG A   1       5.509   5.084  16.224  0.00  0.00    +0.000 C 
ENDROOT
BRANCH   1   2
ATOM      2  N   ARG A   1       4.504   4.504  17.128  0.00  0.00    +0.000 N 
ATOM      3  C   UNK A   0       3.554   5.307  17.738  0.00  0.00    +0.000 C 
ATOM      4  O   UNK A   0       3.554   6.528  17.648  0.00  0.00    +0.000 OA
ATOM      5  H   ARG A   1       4.306   3.511  17.041  0.00  0.00    +0.000 HD
BRANCH   3   6
ATOM      6  C   UNK A   0       2.527   4.598  18.532  0.00  0.00    +0.000 A 
ATOM      7  C   UNK A   0       2.137   5.064  19.795  0.00  0.00    +0.000 A 
ATOM      8  C   UNK A   0       1.213   4.338  20.546  0.00  0.00    +0.000 A 
ATOM      9  C   UNK A   0       0.674   3.157  20.036  0.00  0.00    +0.000 A 
ATOM     10  C   UNK A   0       1.026   2.718  18.759  0.00  0.00    +0.000 A 
ATOM     11  C   UNK A   0       1.943   3.444  17.999  0.00  0.00    +0.000 A 
ENDBRANCH   3   6
ENDBRANCH   1   2
BRANCH   1  12
ATOM     12  C   ARG A   1       6.855   5.241  16.964  0.00  0.00    +0.000 C 
ATOM     13  O   ARG A   1       7.580   6.221  16.872  0.00  0.00    +0.000 OA
BRANCH  12  14
ATOM     14  OXT ARG A   1       7.208   4.152  17.692  0.00  0.00    +0.000 OA
ATOM     15  HXT ARG A   1       7.283   3.383  17.091  0.00  0.00    +0.000 HD
ENDBRANCH  12  14
ENDBRANCH   1  12
BRANCH   1  16
ATOM     16  CB  ARG A   1       5.734   4.215  14.974  0.00  0.00    +0.000 C 
BRANCH  16  17
ATOM     17  CG  ARG A   1       6.960   4.627  14.147  0.00  0.00    +0.000 C 
BRANCH  17  18
ATOM     18  CD  ARG A   1       6.720   4.404  12.649  0.00  0.00    +0.000 C 
BRANCH  18  22
ATOM     19  NH1 ARG A   1       4.535   2.946  11.455  0.00  0.00    +0.000 NA
ATOM     20  CZ  ARG A   1       5.658   2.387  11.701  0.00  0.00    +0.000 C 
ATOM     21  NH2 ARG A   1       5.925   1.105  11.379  0.00  0.00    +0.000 N 
ATOM     22  NE  ARG A   1       6.698   2.989  12.319  0.00  0.00    +0.000 N 
ATOM     23  HH1 ARG A   1       3.920   2.281  10.981  0.00  0.00    +0.000 HD
ATOM     24 HH21 ARG A   1       5.110   0.530  11.199  0.00  0.00    +0.000 HD
ATOM     25 HH22 ARG A   1       6.566   0.637  12.007  0.00  0.00    +0.000 HD
ATOM     26  HE  ARG A   1       7.607   2.562  12.201  0.00  0.00    +0.000 HD
ENDBRANCH  18  22
ENDBRANCH  17  18
ENDBRANCH  16  17
ENDBRANCH   1  16
TORSDOF 8
ENDMDL
MODEL 5
REMARK VINA RESULT:      -6.7      3.705      5.895
REMARK  Name = 
REMARK  8 active torsions:
REMARK  status: ('A' for Active; 'I' for Inactive)
REMARK    1  A    between atoms: NE_4  and  CD_5
REMARK    2  A    between atoms: CD_5  and  CG_6
REMARK    3  A    between atoms: CG_6  and  CB_7
REMARK    4  A    between atoms: CB_7  and  CA_8
REMARK    5  A    between atoms: CA_8  and  N_9
REMARK    6  A    between atoms: CA_8  and  C_18
REMARK    7  A    between atoms: C_10  and  C_12
REMARK    8  A    between atoms: C_18  and  OXT_20
REMARK                            x       y       z     vdW  Elec       q    Type
REMARK                         _______ _______ _______ _____ _____    ______ ____
ROOT
ATOM      1  CA  ARG A   1       6.274   5.748  17.761  0.00  0.00    +0.000 C 
ENDROOT
BRANCH   1   2
ATOM      2  N   ARG A   1       5.155   4.998  18.352  0.00  0.00    +0.000 N 
ATOM      3  C   UNK A   0       3.861   5.487  18.282  0.00  0.00    +0.000 C 
ATOM      4  O   UNK A   0       3.588   6.590  17.827  0.00  0.00    +0.000 OA
ATOM      5  H   ARG A   1       5.283   4.002  18.508  0.00  0.00    +0.000 HD
BRANCH   3   6
ATOM      6  C   UNK A   0       2.806   4.593  18.808  0.00  0.00    +0.000 A 
ATOM      7  C   UNK A   0       2.382   3.469  18.088  0.00  0.00    +0.000 A 
ATOM      8  C   UNK A   0       1.342   2.682  18.580  0.00  0.00    +0.000 A 
ATOM      9  C   UNK A   0       0.733   3.010  19.791  0.00  0.00    +0.000 A 
ATOM     10  C   UNK A   0       1.186   4.102  20.532  0.00  0.00    +0.000 A 
ATOM     11  C   UNK A   0       2.232   4.888  20.049  0.00  0.00    +0.000 A 
ENDBRANCH   3   6
ENDBRANCH   1   2
BRANCH   1  12
ATOM     12  C   ARG A   1       7.335   6.050  18.841  0.00  0.00    +0.000 C 
ATOM     13  O   ARG A   1       8.246   6.854  18.703  0.00  0.00    +0.000 OA
BRANCH  12  14
ATOM     14  OXT ARG A   1       7.211   5.290  19.957  0.00  0.00    +0.000 OA
ATOM     15  HXT ARG A   1       6.457   5.623  20.484  0.00  0.00    +0.000 HD
ENDBRANCH  12  14
ENDBRANCH   1  12
BRANCH   1  16
ATOM     16  CB  ARG A   1       6.948   4.973  16.615  0.00  0.00    +0.000 C 
BRANCH  16  17
ATOM     17  CG  ARG A   1       6.303   5.215  15.242  0.00  0.00    +0.000 C 
BRANCH  17  18
ATOM     18  CD  ARG A   1       6.456   3.990  14.333  0.00  0.00    +0.000 C 
BRANCH  18  22
ATOM     19  NH1 ARG A   1       6.491   2.418  11.913  0.00  0.00    +0.000 NA
ATOM     20  CZ  ARG A   1       5.489   3.150  12.223  0.00  0.00    +0.000 C 
ATOM     21  NH2 ARG A   1       4.364   3.205  11.481  0.00  0.00    +0.000 N 
ATOM     22  NE  ARG A   1       5.432   3.961  13.302  0.00  0.00    +0.000 N 
ATOM     23  HH1 ARG A   1       6.283   1.901  11.056  0.00  0.00    +0.000 HD
ATOM     24 HH21 ARG A   1       4.462   2.868  10.530  0.00  0.00    +0.000 HD
ATOM     25 HH22 ARG A   1       3.888   4.097  11.501  0.00  0.00    +0.000 HD
ATOM     26  HE  ARG A   1       4.514   4.258  13.602  0.00  0.00    +0.000 HD
ENDBRANCH  18  22
ENDBRANCH  17  18
ENDBRANCH  16  17
ENDBRANCH   1  16
TORSDOF 8
ENDMDL
MODEL 6
REMARK VINA RESULT:      -6.7      3.853      5.978
REMARK  Name = 
REMARK  8 active torsions:
REMARK  status: ('A' for Active; 'I' for Inactive)
REMARK    1  A    between atoms: NE_4  and  CD_5
REMARK    2  A    between atoms: CD_5  and  CG_6
REMARK    3  A    between atoms: CG_6  and  CB_7
REMARK    4  A    between atoms: CB_7  and  CA_8
REMARK    5  A    between atoms: CA_8  and  N_9
REMARK    6  A    between atoms: CA_8  and  C_18
REMARK    7  A    between atoms: C_10  and  C_12
REMARK    8  A    between atoms: C_18  and  OXT_20
REMARK                            x       y       z     vdW  Elec       q    Type
REMARK                         _______ _______ _______ _____ _____    ______ ____
ROOT
ATOM      1  CA  ARG A   1       5.290   6.382  16.645  0.00  0.00    +0.000 C 
ENDROOT
BRANCH   1   2
ATOM      2  N   ARG A   1       4.434   5.497  17.450  0.00  0.00    +0.000 N 
ATOM      3  C   UNK A   0       3.242   5.960  17.983  0.00  0.00    +0.000 C 
ATOM      4  O   UNK A   0       2.885   7.128  17.906  0.00  0.00    +0.000 OA
ATOM      5  H   ARG A   1       4.550   4.494  17.335  0.00  0.00    +0.000 HD
BRANCH   3   6
ATOM      6  C   UNK A   0       2.412   4.949  18.675  0.00  0.00    +0.000 A 
ATOM      7  C   UNK A   0       1.921   3.826  17.995  0.00  0.00    +0.000 A 
ATOM      8  C   UNK A   0       1.088   2.925  18.658  0.00  0.00    +0.000 A 
ATOM      9  C   UNK A   0       0.754   3.139  19.995  0.00  0.00    +0.000 A 
ATOM     10  C   UNK A   0       1.281   4.231  20.685  0.00  0.00    +0.000 A 
ATOM     11  C   UNK A   0       2.121   5.131  20.030  0.00  0.00    +0.000 A 
ENDBRANCH   3   6
ENDBRANCH   1   2
BRANCH   1  12
ATOM     12  C   ARG A   1       6.668   6.540  17.322  0.00  0.00    +0.000 C 
ATOM     13  O   ARG A   1       7.157   5.718  18.085  0.00  0.00    +0.000 OA
BRANCH  12  14
ATOM     14  OXT ARG A   1       7.280   7.719  17.049  0.00  0.00    +0.000 OA
ATOM     15  HXT ARG A   1       7.494   7.749  16.095  0.00  0.00    +0.000 HD
ENDBRANCH  12  14
ENDBRANCH   1  12
BRANCH   1  16
ATOM     16  CB  ARG A   1       5.502   5.843  15.220  0.00  0.00    +0.000 C 
BRANCH  16  17
ATOM     17  CG  ARG A   1       5.691   4.321  15.156  0.00  0.00    +0.000 C 
BRANCH  17  18
ATOM     18  CD  ARG A   1       6.252   3.887  13.796  0.00  0.00    +0.000 C 
BRANCH  18  22
ATOM     19  NH1 ARG A   1       5.992   1.949  11.673  0.00  0.00    +0.000 NA
ATOM     20  CZ  ARG A   1       5.121   2.868  11.852  0.00  0.00    +0.000 C 
ATOM     21  NH2 ARG A   1       4.001   2.973  11.108  0.00  0.00    +0.000 N 
ATOM     22  NE  ARG A   1       5.214   3.847  12.780  0.00  0.00    +0.000 N 
ATOM     23  HH1 ARG A   1       5.688   1.336  10.915  0.00  0.00    +0.000 HD
ATOM     24 HH21 ARG A   1       4.025   2.472  10.227  0.00  0.00    +0.000 HD
ATOM     25 HH22 ARG A   1       3.669   3.919  10.977  0.00  0.00    +0.000 HD
ATOM     26  HE  ARG A   1       4.358   4.328  13.023  0.00  0.00    +0.000 HD
ENDBRANCH  18  22
ENDBRANCH  17  18
ENDBRANCH  16  17
ENDBRANCH   1  16
TORSDOF 8
ENDMDL
MODEL 7
REMARK VINA RESULT:      -6.7      2.513      4.914
REMARK  Name = 
REMARK  8 active torsions:
REMARK  status: ('A' for Active; 'I' for Inactive)
REMARK    1  A    between atoms: NE_4  and  CD_5
REMARK    2  A    between atoms: CD_5  and  CG_6
REMARK    3  A    between atoms: CG_6  and  CB_7
REMARK    4  A    between atoms: CB_7  and  CA_8
REMARK    5  A    between atoms: CA_8  and  N_9
REMARK    6  A    between atoms: CA_8  and  C_18
REMARK    7  A    between atoms: C_10  and  C_12
REMARK    8  A    between atoms: C_18  and  OXT_20
REMARK                            x       y       z     vdW  Elec       q    Type
REMARK                         _______ _______ _______ _____ _____    ______ ____
ROOT
ATOM      1  CA  ARG A   1       2.869   6.009  19.878  0.00  0.00    +0.000 C 
ENDROOT
BRANCH   1   2
ATOM      2  N   ARG A   1       3.626   5.755  18.642  0.00  0.00    +0.000 N 
ATOM      3  C   UNK A   0       4.908   5.233  18.694  0.00  0.00    +0.000 C 
ATOM      4  O   UNK A   0       5.513   5.051  19.742  0.00  0.00    +0.000 OA
ATOM      5  H   ARG A   1       3.101   5.651  17.779  0.00  0.00    +0.000 HD
BRANCH   3   6
ATOM      6  C   UNK A   0       5.525   4.914  17.388  0.00  0.00    +0.000 A 
ATOM      7  C   UNK A   0       6.854   5.261  17.109  0.00  0.00    +0.000 A 
ATOM      8  C   UNK A   0       7.387   5.004  15.846  0.00  0.00    +0.000 A 
ATOM      9  C   UNK A   0       6.600   4.396  14.868  0.00  0.00    +0.000 A 
ATOM     10  C   UNK A   0       5.291   4.007  15.161  0.00  0.00    +0.000 A 
ATOM     11  C   UNK A   0       4.756   4.254  16.424  0.00  0.00    +0.000 A 
ENDBRANCH   3   6
ENDBRANCH   1   2
BRANCH   1  12
ATOM     12  C   ARG A   1       2.199   7.398  19.810  0.00  0.00    +0.000 C 
ATOM     13  O   ARG A   1       2.081   8.054  18.785  0.00  0.00    +0.000 OA
BRANCH  12  14
ATOM     14  OXT ARG A   1       1.800   7.872  21.016  0.00  0.00    +0.000 OA
ATOM     15  HXT ARG A   1       2.133   8.786  21.121  0.00  0.00    +0.000 HD
ENDBRANCH  12  14
ENDBRANCH   1  12
BRANCH   1  16
ATOM     16  CB  ARG A   1       1.779   4.949  20.117  0.00  0.00    +0.000 C 
BRANCH  16  17
ATOM     17  CG  ARG A   1       1.424   4.134  18.864  0.00  0.00    +0.000 C 
BRANCH  17  18
ATOM     18  CD  ARG A   1       1.743   2.647  19.060  0.00  0.00    +0.000 C 
BRANCH  18  22
ATOM     19  NH1 ARG A   1       3.954   0.971  18.264  0.00  0.00    +0.000 NA
ATOM     20  CZ  ARG A   1       4.012   1.706  19.309  0.00  0.00    +0.000 C 
ATOM     21  NH2 ARG A   1       5.113   1.795  20.083  0.00  0.00    +0.000 N 
ATOM     22  NE  ARG A   1       2.993   2.461  19.778  0.00  0.00    +0.000 N 
ATOM     23  HH1 ARG A   1       4.852   0.505  18.126  0.00  0.00    +0.000 HD
ATOM     24 HH21 ARG A   1       5.782   1.043  19.963  0.00  0.00    +0.000 HD
ATOM     25 HH22 ARG A   1       4.928   1.961  21.063  0.00  0.00    +0.000 HD
ATOM     26  HE  ARG A   1       3.234   3.204  20.419  0.00  0.00    +0.000 HD
ENDBRANCH  18  22
ENDBRANCH  17  18
ENDBRANCH  16  17
ENDBRANCH   1  16
TORSDOF 8
ENDMDL
MODEL 8
REMARK VINA RESULT:      -6.7      3.898      6.042
REMARK  Name = 
REMARK  8 active torsions:
REMARK  status: ('A' for Active; 'I' for Inactive)
REMARK    1  A    between atoms: NE_4  and  CD_5
REMARK    2  A    between atoms: CD_5  and  CG_6
REMARK    3  A    between atoms: CG_6  and  CB_7
REMARK    4  A    between atoms: CB_7  and  CA_8
REMARK    5  A    between atoms: CA_8  and  N_9
REMARK    6  A    between atoms: CA_8  and  C_18
REMARK    7  A    between atoms: C_10  and  C_12
REMARK    8  A    between atoms: C_18  and  OXT_20
REMARK                            x       y       z     vdW  Elec       q    Type
REMARK                         _______ _______ _______ _____ _____    ______ ____
ROOT
ATOM      1  CA  ARG A   1       6.405   5.334  17.171  0.00  0.00    +0.000 C 
ENDROOT
BRANCH   1   2
ATOM      2  N   ARG A   1       5.275   4.604  17.766  0.00  0.00    +0.000 N 
ATOM      3  C   UNK A   0       4.094   5.260  18.076  0.00  0.00    +0.000 C 
ATOM      4  O   UNK A   0       3.956   6.471  17.971  0.00  0.00    +0.000 OA
ATOM      5  H   ARG A   1       5.244   3.596  17.642  0.00  0.00    +0.000 HD
BRANCH   3   6
ATOM      6  C   UNK A   0       2.991   4.402  18.562  0.00  0.00    +0.000 A 
ATOM      7  C   UNK A   0       2.691   3.183  17.937  0.00  0.00    +0.000 A 
ATOM      8  C   UNK A   0       1.605   2.428  18.378  0.00  0.00    +0.000 A 
ATOM      9  C   UNK A   0       0.827   2.882  19.443  0.00  0.00    +0.000 A 
ATOM     10  C   UNK A   0       1.153   4.072  20.095  0.00  0.00    +0.000 A 
ATOM     11  C   UNK A   0       2.244   4.827  19.664  0.00  0.00    +0.000 A 
ENDBRANCH   3   6
ENDBRANCH   1   2
BRANCH   1  12
ATOM     12  C   ARG A   1       7.400   5.754  18.273  0.00  0.00    +0.000 C 
ATOM     13  O   ARG A   1       7.752   5.030  19.194  0.00  0.00    +0.000 OA
BRANCH  12  14
ATOM     14  OXT ARG A   1       7.814   7.041  18.174  0.00  0.00    +0.000 OA
ATOM     15  HXT ARG A   1       8.439   7.228  18.904  0.00  0.00    +0.000 HD
ENDBRANCH  12  14
ENDBRANCH   1  12
BRANCH   1  16
ATOM     16  CB  ARG A   1       7.155   4.487  16.128  0.00  0.00    +0.000 C 
BRANCH  16  17
ATOM     17  CG  ARG A   1       6.902   4.924  14.678  0.00  0.00    +0.000 C 
BRANCH  17  18
ATOM     18  CD  ARG A   1       5.723   4.159  14.065  0.00  0.00    +0.000 C 
BRANCH  18  22
ATOM     19  NH1 ARG A   1       4.566   3.293  11.567  0.00  0.00    +0.000 NA
ATOM     20  CZ  ARG A   1       5.623   2.750  12.040  0.00  0.00    +0.000 C 
ATOM     21  NH2 ARG A   1       6.301   1.780  11.393  0.00  0.00    +0.000 N 
ATOM     22  NE  ARG A   1       6.179   3.058  13.232  0.00  0.00    +0.000 N 
ATOM     23  HH1 ARG A   1       4.354   2.887  10.654  0.00  0.00    +0.000 HD
ATOM     24 HH21 ARG A   1       5.780   1.307  10.664  0.00  0.00    +0.000 HD
ATOM     25 HH22 ARG A   1       6.763   1.114  11.998  0.00  0.00    +0.000 HD
ATOM     26  HE  ARG A   1       7.144   2.789  13.368  0.00  0.00    +0.000 HD
ENDBRANCH  18  22
ENDBRANCH  17  18
ENDBRANCH  16  17
ENDBRANCH   1  16
TORSDOF 8
ENDMDL
MODEL 9
REMARK VINA RESULT:      -6.6      4.114      6.161
REMARK  Name = 
REMARK  8 active torsions:
REMARK  status: ('A' for Active; 'I' for Inactive)
REMARK    1  A    between atoms: NE_4  and  CD_5
REMARK    2  A    between atoms: CD_5  and  CG_6
REMARK    3  A    between atoms: CG_6  and  CB_7
REMARK    4  A    between atoms: CB_7  and  CA_8
REMARK    5  A    between atoms: CA_8  and  N_9
REMARK    6  A    between atoms: CA_8  and  C_18
REMARK    7  A    between atoms: C_10  and  C_12
REMARK    8  A    between atoms: C_18  and  OXT_20
REMARK                            x       y       z     vdW  Elec       q    Type
REMARK                         _______ _______ _______ _____ _____    ______ ____
ROOT
ATOM      1  CA  ARG A   1       5.864   4.834  16.931  0.00  0.00    +0.000 C 
ENDROOT
BRANCH   1   2
ATOM      2  N   ARG A   1       5.017   4.315  18.016  0.00  0.00    +0.000 N 
ATOM      3  C   UNK A   0       3.805   4.916  18.316  0.00  0.00    +0.000 C 
ATOM      4  O   UNK A   0       3.421   5.947  17.781  0.00  0.00    +0.000 OA
ATOM      5  H   ARG A   1       5.159   3.352  18.308  0.00  0.00    +0.000 HD
BRANCH   3   6
ATOM      6  C   UNK A   0       2.990   4.238  19.348  0.00  0.00    +0.000 A 
ATOM      7  C   UNK A   0       3.534   3.232  20.158  0.00  0.00    +0.000 A 
ATOM      8  C   UNK A   0       2.724   2.568  21.077  0.00  0.00    +0.000 A 
ATOM      9  C   UNK A   0       1.377   2.911  21.194  0.00  0.00    +0.000 A 
ATOM     10  C   UNK A   0       0.846   3.945  20.421  0.00  0.00    +0.000 A 
ATOM     11  C   UNK A   0       1.654   4.619  19.506  0.00  0.00    +0.000 A 
ENDBRANCH   3   6
ENDBRANCH   1   2
BRANCH   1  12
ATOM     12  C   ARG A   1       7.270   5.167  17.473  0.00  0.00    +0.000 C 
ATOM     13  O   ARG A   1       7.949   4.399  18.139  0.00  0.00    +0.000 OA
BRANCH  12  14
ATOM     14  OXT ARG A   1       7.676   6.431  17.199  0.00  0.00    +0.000 OA
ATOM     15  HXT ARG A   1       7.434   7.009  17.951  0.00  0.00    +0.000 HD
ENDBRANCH  12  14
ENDBRANCH   1  12
BRANCH   1  16
ATOM     16  CB  ARG A   1       6.008   3.825  15.777  0.00  0.00    +0.000 C 
BRANCH  16  17
ATOM     17  CG  ARG A   1       6.733   4.391  14.548  0.00  0.00    +0.000 C 
BRANCH  17  18
ATOM     18  CD  ARG A   1       5.930   4.142  13.266  0.00  0.00    +0.000 C 
BRANCH  18  22
ATOM     19  NH1 ARG A   1       4.457   2.756  11.207  0.00  0.00    +0.000 NA
ATOM     20  CZ  ARG A   1       5.568   2.307  11.654  0.00  0.00    +0.000 C 
ATOM     21  NH2 ARG A   1       6.157   1.194  11.170  0.00  0.00    +0.000 N 
ATOM     22  NE  ARG A   1       6.275   2.866  12.661  0.00  0.00    +0.000 N 
ATOM     23  HH1 ARG A   1       4.129   2.156  10.448  0.00  0.00    +0.000 HD
ATOM     24 HH21 ARG A   1       5.546   0.581  10.645  0.00  0.00    +0.000 HD
ATOM     25 HH22 ARG A   1       6.696   0.673  11.850  0.00  0.00    +0.000 HD
ATOM     26  HE  ARG A   1       7.250   2.608  12.732  0.00  0.00    +0.000 HD
ENDBRANCH  18  22
ENDBRANCH  17  18
ENDBRANCH  16  17
ENDBRANCH   1  16
TORSDOF 8
ENDMDL
