MODEL 1
REMARK VINA RESULT:      -8.6      0.000      0.000
REMARK  Name = 
REMARK  11 active torsions:
REMARK  status: ('A' for Active; 'I' for Inactive)
REMARK    1  A    between atoms: C_1  and  O_2
REMARK    2  A    between atoms: O_2  and  C_3
REMARK    3  A    between atoms: C_3  and  C_4
REMARK    4  A    between atoms: C_4  and  N_5
REMARK    5  A    between atoms: C_6  and  C_8
REMARK    6  A    between atoms: C_8  and  N_9
REMARK    7  A    between atoms: N_12  and  C_13
REMARK    8  A    between atoms: C_13  and  C_14
REMARK    9  A    between atoms: C_17  and  C_18
REMARK   10  A    between atoms: N_20  and  C_21
REMARK   11  A    between atoms: C_21  and  C_22
REMARK                            x       y       z     vdW  Elec       q    Type
REMARK                         _______ _______ _______ _____ _____    ______ ____
ROOT
ATOM      1  N   UNL     1       6.505   5.347  17.883  0.00  0.00    +0.000 N 
ATOM      2  C   UNL     1       5.519   5.316  18.856  0.00  0.00    +0.000 A 
ATOM      3  O   UNL     1       5.833   5.446  20.054  0.00  0.00    +0.000 OA
ATOM      4  N   UNL     1       4.211   5.131  18.436  0.00  0.00    +0.000 N 
ATOM      5  C   UNL     1       3.887   4.613  17.186  0.00  0.00    +0.000 A 
ATOM      6  O   UNL     1       2.769   4.219  16.886  0.00  0.00    +0.000 OA
ATOM      7  C   UNL     1       4.974   4.495  16.210  0.00  0.00    +0.000 A 
ATOM      8  C   UNL     1       4.679   4.096  14.900  0.00  0.00    +0.000 A 
ATOM      9  C   UNL     1       5.688   4.064  13.942  0.00  0.00    +0.000 A 
ATOM     10  C   UNL     1       7.001   4.328  14.319  0.00  0.00    +0.000 A 
ATOM     11  C   UNL     1       7.298   4.673  15.640  0.00  0.00    +0.000 A 
ATOM     12  C   UNL     1       6.271   4.837  16.580  0.00  0.00    +0.000 A 
ENDROOT
BRANCH   1  13
ATOM     13  C   UNL     1       7.764   6.043  18.189  0.00  0.00    +0.000 C 
BRANCH  13  15
ATOM     14  N   UNL     1       8.568   8.315  18.666  0.00  0.00    +0.000 N 
ATOM     15  C   UNL     1       7.782   7.534  17.869  0.00  0.00    +0.000 C 
ATOM     16  O   UNL     1       7.037   8.013  16.993  0.00  0.00    +0.000 OA
ATOM     17  H   UNL     1       9.215   7.856  19.315  0.00  0.00    +0.000 HD
BRANCH  14  18
ATOM     18  C   UNL     1       8.702   9.741  18.428  0.00  0.00    +0.000 C 
BRANCH  18  19
ATOM     19  C   UNL     1       9.389  10.477  19.575  0.00  0.00    +0.000 C 
BRANCH  19  21
ATOM     20  C   UNL     1       9.628  12.138  17.916  0.00  0.00    +0.000 C 
ATOM     21  O   UNL     1       9.389  11.879  19.293  0.00  0.00    +0.000 OA
ENDBRANCH  19  21
ENDBRANCH  18  19
ENDBRANCH  14  18
ENDBRANCH  13  15
ENDBRANCH   1  13
BRANCH   4  22
ATOM     22  C   UNL     1       3.095   5.263  19.392  0.00  0.00    +0.000 C 
BRANCH  22  23
ATOM     23  C   UNL     1       2.549   6.682  19.493  0.00  0.00    +0.000 A 
ATOM     24  C   UNL     1       1.908   7.120  20.666  0.00  0.00    +0.000 A 
ATOM     25  C   UNL     1       1.166   8.306  20.662  0.00  0.00    +0.000 A 
ATOM     26  C   UNL     1       1.093   9.095  19.506  0.00  0.00    +0.000 A 
ATOM     27  C   UNL     1       1.861   8.743  18.394  0.00  0.00    +0.000 A 
ATOM     28  C   UNL     1       2.589   7.548  18.391  0.00  0.00    +0.000 A 
BRANCH  26  29
ATOM     29  C   UNL     1       0.165  10.259  19.511  0.00  0.00    +0.000 C 
ATOM     30  O   UNL     1      -0.515  10.486  20.505  0.00  0.00    +0.000 OA
ATOM     31  N   UNL     1       0.060  11.004  18.350  0.00  0.00    +0.000 N 
ATOM     32  H   UNL     1       0.432  10.666  17.473  0.00  0.00    +0.000 HD
BRANCH  31  33
ATOM     33  C   UNL     1      -0.884  12.099  18.298  0.00  0.00    +0.000 C 
BRANCH  33  34
ATOM     34  C   UNL     1      -2.189  11.624  17.775  0.00  0.00    +0.000 A 
ATOM     35  C   UNL     1      -2.567  11.088  16.561  0.00  0.00    +0.000 A 
ATOM     36  C   UNL     1      -3.968  10.904  16.621  0.00  0.00    +0.000 A 
ATOM     37  C   UNL     1      -4.355  11.324  17.873  0.00  0.00    +0.000 A 
ATOM     38  O   UNL     1      -3.280  11.756  18.585  0.00  0.00    +0.000 OA
ENDBRANCH  33  34
ENDBRANCH  31  33
ENDBRANCH  26  29
ENDBRANCH  22  23
ENDBRANCH   4  22
TORSDOF 10
ENDMDL
MODEL 2
REMARK VINA RESULT:      -8.1      1.820      2.326
REMARK  Name = 
REMARK  11 active torsions:
REMARK  status: ('A' for Active; 'I' for Inactive)
REMARK    1  A    between atoms: C_1  and  O_2
REMARK    2  A    between atoms: O_2  and  C_3
REMARK    3  A    between atoms: C_3  and  C_4
REMARK    4  A    between atoms: C_4  and  N_5
REMARK    5  A    between atoms: C_6  and  C_8
REMARK    6  A    between atoms: C_8  and  N_9
REMARK    7  A    between atoms: N_12  and  C_13
REMARK    8  A    between atoms: C_13  and  C_14
REMARK    9  A    between atoms: C_17  and  C_18
REMARK   10  A    between atoms: N_20  and  C_21
REMARK   11  A    between atoms: C_21  and  C_22
REMARK                            x       y       z     vdW  Elec       q    Type
REMARK                         _______ _______ _______ _____ _____    ______ ____
ROOT
ATOM      1  N   UNL     1       6.642   5.432  17.867  0.00  0.00    +0.000 N 
ATOM      2  C   UNL     1       5.694   5.285  18.867  0.00  0.00    +0.000 A 
ATOM      3  O   UNL     1       6.028   5.430  20.057  0.00  0.00    +0.000 OA
ATOM      4  N   UNL     1       4.400   4.971  18.481  0.00  0.00    +0.000 N 
ATOM      5  C   UNL     1       4.094   4.440  17.232  0.00  0.00    +0.000 A 
ATOM      6  O   UNL     1       3.014   3.935  16.957  0.00  0.00    +0.000 OA
ATOM      7  C   UNL     1       5.158   4.449  16.224  0.00  0.00    +0.000 A 
ATOM      8  C   UNL     1       4.867   4.040  14.916  0.00  0.00    +0.000 A 
ATOM      9  C   UNL     1       5.845   4.127  13.930  0.00  0.00    +0.000 A 
ATOM     10  C   UNL     1       7.134   4.521  14.274  0.00  0.00    +0.000 A 
ATOM     11  C   UNL     1       7.432   4.876  15.592  0.00  0.00    +0.000 A 
ATOM     12  C   UNL     1       6.423   4.919  16.563  0.00  0.00    +0.000 A 
ENDROOT
BRANCH   1  13
ATOM     13  C   UNL     1       7.831   6.251  18.150  0.00  0.00    +0.000 C 
BRANCH  13  15
ATOM     14  N   UNL     1       8.563   8.583  18.393  0.00  0.00    +0.000 N 
ATOM     15  C   UNL     1       7.723   7.719  17.752  0.00  0.00    +0.000 C 
ATOM     16  O   UNL     1       6.842   8.109  16.962  0.00  0.00    +0.000 OA
ATOM     17  H   UNL     1       9.315   8.195  18.971  0.00  0.00    +0.000 HD
BRANCH  14  18
ATOM     18  C   UNL     1       8.585   9.998  18.064  0.00  0.00    +0.000 C 
BRANCH  18  19
ATOM     19  C   UNL     1       9.532  10.802  18.948  0.00  0.00    +0.000 C 
BRANCH  19  21
ATOM     20  C   UNL     1       9.310  11.614  21.153  0.00  0.00    +0.000 C 
ATOM     21  O   UNL     1       9.290  10.464  20.317  0.00  0.00    +0.000 OA
ENDBRANCH  19  21
ENDBRANCH  18  19
ENDBRANCH  14  18
ENDBRANCH  13  15
ENDBRANCH   1  13
BRANCH   4  22
ATOM     22  C   UNL     1       3.305   4.972  19.470  0.00  0.00    +0.000 C 
BRANCH  22  23
ATOM     23  C   UNL     1       2.474   6.249  19.451  0.00  0.00    +0.000 A 
ATOM     24  C   UNL     1       2.450   7.070  18.309  0.00  0.00    +0.000 A 
ATOM     25  C   UNL     1       1.927   8.367  18.384  0.00  0.00    +0.000 A 
ATOM     26  C   UNL     1       1.380   8.843  19.583  0.00  0.00    +0.000 A 
ATOM     27  C   UNL     1       1.258   7.972  20.668  0.00  0.00    +0.000 A 
ATOM     28  C   UNL     1       1.796   6.682  20.599  0.00  0.00    +0.000 A 
BRANCH  26  29
ATOM     29  C   UNL     1       0.984  10.277  19.650  0.00  0.00    +0.000 C 
ATOM     30  O   UNL     1       1.633  11.112  19.032  0.00  0.00    +0.000 OA
ATOM     31  N   UNL     1      -0.075  10.615  20.473  0.00  0.00    +0.000 N 
ATOM     32  H   UNL     1      -0.439   9.965  21.156  0.00  0.00    +0.000 HD
BRANCH  31  33
ATOM     33  C   UNL     1      -0.441  12.008  20.615  0.00  0.00    +0.000 C 
BRANCH  33  34
ATOM     34  C   UNL     1      -1.513  12.153  21.631  0.00  0.00    +0.000 A 
ATOM     35  C   UNL     1      -1.566  11.858  22.978  0.00  0.00    +0.000 A 
ATOM     36  C   UNL     1      -2.887  12.136  23.399  0.00  0.00    +0.000 A 
ATOM     37  C   UNL     1      -3.553  12.598  22.287  0.00  0.00    +0.000 A 
ATOM     38  O   UNL     1      -2.725  12.619  21.209  0.00  0.00    +0.000 OA
ENDBRANCH  33  34
ENDBRANCH  31  33
ENDBRANCH  26  29
ENDBRANCH  22  23
ENDBRANCH   4  22
TORSDOF 10
ENDMDL
MODEL 3
REMARK VINA RESULT:      -8.0      1.502      2.309
REMARK  Name = 
REMARK  11 active torsions:
REMARK  status: ('A' for Active; 'I' for Inactive)
REMARK    1  A    between atoms: C_1  and  O_2
REMARK    2  A    between atoms: O_2  and  C_3
REMARK    3  A    between atoms: C_3  and  C_4
REMARK    4  A    between atoms: C_4  and  N_5
REMARK    5  A    between atoms: C_6  and  C_8
REMARK    6  A    between atoms: C_8  and  N_9
REMARK    7  A    between atoms: N_12  and  C_13
REMARK    8  A    between atoms: C_13  and  C_14
REMARK    9  A    between atoms: C_17  and  C_18
REMARK   10  A    between atoms: N_20  and  C_21
REMARK   11  A    between atoms: C_21  and  C_22
REMARK                            x       y       z     vdW  Elec       q    Type
REMARK                         _______ _______ _______ _____ _____    ______ ____
ROOT
ATOM      1  N   UNL     1       6.527   5.370  17.897  0.00  0.00    +0.000 N 
ATOM      2  C   UNL     1       5.550   5.393  18.880  0.00  0.00    +0.000 A 
ATOM      3  O   UNL     1       5.878   5.550  20.070  0.00  0.00    +0.000 OA
ATOM      4  N   UNL     1       4.233   5.229  18.476  0.00  0.00    +0.000 N 
ATOM      5  C   UNL     1       3.884   4.683  17.245  0.00  0.00    +0.000 A 
ATOM      6  O   UNL     1       2.754   4.308  16.966  0.00  0.00    +0.000 OA
ATOM      7  C   UNL     1       4.960   4.508  16.264  0.00  0.00    +0.000 A 
ATOM      8  C   UNL     1       4.642   4.079  14.969  0.00  0.00    +0.000 A 
ATOM      9  C   UNL     1       5.641   3.993  14.004  0.00  0.00    +0.000 A 
ATOM     10  C   UNL     1       6.964   4.235  14.361  0.00  0.00    +0.000 A 
ATOM     11  C   UNL     1       7.281   4.611  15.669  0.00  0.00    +0.000 A 
ATOM     12  C   UNL     1       6.268   4.828  16.612  0.00  0.00    +0.000 A 
ENDROOT
BRANCH   1  13
ATOM     13  C   UNL     1       7.806   6.043  18.172  0.00  0.00    +0.000 C 
BRANCH  13  15
ATOM     14  N   UNL     1       8.612   8.304  18.694  0.00  0.00    +0.000 N 
ATOM     15  C   UNL     1       7.836   7.538  17.873  0.00  0.00    +0.000 C 
ATOM     16  O   UNL     1       7.107   8.033  16.992  0.00  0.00    +0.000 OA
ATOM     17  H   UNL     1       9.246   7.833  19.347  0.00  0.00    +0.000 HD
BRANCH  14  18
ATOM     18  C   UNL     1       8.756   9.733  18.479  0.00  0.00    +0.000 C 
BRANCH  18  19
ATOM     19  C   UNL     1       9.370  10.459  19.672  0.00  0.00    +0.000 C 
BRANCH  19  21
ATOM     20  C   UNL     1      11.053  11.667  18.545  0.00  0.00    +0.000 C 
ATOM     21  O   UNL     1       9.822  11.749  19.250  0.00  0.00    +0.000 OA
ENDBRANCH  19  21
ENDBRANCH  18  19
ENDBRANCH  14  18
ENDBRANCH  13  15
ENDBRANCH   1  13
BRANCH   4  22
ATOM     22  C   UNL     1       3.130   5.417  19.437  0.00  0.00    +0.000 C 
BRANCH  22  23
ATOM     23  C   UNL     1       2.556   6.829  19.431  0.00  0.00    +0.000 A 
ATOM     24  C   UNL     1       1.909   7.343  20.569  0.00  0.00    +0.000 A 
ATOM     25  C   UNL     1       1.142   8.511  20.476  0.00  0.00    +0.000 A 
ATOM     26  C   UNL     1       1.050   9.205  19.263  0.00  0.00    +0.000 A 
ATOM     27  C   UNL     1       1.822   8.784  18.178  0.00  0.00    +0.000 A 
ATOM     28  C   UNL     1       2.575   7.607  18.265  0.00  0.00    +0.000 A 
BRANCH  26  29
ATOM     29  C   UNL     1       0.098  10.347  19.181  0.00  0.00    +0.000 C 
ATOM     30  O   UNL     1      -1.067  10.189  19.526  0.00  0.00    +0.000 OA
ATOM     31  N   UNL     1       0.562  11.536  18.647  0.00  0.00    +0.000 N 
ATOM     32  H   UNL     1       1.439  11.580  18.147  0.00  0.00    +0.000 HD
BRANCH  31  33
ATOM     33  C   UNL     1      -0.355  12.644  18.489  0.00  0.00    +0.000 C 
BRANCH  33  34
ATOM     34  C   UNL     1       0.366  13.931  18.652  0.00  0.00    +0.000 A 
ATOM     35  C   UNL     1      -0.068  15.218  18.893  0.00  0.00    +0.000 A 
ATOM     36  C   UNL     1       1.081  16.042  18.864  0.00  0.00    +0.000 A 
ATOM     37  C   UNL     1       2.146  15.204  18.624  0.00  0.00    +0.000 A 
ATOM     38  O   UNL     1       1.723  13.918  18.501  0.00  0.00    +0.000 OA
ENDBRANCH  33  34
ENDBRANCH  31  33
ENDBRANCH  26  29
ENDBRANCH  22  23
ENDBRANCH   4  22
TORSDOF 10
ENDMDL
MODEL 4
REMARK VINA RESULT:      -8.0      0.974      1.539
REMARK  Name = 
REMARK  11 active torsions:
REMARK  status: ('A' for Active; 'I' for Inactive)
REMARK    1  A    between atoms: C_1  and  O_2
REMARK    2  A    between atoms: O_2  and  C_3
REMARK    3  A    between atoms: C_3  and  C_4
REMARK    4  A    between atoms: C_4  and  N_5
REMARK    5  A    between atoms: C_6  and  C_8
REMARK    6  A    between atoms: C_8  and  N_9
REMARK    7  A    between atoms: N_12  and  C_13
REMARK    8  A    between atoms: C_13  and  C_14
REMARK    9  A    between atoms: C_17  and  C_18
REMARK   10  A    between atoms: N_20  and  C_21
REMARK   11  A    between atoms: C_21  and  C_22
REMARK                            x       y       z     vdW  Elec       q    Type
REMARK                         _______ _______ _______ _____ _____    ______ ____
ROOT
ATOM      1  N   UNL     1       6.766   5.267  17.729  0.00  0.00    +0.000 N 
ATOM      2  C   UNL     1       5.893   4.996  18.771  0.00  0.00    +0.000 A 
ATOM      3  O   UNL     1       6.287   5.102  19.946  0.00  0.00    +0.000 OA
ATOM      4  N   UNL     1       4.604   4.605  18.440  0.00  0.00    +0.000 N 
ATOM      5  C   UNL     1       4.263   4.119  17.181  0.00  0.00    +0.000 A 
ATOM      6  O   UNL     1       3.209   3.550  16.938  0.00  0.00    +0.000 OA
ATOM      7  C   UNL     1       5.262   4.263  16.117  0.00  0.00    +0.000 A 
ATOM      8  C   UNL     1       4.922   3.904  14.807  0.00  0.00    +0.000 A 
ATOM      9  C   UNL     1       5.830   4.117  13.774  0.00  0.00    +0.000 A 
ATOM     10  C   UNL     1       7.106   4.589  14.067  0.00  0.00    +0.000 A 
ATOM     11  C   UNL     1       7.456   4.895  15.385  0.00  0.00    +0.000 A 
ATOM     12  C   UNL     1       6.507   4.809  16.411  0.00  0.00    +0.000 A 
ENDROOT
BRANCH   1  13
ATOM     13  C   UNL     1       7.907   6.158  17.991  0.00  0.00    +0.000 C 
BRANCH  13  15
ATOM     14  N   UNL     1       8.454   8.514  18.418  0.00  0.00    +0.000 N 
ATOM     15  C   UNL     1       7.648   7.641  17.747  0.00  0.00    +0.000 C 
ATOM     16  O   UNL     1       6.686   8.020  17.053  0.00  0.00    +0.000 OA
ATOM     17  H   UNL     1       9.275   8.144  18.909  0.00  0.00    +0.000 HD
BRANCH  14  18
ATOM     18  C   UNL     1       8.334   9.949  18.230  0.00  0.00    +0.000 C 
BRANCH  18  19
ATOM     19  C   UNL     1       9.677  10.672  18.270  0.00  0.00    +0.000 C 
BRANCH  19  21
ATOM     20  C   UNL     1       9.367  11.068  20.575  0.00  0.00    +0.000 C 
ATOM     21  O   UNL     1       9.646  11.653  19.310  0.00  0.00    +0.000 OA
ENDBRANCH  19  21
ENDBRANCH  18  19
ENDBRANCH  14  18
ENDBRANCH  13  15
ENDBRANCH   1  13
BRANCH   4  22
ATOM     22  C   UNL     1       3.574   4.471  19.487  0.00  0.00    +0.000 C 
BRANCH  22  23
ATOM     23  C   UNL     1       2.687   5.702  19.625  0.00  0.00    +0.000 A 
ATOM     24  C   UNL     1       2.748   6.737  18.675  0.00  0.00    +0.000 A 
ATOM     25  C   UNL     1       2.155   7.976  18.944  0.00  0.00    +0.000 A 
ATOM     26  C   UNL     1       1.454   8.184  20.140  0.00  0.00    +0.000 A 
ATOM     27  C   UNL     1       1.257   7.107  21.007  0.00  0.00    +0.000 A 
ATOM     28  C   UNL     1       1.864   5.873  20.747  0.00  0.00    +0.000 A 
BRANCH  26  29
ATOM     29  C   UNL     1       0.982   9.562  20.443  0.00  0.00    +0.000 C 
ATOM     30  O   UNL     1       0.655   9.850  21.589  0.00  0.00    +0.000 OA
ATOM     31  N   UNL     1       0.866  10.451  19.390  0.00  0.00    +0.000 N 
ATOM     32  H   UNL     1       0.902  10.136  18.430  0.00  0.00    +0.000 HD
BRANCH  31  33
ATOM     33  C   UNL     1       0.344  11.777  19.639  0.00  0.00    +0.000 C 
BRANCH  33  34
ATOM     34  C   UNL     1      -1.099  11.830  19.296  0.00  0.00    +0.000 A 
ATOM     35  C   UNL     1      -2.137  12.616  19.753  0.00  0.00    +0.000 A 
ATOM     36  C   UNL     1      -3.308  12.147  19.113  0.00  0.00    +0.000 A 
ATOM     37  C   UNL     1      -2.909  11.115  18.295  0.00  0.00    +0.000 A 
ATOM     38  O   UNL     1      -1.567  10.919  18.393  0.00  0.00    +0.000 OA
ENDBRANCH  33  34
ENDBRANCH  31  33
ENDBRANCH  26  29
ENDBRANCH  22  23
ENDBRANCH   4  22
TORSDOF 10
ENDMDL
MODEL 5
REMARK VINA RESULT:      -7.9      1.609      2.026
REMARK  Name = 
REMARK  11 active torsions:
REMARK  status: ('A' for Active; 'I' for Inactive)
REMARK    1  A    between atoms: C_1  and  O_2
REMARK    2  A    between atoms: O_2  and  C_3
REMARK    3  A    between atoms: C_3  and  C_4
REMARK    4  A    between atoms: C_4  and  N_5
REMARK    5  A    between atoms: C_6  and  C_8
REMARK    6  A    between atoms: C_8  and  N_9
REMARK    7  A    between atoms: N_12  and  C_13
REMARK    8  A    between atoms: C_13  and  C_14
REMARK    9  A    between atoms: C_17  and  C_18
REMARK   10  A    between atoms: N_20  and  C_21
REMARK   11  A    between atoms: C_21  and  C_22
REMARK                            x       y       z     vdW  Elec       q    Type
REMARK                         _______ _______ _______ _____ _____    ______ ____
ROOT
ATOM      1  N   UNL     1       6.531   5.365  17.880  0.00  0.00    +0.000 N 
ATOM      2  C   UNL     1       5.550   5.331  18.858  0.00  0.00    +0.000 A 
ATOM      3  O   UNL     1       5.868   5.467  20.053  0.00  0.00    +0.000 OA
ATOM      4  N   UNL     1       4.241   5.136  18.443  0.00  0.00    +0.000 N 
ATOM      5  C   UNL     1       3.914   4.611  17.196  0.00  0.00    +0.000 A 
ATOM      6  O   UNL     1       2.798   4.209  16.903  0.00  0.00    +0.000 OA
ATOM      7  C   UNL     1       4.999   4.497  16.217  0.00  0.00    +0.000 A 
ATOM      8  C   UNL     1       4.700   4.092  14.909  0.00  0.00    +0.000 A 
ATOM      9  C   UNL     1       5.706   4.063  13.947  0.00  0.00    +0.000 A 
ATOM     10  C   UNL     1       7.018   4.337  14.317  0.00  0.00    +0.000 A 
ATOM     11  C   UNL     1       7.318   4.688  15.636  0.00  0.00    +0.000 A 
ATOM     12  C   UNL     1       6.295   4.849  16.580  0.00  0.00    +0.000 A 
ENDROOT
BRANCH   1  13
ATOM     13  C   UNL     1       7.787   6.070  18.178  0.00  0.00    +0.000 C 
BRANCH  13  15
ATOM     14  N   UNL     1       8.579   8.344  18.664  0.00  0.00    +0.000 N 
ATOM     15  C   UNL     1       7.786   7.564  17.873  0.00  0.00    +0.000 C 
ATOM     16  O   UNL     1       7.022   8.045  17.014  0.00  0.00    +0.000 OA
ATOM     17  H   UNL     1       9.241   7.884  19.297  0.00  0.00    +0.000 HD
BRANCH  14  18
ATOM     18  C   UNL     1       8.697   9.774  18.438  0.00  0.00    +0.000 C 
BRANCH  18  19
ATOM     19  C   UNL     1       9.422  10.500  19.566  0.00  0.00    +0.000 C 
BRANCH  19  21
ATOM     20  C   UNL     1       9.462  12.839  19.871  0.00  0.00    +0.000 C 
ATOM     21  O   UNL     1       9.912  11.751  19.075  0.00  0.00    +0.000 OA
ENDBRANCH  19  21
ENDBRANCH  18  19
ENDBRANCH  14  18
ENDBRANCH  13  15
ENDBRANCH   1  13
BRANCH   4  22
ATOM     22  C   UNL     1       3.128   5.264  19.404  0.00  0.00    +0.000 C 
BRANCH  22  23
ATOM     23  C   UNL     1       2.573   6.679  19.502  0.00  0.00    +0.000 A 
ATOM     24  C   UNL     1       1.889   7.100  20.656  0.00  0.00    +0.000 A 
ATOM     25  C   UNL     1       1.142   8.284  20.640  0.00  0.00    +0.000 A 
ATOM     26  C   UNL     1       1.107   9.086  19.491  0.00  0.00    +0.000 A 
ATOM     27  C   UNL     1       1.916   8.750  18.403  0.00  0.00    +0.000 A 
ATOM     28  C   UNL     1       2.649   7.558  18.413  0.00  0.00    +0.000 A 
BRANCH  26  29
ATOM     29  C   UNL     1       0.175  10.246  19.476  0.00  0.00    +0.000 C 
ATOM     30  O   UNL     1      -0.785  10.241  18.713  0.00  0.00    +0.000 OA
ATOM     31  N   UNL     1       0.475  11.325  20.288  0.00  0.00    +0.000 N 
ATOM     32  H   UNL     1       1.383  11.421  20.720  0.00  0.00    +0.000 HD
BRANCH  31  33
ATOM     33  C   UNL     1      -0.372  12.498  20.245  0.00  0.00    +0.000 C 
BRANCH  33  34
ATOM     34  C   UNL     1      -1.436  12.396  21.276  0.00  0.00    +0.000 A 
ATOM     35  C   UNL     1      -2.784  12.689  21.255  0.00  0.00    +0.000 A 
ATOM     36  C   UNL     1      -3.265  12.466  22.566  0.00  0.00    +0.000 A 
ATOM     37  C   UNL     1      -2.183  12.037  23.301  0.00  0.00    +0.000 A 
ATOM     38  O   UNL     1      -1.068  11.984  22.524  0.00  0.00    +0.000 OA
ENDBRANCH  33  34
ENDBRANCH  31  33
ENDBRANCH  26  29
ENDBRANCH  22  23
ENDBRANCH   4  22
TORSDOF 10
ENDMDL
MODEL 6
REMARK VINA RESULT:      -7.9      1.141      1.895
REMARK  Name = 
REMARK  11 active torsions:
REMARK  status: ('A' for Active; 'I' for Inactive)
REMARK    1  A    between atoms: C_1  and  O_2
REMARK    2  A    between atoms: O_2  and  C_3
REMARK    3  A    between atoms: C_3  and  C_4
REMARK    4  A    between atoms: C_4  and  N_5
REMARK    5  A    between atoms: C_6  and  C_8
REMARK    6  A    between atoms: C_8  and  N_9
REMARK    7  A    between atoms: N_12  and  C_13
REMARK    8  A    between atoms: C_13  and  C_14
REMARK    9  A    between atoms: C_17  and  C_18
REMARK   10  A    between atoms: N_20  and  C_21
REMARK   11  A    between atoms: C_21  and  C_22
REMARK                            x       y       z     vdW  Elec       q    Type
REMARK                         _______ _______ _______ _____ _____    ______ ____
ROOT
ATOM      1  N   UNL     1       6.588   5.389  17.839  0.00  0.00    +0.000 N 
ATOM      2  C   UNL     1       5.623   5.349  18.834  0.00  0.00    +0.000 A 
ATOM      3  O   UNL     1       5.961   5.487  20.024  0.00  0.00    +0.000 OA
ATOM      4  N   UNL     1       4.309   5.145  18.442  0.00  0.00    +0.000 N 
ATOM      5  C   UNL     1       3.965   4.618  17.201  0.00  0.00    +0.000 A 
ATOM      6  O   UNL     1       2.846   4.207  16.927  0.00  0.00    +0.000 OA
ATOM      7  C   UNL     1       5.033   4.510  16.203  0.00  0.00    +0.000 A 
ATOM      8  C   UNL     1       4.715   4.103  14.901  0.00  0.00    +0.000 A 
ATOM      9  C   UNL     1       5.704   4.081  13.922  0.00  0.00    +0.000 A 
ATOM     10  C   UNL     1       7.021   4.364  14.269  0.00  0.00    +0.000 A 
ATOM     11  C   UNL     1       7.341   4.717  15.583  0.00  0.00    +0.000 A 
ATOM     12  C   UNL     1       6.332   4.871  16.544  0.00  0.00    +0.000 A 
ENDROOT
BRANCH   1  13
ATOM     13  C   UNL     1       7.844   6.103  18.116  0.00  0.00    +0.000 C 
BRANCH  13  15
ATOM     14  N   UNL     1       8.502   8.402  18.678  0.00  0.00    +0.000 N 
ATOM     15  C   UNL     1       7.829   7.596  17.806  0.00  0.00    +0.000 C 
ATOM     16  O   UNL     1       7.152   8.051  16.864  0.00  0.00    +0.000 OA
ATOM     17  H   UNL     1       9.103   7.965  19.384  0.00  0.00    +0.000 HD
BRANCH  14  18
ATOM     18  C   UNL     1       8.598   9.835  18.460  0.00  0.00    +0.000 C 
BRANCH  18  19
ATOM     19  C   UNL     1       9.742  10.482  19.234  0.00  0.00    +0.000 C 
BRANCH  19  21
ATOM     20  C   UNL     1      10.177  12.011  20.977  0.00  0.00    +0.000 C 
ATOM     21  O   UNL     1       9.218  11.542  20.039  0.00  0.00    +0.000 OA
ENDBRANCH  19  21
ENDBRANCH  18  19
ENDBRANCH  14  18
ENDBRANCH  13  15
ENDBRANCH   1  13
BRANCH   4  22
ATOM     22  C   UNL     1       3.211   5.265  19.421  0.00  0.00    +0.000 C 
BRANCH  22  23
ATOM     23  C   UNL     1       2.636   6.672  19.514  0.00  0.00    +0.000 A 
ATOM     24  C   UNL     1       1.985   7.103  20.685  0.00  0.00    +0.000 A 
ATOM     25  C   UNL     1       1.217   8.273  20.674  0.00  0.00    +0.000 A 
ATOM     26  C   UNL     1       1.127   9.053  19.513  0.00  0.00    +0.000 A 
ATOM     27  C   UNL     1       1.902   8.711  18.403  0.00  0.00    +0.000 A 
ATOM     28  C   UNL     1       2.656   7.532  18.408  0.00  0.00    +0.000 A 
BRANCH  26  29
ATOM     29  C   UNL     1       0.174  10.197  19.511  0.00  0.00    +0.000 C 
ATOM     30  O   UNL     1      -0.400  10.507  20.549  0.00  0.00    +0.000 OA
ATOM     31  N   UNL     1      -0.077  10.824  18.305  0.00  0.00    +0.000 N 
ATOM     32  H   UNL     1       0.207  10.410  17.428  0.00  0.00    +0.000 HD
BRANCH  31  33
ATOM     33  C   UNL     1      -1.050  11.894  18.254  0.00  0.00    +0.000 C 
BRANCH  33  34
ATOM     34  C   UNL     1      -0.451  13.154  18.761  0.00  0.00    +0.000 A 
ATOM     35  C   UNL     1       0.767  13.763  18.535  0.00  0.00    +0.000 A 
ATOM     36  C   UNL     1       0.804  14.908  19.364  0.00  0.00    +0.000 A 
ATOM     37  C   UNL     1      -0.398  14.934  20.032  0.00  0.00    +0.000 A 
ATOM     38  O   UNL     1      -1.172  13.877  19.667  0.00  0.00    +0.000 OA
ENDBRANCH  33  34
ENDBRANCH  31  33
ENDBRANCH  26  29
ENDBRANCH  22  23
ENDBRANCH   4  22
TORSDOF 10
ENDMDL
MODEL 7
REMARK VINA RESULT:      -7.9      1.990      2.725
REMARK  Name = 
REMARK  11 active torsions:
REMARK  status: ('A' for Active; 'I' for Inactive)
REMARK    1  A    between atoms: C_1  and  O_2
REMARK    2  A    between atoms: O_2  and  C_3
REMARK    3  A    between atoms: C_3  and  C_4
REMARK    4  A    between atoms: C_4  and  N_5
REMARK    5  A    between atoms: C_6  and  C_8
REMARK    6  A    between atoms: C_8  and  N_9
REMARK    7  A    between atoms: N_12  and  C_13
REMARK    8  A    between atoms: C_13  and  C_14
REMARK    9  A    between atoms: C_17  and  C_18
REMARK   10  A    between atoms: N_20  and  C_21
REMARK   11  A    between atoms: C_21  and  C_22
REMARK                            x       y       z     vdW  Elec       q    Type
REMARK                         _______ _______ _______ _____ _____    ______ ____
ROOT
ATOM      1  N   UNL     1       6.665   5.247  17.689  0.00  0.00    +0.000 N 
ATOM      2  C   UNL     1       5.770   4.961  18.707  0.00  0.00    +0.000 A 
ATOM      3  O   UNL     1       6.139   5.049  19.893  0.00  0.00    +0.000 OA
ATOM      4  N   UNL     1       4.488   4.576  18.343  0.00  0.00    +0.000 N 
ATOM      5  C   UNL     1       4.174   4.109  17.070  0.00  0.00    +0.000 A 
ATOM      6  O   UNL     1       3.125   3.544  16.797  0.00  0.00    +0.000 OA
ATOM      7  C   UNL     1       5.195   4.268  16.031  0.00  0.00    +0.000 A 
ATOM      8  C   UNL     1       4.884   3.928  14.708  0.00  0.00    +0.000 A 
ATOM      9  C   UNL     1       5.814   4.157  13.698  0.00  0.00    +0.000 A 
ATOM     10  C   UNL     1       7.083   4.624  14.025  0.00  0.00    +0.000 A 
ATOM     11  C   UNL     1       7.405   4.910  15.355  0.00  0.00    +0.000 A 
ATOM     12  C   UNL     1       6.434   4.809  16.359  0.00  0.00    +0.000 A 
ENDROOT
BRANCH   1  13
ATOM     13  C   UNL     1       7.800   6.133  17.989  0.00  0.00    +0.000 C 
BRANCH  13  15
ATOM     14  N   UNL     1       8.326   8.500  18.387  0.00  0.00    +0.000 N 
ATOM     15  C   UNL     1       7.580   7.609  17.672  0.00  0.00    +0.000 C 
ATOM     16  O   UNL     1       6.691   7.970  16.877  0.00  0.00    +0.000 OA
ATOM     17  H   UNL     1       9.093   8.141  18.966  0.00  0.00    +0.000 HD
BRANCH  14  18
ATOM     18  C   UNL     1       8.238   9.928  18.140  0.00  0.00    +0.000 C 
BRANCH  18  19
ATOM     19  C   UNL     1       9.601  10.608  18.064  0.00  0.00    +0.000 C 
BRANCH  19  21
ATOM     20  C   UNL     1       9.179  12.446  19.481  0.00  0.00    +0.000 C 
ATOM     21  O   UNL     1       9.420  12.024  18.145  0.00  0.00    +0.000 OA
ENDBRANCH  19  21
ENDBRANCH  18  19
ENDBRANCH  14  18
ENDBRANCH  13  15
ENDBRANCH   1  13
BRANCH   4  22
ATOM     22  C   UNL     1       3.436   4.426  19.366  0.00  0.00    +0.000 C 
BRANCH  22  23
ATOM     23  C   UNL     1       2.621   5.695  19.585  0.00  0.00    +0.000 A 
ATOM     24  C   UNL     1       2.721   6.774  18.689  0.00  0.00    +0.000 A 
ATOM     25  C   UNL     1       2.203   8.027  19.033  0.00  0.00    +0.000 A 
ATOM     26  C   UNL     1       1.537   8.209  20.253  0.00  0.00    +0.000 A 
ATOM     27  C   UNL     1       1.296   7.101  21.068  0.00  0.00    +0.000 A 
ATOM     28  C   UNL     1       1.829   5.851  20.732  0.00  0.00    +0.000 A 
BRANCH  26  29
ATOM     29  C   UNL     1       1.146   9.594  20.637  0.00  0.00    +0.000 C 
ATOM     30  O   UNL     1       1.202   9.933  21.813  0.00  0.00    +0.000 OA
ATOM     31  N   UNL     1       0.667  10.427  19.642  0.00  0.00    +0.000 N 
ATOM     32  H   UNL     1       0.398  10.066  18.738  0.00  0.00    +0.000 HD
BRANCH  31  33
ATOM     33  C   UNL     1       0.213  11.756  19.994  0.00  0.00    +0.000 C 
BRANCH  33  34
ATOM     34  C   UNL     1       1.294  12.744  19.754  0.00  0.00    +0.000 A 
ATOM     35  C   UNL     1       1.796  13.779  20.515  0.00  0.00    +0.000 A 
ATOM     36  C   UNL     1       2.771  14.427  19.722  0.00  0.00    +0.000 A 
ATOM     37  C   UNL     1       2.814  13.737  18.532  0.00  0.00    +0.000 A 
ATOM     38  O   UNL     1       1.926  12.708  18.544  0.00  0.00    +0.000 OA
ENDBRANCH  33  34
ENDBRANCH  31  33
ENDBRANCH  26  29
ENDBRANCH  22  23
ENDBRANCH   4  22
TORSDOF 10
ENDMDL
MODEL 8
REMARK VINA RESULT:      -7.8      1.824      2.591
REMARK  Name = 
REMARK  11 active torsions:
REMARK  status: ('A' for Active; 'I' for Inactive)
REMARK    1  A    between atoms: C_1  and  O_2
REMARK    2  A    between atoms: O_2  and  C_3
REMARK    3  A    between atoms: C_3  and  C_4
REMARK    4  A    between atoms: C_4  and  N_5
REMARK    5  A    between atoms: C_6  and  C_8
REMARK    6  A    between atoms: C_8  and  N_9
REMARK    7  A    between atoms: N_12  and  C_13
REMARK    8  A    between atoms: C_13  and  C_14
REMARK    9  A    between atoms: C_17  and  C_18
REMARK   10  A    between atoms: N_20  and  C_21
REMARK   11  A    between atoms: C_21  and  C_22
REMARK                            x       y       z     vdW  Elec       q    Type
REMARK                         _______ _______ _______ _____ _____    ______ ____
ROOT
ATOM      1  N   UNL     1       6.498   5.237  17.850  0.00  0.00    +0.000 N 
ATOM      2  C   UNL     1       5.503   5.166  18.812  0.00  0.00    +0.000 A 
ATOM      3  O   UNL     1       5.801   5.284  20.015  0.00  0.00    +0.000 OA
ATOM      4  N   UNL     1       4.204   4.954  18.374  0.00  0.00    +0.000 N 
ATOM      5  C   UNL     1       3.907   4.448  17.113  0.00  0.00    +0.000 A 
ATOM      6  O   UNL     1       2.803   4.030  16.795  0.00  0.00    +0.000 OA
ATOM      7  C   UNL     1       5.007   4.373  16.147  0.00  0.00    +0.000 A 
ATOM      8  C   UNL     1       4.736   3.989  14.828  0.00  0.00    +0.000 A 
ATOM      9  C   UNL     1       5.756   3.998  13.881  0.00  0.00    +0.000 A 
ATOM     10  C   UNL     1       7.057   4.289  14.276  0.00  0.00    +0.000 A 
ATOM     11  C   UNL     1       7.331   4.620  15.606  0.00  0.00    +0.000 A 
ATOM     12  C   UNL     1       6.291   4.743  16.537  0.00  0.00    +0.000 A 
ENDROOT
BRANCH   1  13
ATOM     13  C   UNL     1       7.736   5.960  18.181  0.00  0.00    +0.000 C 
BRANCH  13  15
ATOM     14  N   UNL     1       8.459   8.261  18.649  0.00  0.00    +0.000 N 
ATOM     15  C   UNL     1       7.742   7.443  17.824  0.00  0.00    +0.000 C 
ATOM     16  O   UNL     1       7.044   7.883  16.890  0.00  0.00    +0.000 OA
ATOM     17  H   UNL     1       9.072   7.833  19.349  0.00  0.00    +0.000 HD
BRANCH  14  18
ATOM     18  C   UNL     1       8.577   9.684  18.383  0.00  0.00    +0.000 C 
BRANCH  18  19
ATOM     19  C   UNL     1       9.536  10.392  19.335  0.00  0.00    +0.000 C 
BRANCH  19  21
ATOM     20  C   UNL     1      10.608  12.341  18.550  0.00  0.00    +0.000 C 
ATOM     21  O   UNL     1       9.430  11.805  19.136  0.00  0.00    +0.000 OA
ENDBRANCH  19  21
ENDBRANCH  18  19
ENDBRANCH  14  18
ENDBRANCH  13  15
ENDBRANCH   1  13
BRANCH   4  22
ATOM     22  C   UNL     1       3.075   5.042  19.320  0.00  0.00    +0.000 C 
BRANCH  22  23
ATOM     23  C   UNL     1       2.573   6.464  19.532  0.00  0.00    +0.000 A 
ATOM     24  C   UNL     1       2.008   6.847  20.762  0.00  0.00    +0.000 A 
ATOM     25  C   UNL     1       1.298   8.049  20.868  0.00  0.00    +0.000 A 
ATOM     26  C   UNL     1       1.182   8.905  19.764  0.00  0.00    +0.000 A 
ATOM     27  C   UNL     1       1.879   8.601  18.592  0.00  0.00    +0.000 A 
ATOM     28  C   UNL     1       2.575   7.392  18.482  0.00  0.00    +0.000 A 
BRANCH  26  29
ATOM     29  C   UNL     1       0.286  10.087  19.887  0.00  0.00    +0.000 C 
ATOM     30  O   UNL     1      -0.393  10.432  18.927  0.00  0.00    +0.000 OA
ATOM     31  N   UNL     1       0.312  10.795  21.075  0.00  0.00    +0.000 N 
ATOM     32  H   UNL     1       1.043  10.651  21.757  0.00  0.00    +0.000 HD
BRANCH  31  33
ATOM     33  C   UNL     1      -0.495  11.990  21.202  0.00  0.00    +0.000 C 
BRANCH  33  34
ATOM     34  C   UNL     1       0.368  13.196  21.147  0.00  0.00    +0.000 A 
ATOM     35  C   UNL     1       0.099  14.522  20.877  0.00  0.00    +0.000 A 
ATOM     36  C   UNL     1       1.343  15.195  20.889  0.00  0.00    +0.000 A 
ATOM     37  C   UNL     1       2.290  14.241  21.181  0.00  0.00    +0.000 A 
ATOM     38  O   UNL     1       1.707  13.024  21.347  0.00  0.00    +0.000 OA
ENDBRANCH  33  34
ENDBRANCH  31  33
ENDBRANCH  26  29
ENDBRANCH  22  23
ENDBRANCH   4  22
TORSDOF 10
ENDMDL
MODEL 9
REMARK VINA RESULT:      -7.7      1.987      2.960
REMARK  Name = 
REMARK  11 active torsions:
REMARK  status: ('A' for Active; 'I' for Inactive)
REMARK    1  A    between atoms: C_1  and  O_2
REMARK    2  A    between atoms: O_2  and  C_3
REMARK    3  A    between atoms: C_3  and  C_4
REMARK    4  A    between atoms: C_4  and  N_5
REMARK    5  A    between atoms: C_6  and  C_8
REMARK    6  A    between atoms: C_8  and  N_9
REMARK    7  A    between atoms: N_12  and  C_13
REMARK    8  A    between atoms: C_13  and  C_14
REMARK    9  A    between atoms: C_17  and  C_18
REMARK   10  A    between atoms: N_20  and  C_21
REMARK   11  A    between atoms: C_21  and  C_22
REMARK                            x       y       z     vdW  Elec       q    Type
REMARK                         _______ _______ _______ _____ _____    ______ ____
ROOT
ATOM      1  N   UNL     1       6.593   5.378  17.886  0.00  0.00    +0.000 N 
ATOM      2  C   UNL     1       5.633   5.336  18.885  0.00  0.00    +0.000 A 
ATOM      3  O   UNL     1       5.975   5.472  20.074  0.00  0.00    +0.000 OA
ATOM      4  N   UNL     1       4.316   5.134  18.498  0.00  0.00    +0.000 N 
ATOM      5  C   UNL     1       3.967   4.609  17.258  0.00  0.00    +0.000 A 
ATOM      6  O   UNL     1       2.847   4.200  16.987  0.00  0.00    +0.000 OA
ATOM      7  C   UNL     1       5.031   4.503  16.255  0.00  0.00    +0.000 A 
ATOM      8  C   UNL     1       4.707   4.098  14.953  0.00  0.00    +0.000 A 
ATOM      9  C   UNL     1       5.692   4.077  13.970  0.00  0.00    +0.000 A 
ATOM     10  C   UNL     1       7.010   4.359  14.312  0.00  0.00    +0.000 A 
ATOM     11  C   UNL     1       7.336   4.710  15.626  0.00  0.00    +0.000 A 
ATOM     12  C   UNL     1       6.332   4.862  16.591  0.00  0.00    +0.000 A 
ENDROOT
BRANCH   1  13
ATOM     13  C   UNL     1       7.851   6.090  18.159  0.00  0.00    +0.000 C 
BRANCH  13  15
ATOM     14  N   UNL     1       8.586   8.372  18.698  0.00  0.00    +0.000 N 
ATOM     15  C   UNL     1       7.828   7.589  17.876  0.00  0.00    +0.000 C 
ATOM     16  O   UNL     1       7.074   8.068  17.007  0.00  0.00    +0.000 OA
ATOM     17  H   UNL     1       9.242   7.915  19.339  0.00  0.00    +0.000 HD
BRANCH  14  18
ATOM     18  C   UNL     1       8.681   9.807  18.496  0.00  0.00    +0.000 C 
BRANCH  18  19
ATOM     19  C   UNL     1       9.301  10.538  19.682  0.00  0.00    +0.000 C 
BRANCH  19  21
ATOM     20  C   UNL     1      10.048  11.861  17.877  0.00  0.00    +0.000 C 
ATOM     21  O   UNL     1       9.719  11.839  19.260  0.00  0.00    +0.000 OA
ENDBRANCH  19  21
ENDBRANCH  18  19
ENDBRANCH  14  18
ENDBRANCH  13  15
ENDBRANCH   1  13
BRANCH   4  22
ATOM     22  C   UNL     1       3.224   5.253  19.483  0.00  0.00    +0.000 C 
BRANCH  22  23
ATOM     23  C   UNL     1       2.447   6.559  19.369  0.00  0.00    +0.000 A 
ATOM     24  C   UNL     1       2.408   7.264  18.153  0.00  0.00    +0.000 A 
ATOM     25  C   UNL     1       1.944   8.585  18.119  0.00  0.00    +0.000 A 
ATOM     26  C   UNL     1       1.469   9.201  19.284  0.00  0.00    +0.000 A 
ATOM     27  C   UNL     1       1.357   8.447  20.455  0.00  0.00    +0.000 A 
ATOM     28  C   UNL     1       1.837   7.133  20.493  0.00  0.00    +0.000 A 
BRANCH  26  29
ATOM     29  C   UNL     1       1.136  10.650  19.223  0.00  0.00    +0.000 C 
ATOM     30  O   UNL     1       1.412  11.292  18.216  0.00  0.00    +0.000 OA
ATOM     31  N   UNL     1       0.585  11.233  20.350  0.00  0.00    +0.000 N 
ATOM     32  H   UNL     1       0.590  10.760  21.243  0.00  0.00    +0.000 HD
BRANCH  31  33
ATOM     33  C   UNL     1       0.314  12.655  20.349  0.00  0.00    +0.000 C 
BRANCH  33  34
ATOM     34  C   UNL     1       1.587  13.416  20.397  0.00  0.00    +0.000 A 
ATOM     35  C   UNL     1       2.130  14.377  19.569  0.00  0.00    +0.000 A 
ATOM     36  C   UNL     1       3.413  14.674  20.085  0.00  0.00    +0.000 A 
ATOM     37  C   UNL     1       3.565  13.889  21.204  0.00  0.00    +0.000 A 
ATOM     38  O   UNL     1       2.458  13.126  21.407  0.00  0.00    +0.000 OA
ENDBRANCH  33  34
ENDBRANCH  31  33
ENDBRANCH  26  29
ENDBRANCH  22  23
ENDBRANCH   4  22
TORSDOF 10
ENDMDL
