MODEL 1
REMARK VINA RESULT:      -6.5      0.000      0.000
REMARK  Name = 
REMARK  8 active torsions:
REMARK  status: ('A' for Active; 'I' for Inactive)
REMARK    1  A    between atoms: C_1  and  C_2
REMARK    2  A    between atoms: C_2  and  C_3
REMARK    3  A    between atoms: C_3  and  C_4
REMARK    4  A    between atoms: C_4  and  C_5
REMARK    5  A    between atoms: C_5  and  C_6
REMARK    6  A    between atoms: C_6  and  O_8
REMARK    7  A    between atoms: O_8  and  C_9
REMARK    8  A    between atoms: C_14  and  C_15
REMARK                            x       y       z     vdW  Elec       q    Type
REMARK                         _______ _______ _______ _____ _____    ______ ____
ROOT
ATOM      1  C   UNL     1       4.512   5.014  17.801  0.00  0.00    +0.000 A 
ATOM      2  C   UNL     1       4.133   6.321  17.437  0.00  0.00    +0.000 A 
ATOM      3 CL   UNL     1       4.595   7.003  15.904  0.00  0.00    +0.000 Cl
ATOM      4  C   UNL     1       3.287   7.055  18.281  0.00  0.00    +0.000 A 
ATOM      5 CL   UNL     1       2.830   8.682  17.861  0.00  0.00    +0.000 Cl
ATOM      6  C   UNL     1       2.777   6.466  19.447  0.00  0.00    +0.000 A 
ATOM      7  C   UNL     1       3.138   5.150  19.792  0.00  0.00    +0.000 A 
ATOM      8 CL   UNL     1       2.433   4.403  21.200  0.00  0.00    +0.000 Cl
ATOM      9  C   UNL     1       4.024   4.425  18.976  0.00  0.00    +0.000 A 
ATOM     10 CL   UNL     1       4.486   2.799  19.368  0.00  0.00    +0.000 Cl
ENDROOT
BRANCH   6  11
ATOM     11  C   UNL     1       1.837   7.189  20.256  0.00  0.00    +0.000 C 
ATOM     12  N   UNL     1       1.085   7.757  20.925  0.00  0.00    +0.000 NA
ENDBRANCH   6  11
BRANCH   1  13
ATOM     13  O   UNL     1       5.205   4.188  16.894  0.00  0.00    +0.000 OA
BRANCH  13  14
ATOM     14  C   UNL     1       6.581   4.379  16.846  0.00  0.00    +0.000 C 
ATOM     15  O   UNL     1       7.310   4.552  17.813  0.00  0.00    +0.000 OA
BRANCH  14  16
ATOM     16  C   UNL     1       6.984   4.450  15.391  0.00  0.00    +0.000 C 
BRANCH  16  17
ATOM     17  C   UNL     1       5.868   4.041  14.459  0.00  0.00    +0.000 C 
BRANCH  17  18
ATOM     18  C   UNL     1       6.413   3.820  13.048  0.00  0.00    +0.000 C 
BRANCH  18  20
ATOM     19  C   UNL     1       5.728   1.985  11.463  0.00  0.00    +0.000 C 
ATOM     20  C   UNL     1       5.317   3.282  12.135  0.00  0.00    +0.000 C 
ENDBRANCH  18  20
ENDBRANCH  17  18
ENDBRANCH  16  17
ENDBRANCH  14  16
ENDBRANCH  13  14
ENDBRANCH   1  13
TORSDOF 7
ENDMDL
MODEL 2
REMARK VINA RESULT:      -6.2      0.519      2.714
REMARK  Name = 
REMARK  8 active torsions:
REMARK  status: ('A' for Active; 'I' for Inactive)
REMARK    1  A    between atoms: C_1  and  C_2
REMARK    2  A    between atoms: C_2  and  C_3
REMARK    3  A    between atoms: C_3  and  C_4
REMARK    4  A    between atoms: C_4  and  C_5
REMARK    5  A    between atoms: C_5  and  C_6
REMARK    6  A    between atoms: C_6  and  O_8
REMARK    7  A    between atoms: O_8  and  C_9
REMARK    8  A    between atoms: C_14  and  C_15
REMARK                            x       y       z     vdW  Elec       q    Type
REMARK                         _______ _______ _______ _____ _____    ______ ____
ROOT
ATOM      1  C   UNL     1       4.139   4.716  17.956  0.00  0.00    +0.000 A 
ATOM      2  C   UNL     1       3.622   4.211  19.165  0.00  0.00    +0.000 A 
ATOM      3 CL   UNL     1       4.063   2.632  19.748  0.00  0.00    +0.000 Cl
ATOM      4  C   UNL     1       2.812   5.030  19.965  0.00  0.00    +0.000 A 
ATOM      5 CL   UNL     1       2.140   4.414  21.449  0.00  0.00    +0.000 Cl
ATOM      6  C   UNL     1       2.572   6.360  19.590  0.00  0.00    +0.000 A 
ATOM      7  C   UNL     1       3.114   6.867  18.394  0.00  0.00    +0.000 A 
ATOM      8 CL   UNL     1       2.875   8.544  17.982  0.00  0.00    +0.000 Cl
ATOM      9  C   UNL     1       3.887   6.039  17.563  0.00  0.00    +0.000 A 
ATOM     10 CL   UNL     1       4.575   6.632  16.085  0.00  0.00    +0.000 Cl
ENDROOT
BRANCH   6  11
ATOM     11  C   UNL     1       1.821   7.220  20.460  0.00  0.00    +0.000 C 
ATOM     12  N   UNL     1       1.220   7.929  21.148  0.00  0.00    +0.000 NA
ENDBRANCH   6  11
BRANCH   1  13
ATOM     13  O   UNL     1       5.100   3.989  17.226  0.00  0.00    +0.000 OA
BRANCH  13  14
ATOM     14  C   UNL     1       6.417   4.403  17.397  0.00  0.00    +0.000 C 
ATOM     15  O   UNL     1       6.923   4.744  18.457  0.00  0.00    +0.000 OA
BRANCH  14  16
ATOM     16  C   UNL     1       7.060   4.464  16.031  0.00  0.00    +0.000 C 
BRANCH  16  17
ATOM     17  C   UNL     1       6.262   3.729  14.980  0.00  0.00    +0.000 C 
BRANCH  17  18
ATOM     18  C   UNL     1       6.672   4.196  13.583  0.00  0.00    +0.000 C 
BRANCH  18  20
ATOM     19  C   UNL     1       6.214   2.479  11.797  0.00  0.00    +0.000 C 
ATOM     20  C   UNL     1       5.680   3.688  12.543  0.00  0.00    +0.000 C 
ENDBRANCH  18  20
ENDBRANCH  17  18
ENDBRANCH  16  17
ENDBRANCH  14  16
ENDBRANCH  13  14
ENDBRANCH   1  13
TORSDOF 7
ENDMDL
MODEL 3
REMARK VINA RESULT:      -6.1      3.002      4.677
REMARK  Name = 
REMARK  8 active torsions:
REMARK  status: ('A' for Active; 'I' for Inactive)
REMARK    1  A    between atoms: C_1  and  C_2
REMARK    2  A    between atoms: C_2  and  C_3
REMARK    3  A    between atoms: C_3  and  C_4
REMARK    4  A    between atoms: C_4  and  C_5
REMARK    5  A    between atoms: C_5  and  C_6
REMARK    6  A    between atoms: C_6  and  O_8
REMARK    7  A    between atoms: O_8  and  C_9
REMARK    8  A    between atoms: C_14  and  C_15
REMARK                            x       y       z     vdW  Elec       q    Type
REMARK                         _______ _______ _______ _____ _____    ______ ____
ROOT
ATOM      1  C   UNL     1       3.969   5.575  17.719  0.00  0.00    +0.000 A 
ATOM      2  C   UNL     1       3.159   6.274  18.634  0.00  0.00    +0.000 A 
ATOM      3 CL   UNL     1       2.692   7.927  18.351  0.00  0.00    +0.000 Cl
ATOM      4  C   UNL     1       2.637   5.601  19.749  0.00  0.00    +0.000 A 
ATOM      5 CL   UNL     1       1.656   6.456  20.907  0.00  0.00    +0.000 Cl
ATOM      6  C   UNL     1       2.873   4.229  19.912  0.00  0.00    +0.000 A 
ATOM      7  C   UNL     1       3.662   3.529  18.980  0.00  0.00    +0.000 A 
ATOM      8 CL   UNL     1       3.880   1.809  19.152  0.00  0.00    +0.000 Cl
ATOM      9  C   UNL     1       4.228   4.207  17.887  0.00  0.00    +0.000 A 
ATOM     10 CL   UNL     1       5.201   3.376  16.714  0.00  0.00    +0.000 Cl
ENDROOT
BRANCH   6  11
ATOM     11  C   UNL     1       2.258   3.526  21.003  0.00  0.00    +0.000 C 
ATOM     12  N   UNL     1       1.745   2.972  21.878  0.00  0.00    +0.000 NA
ENDBRANCH   6  11
BRANCH   1  13
ATOM     13  O   UNL     1       4.354   6.169  16.501  0.00  0.00    +0.000 OA
BRANCH  13  14
ATOM     14  C   UNL     1       5.717   6.406  16.357  0.00  0.00    +0.000 C 
ATOM     15  O   UNL     1       6.389   6.116  15.378  0.00  0.00    +0.000 OA
BRANCH  14  16
ATOM     16  C   UNL     1       6.224   6.971  17.663  0.00  0.00    +0.000 C 
BRANCH  16  17
ATOM     17  C   UNL     1       7.673   7.393  17.591  0.00  0.00    +0.000 C 
BRANCH  17  18
ATOM     18  C   UNL     1       7.783   8.916  17.638  0.00  0.00    +0.000 C 
BRANCH  18  20
ATOM     19  C   UNL     1       9.351  10.723  18.429  0.00  0.00    +0.000 C 
ATOM     20  C   UNL     1       8.784   9.342  18.705  0.00  0.00    +0.000 C 
ENDBRANCH  18  20
ENDBRANCH  17  18
ENDBRANCH  16  17
ENDBRANCH  14  16
ENDBRANCH  13  14
ENDBRANCH   1  13
TORSDOF 7
ENDMDL
MODEL 4
REMARK VINA RESULT:      -6.0      2.372      4.575
REMARK  Name = 
REMARK  8 active torsions:
REMARK  status: ('A' for Active; 'I' for Inactive)
REMARK    1  A    between atoms: C_1  and  C_2
REMARK    2  A    between atoms: C_2  and  C_3
REMARK    3  A    between atoms: C_3  and  C_4
REMARK    4  A    between atoms: C_4  and  C_5
REMARK    5  A    between atoms: C_5  and  C_6
REMARK    6  A    between atoms: C_6  and  O_8
REMARK    7  A    between atoms: O_8  and  C_9
REMARK    8  A    between atoms: C_14  and  C_15
REMARK                            x       y       z     vdW  Elec       q    Type
REMARK                         _______ _______ _______ _____ _____    ______ ____
ROOT
ATOM      1  C   UNL     1       4.522   4.804  17.844  0.00  0.00    +0.000 A 
ATOM      2  C   UNL     1       3.998   4.295  19.048  0.00  0.00    +0.000 A 
ATOM      3 CL   UNL     1       4.528   2.767  19.691  0.00  0.00    +0.000 Cl
ATOM      4  C   UNL     1       3.101   5.073  19.795  0.00  0.00    +0.000 A 
ATOM      5 CL   UNL     1       2.420   4.449  21.271  0.00  0.00    +0.000 Cl
ATOM      6  C   UNL     1       2.781   6.371  19.373  0.00  0.00    +0.000 A 
ATOM      7  C   UNL     1       3.329   6.885  18.182  0.00  0.00    +0.000 A 
ATOM      8 CL   UNL     1       2.985   8.528  17.714  0.00  0.00    +0.000 Cl
ATOM      9  C   UNL     1       4.190   6.094  17.404  0.00  0.00    +0.000 A 
ATOM     10 CL   UNL     1       4.889   6.696  15.935  0.00  0.00    +0.000 Cl
ENDROOT
BRANCH   6  11
ATOM     11  C   UNL     1       1.937   7.197  20.191  0.00  0.00    +0.000 C 
ATOM     12  N   UNL     1       1.255   7.874  20.832  0.00  0.00    +0.000 NA
ENDBRANCH   6  11
BRANCH   1  13
ATOM     13  O   UNL     1       5.559   4.130  17.170  0.00  0.00    +0.000 OA
BRANCH  13  14
ATOM     14  C   UNL     1       6.842   4.605  17.423  0.00  0.00    +0.000 C 
ATOM     15  O   UNL     1       7.835   4.359  16.754  0.00  0.00    +0.000 OA
BRANCH  14  16
ATOM     16  C   UNL     1       6.799   5.373  18.723  0.00  0.00    +0.000 C 
BRANCH  16  17
ATOM     17  C   UNL     1       7.973   6.308  18.885  0.00  0.00    +0.000 C 
BRANCH  17  18
ATOM     18  C   UNL     1       7.805   7.529  17.980  0.00  0.00    +0.000 C 
BRANCH  18  20
ATOM     19  C   UNL     1       8.206  10.013  17.857  0.00  0.00    +0.000 C 
ATOM     20  C   UNL     1       8.593   8.710  18.533  0.00  0.00    +0.000 C 
ENDBRANCH  18  20
ENDBRANCH  17  18
ENDBRANCH  16  17
ENDBRANCH  14  16
ENDBRANCH  13  14
ENDBRANCH   1  13
TORSDOF 7
ENDMDL
MODEL 5
REMARK VINA RESULT:      -5.9      1.796      2.323
REMARK  Name = 
REMARK  8 active torsions:
REMARK  status: ('A' for Active; 'I' for Inactive)
REMARK    1  A    between atoms: C_1  and  C_2
REMARK    2  A    between atoms: C_2  and  C_3
REMARK    3  A    between atoms: C_3  and  C_4
REMARK    4  A    between atoms: C_4  and  C_5
REMARK    5  A    between atoms: C_5  and  C_6
REMARK    6  A    between atoms: C_6  and  O_8
REMARK    7  A    between atoms: O_8  and  C_9
REMARK    8  A    between atoms: C_14  and  C_15
REMARK                            x       y       z     vdW  Elec       q    Type
REMARK                         _______ _______ _______ _____ _____    ______ ____
ROOT
ATOM      1  C   UNL     1       4.224   5.068  17.342  0.00  0.00    +0.000 A 
ATOM      2  C   UNL     1       3.523   5.980  18.154  0.00  0.00    +0.000 A 
ATOM      3 CL   UNL     1       3.224   7.613  17.630  0.00  0.00    +0.000 Cl
ATOM      4  C   UNL     1       2.971   5.543  19.367  0.00  0.00    +0.000 A 
ATOM      5 CL   UNL     1       2.126   6.664  20.399  0.00  0.00    +0.000 Cl
ATOM      6  C   UNL     1       3.067   4.193  19.734  0.00  0.00    +0.000 A 
ATOM      7  C   UNL     1       3.746   3.280  18.905  0.00  0.00    +0.000 A 
ATOM      8 CL   UNL     1       3.786   1.591  19.335  0.00  0.00    +0.000 Cl
ATOM      9  C   UNL     1       4.342   3.720  17.712  0.00  0.00    +0.000 A 
ATOM     10 CL   UNL     1       5.181   2.621  16.663  0.00  0.00    +0.000 Cl
ENDROOT
BRANCH   6  11
ATOM     11  C   UNL     1       2.419   3.734  20.930  0.00  0.00    +0.000 C 
ATOM     12  N   UNL     1       1.889   3.348  21.882  0.00  0.00    +0.000 NA
ENDBRANCH   6  11
BRANCH   1  13
ATOM     13  O   UNL     1       4.627   5.426  16.041  0.00  0.00    +0.000 OA
BRANCH  13  14
ATOM     14  C   UNL     1       5.933   5.892  15.929  0.00  0.00    +0.000 C 
ATOM     15  O   UNL     1       6.371   6.910  16.446  0.00  0.00    +0.000 OA
BRANCH  14  16
ATOM     16  C   UNL     1       6.664   4.983  14.968  0.00  0.00    +0.000 C 
BRANCH  16  17
ATOM     17  C   UNL     1       5.745   4.364  13.941  0.00  0.00    +0.000 C 
BRANCH  17  18
ATOM     18  C   UNL     1       6.558   3.821  12.765  0.00  0.00    +0.000 C 
BRANCH  18  20
ATOM     19  C   UNL     1       4.340   3.391  11.649  0.00  0.00    +0.000 C 
ATOM     20  C   UNL     1       5.721   2.840  11.953  0.00  0.00    +0.000 C 
ENDBRANCH  18  20
ENDBRANCH  17  18
ENDBRANCH  16  17
ENDBRANCH  14  16
ENDBRANCH  13  14
ENDBRANCH   1  13
TORSDOF 7
ENDMDL
MODEL 6
REMARK VINA RESULT:      -5.8      3.207      5.165
REMARK  Name = 
REMARK  8 active torsions:
REMARK  status: ('A' for Active; 'I' for Inactive)
REMARK    1  A    between atoms: C_1  and  C_2
REMARK    2  A    between atoms: C_2  and  C_3
REMARK    3  A    between atoms: C_3  and  C_4
REMARK    4  A    between atoms: C_4  and  C_5
REMARK    5  A    between atoms: C_5  and  C_6
REMARK    6  A    between atoms: C_6  and  O_8
REMARK    7  A    between atoms: O_8  and  C_9
REMARK    8  A    between atoms: C_14  and  C_15
REMARK                            x       y       z     vdW  Elec       q    Type
REMARK                         _______ _______ _______ _____ _____    ______ ____
ROOT
ATOM      1  C   UNL     1       4.377   5.440  16.910  0.00  0.00    +0.000 A 
ATOM      2  C   UNL     1       4.481   4.036  16.956  0.00  0.00    +0.000 A 
ATOM      3 CL   UNL     1       5.564   3.174  15.901  0.00  0.00    +0.000 Cl
ATOM      4  C   UNL     1       3.772   3.323  17.934  0.00  0.00    +0.000 A 
ATOM      5 CL   UNL     1       3.866   1.584  17.989  0.00  0.00    +0.000 Cl
ATOM      6  C   UNL     1       3.016   4.011  18.894  0.00  0.00    +0.000 A 
ATOM      7  C   UNL     1       2.937   5.416  18.858  0.00  0.00    +0.000 A 
ATOM      8 CL   UNL     1       2.059   6.262  20.104  0.00  0.00    +0.000 Cl
ATOM      9  C   UNL     1       3.605   6.135  17.853  0.00  0.00    +0.000 A 
ATOM     10 CL   UNL     1       3.535   7.867  17.783  0.00  0.00    +0.000 Cl
ENDROOT
BRANCH   6  11
ATOM     11  C   UNL     1       2.370   3.281  19.947  0.00  0.00    +0.000 C 
ATOM     12  N   UNL     1       1.857   2.708  20.810  0.00  0.00    +0.000 NA
ENDBRANCH   6  11
BRANCH   1  13
ATOM     13  O   UNL     1       5.214   6.195  16.066  0.00  0.00    +0.000 OA
BRANCH  13  14
ATOM     14  C   UNL     1       6.576   6.090  16.327  0.00  0.00    +0.000 C 
ATOM     15  O   UNL     1       7.378   5.444  15.668  0.00  0.00    +0.000 OA
BRANCH  14  16
ATOM     16  C   UNL     1       6.851   6.814  17.624  0.00  0.00    +0.000 C 
BRANCH  16  17
ATOM     17  C   UNL     1       7.414   8.199  17.409  0.00  0.00    +0.000 C 
BRANCH  17  18
ATOM     18  C   UNL     1       8.480   8.505  18.460  0.00  0.00    +0.000 C 
BRANCH  18  20
ATOM     19  C   UNL     1       9.424  10.474  19.719  0.00  0.00    +0.000 C 
ATOM     20  C   UNL     1       8.887   9.972  18.390  0.00  0.00    +0.000 C 
ENDBRANCH  18  20
ENDBRANCH  17  18
ENDBRANCH  16  17
ENDBRANCH  14  16
ENDBRANCH  13  14
ENDBRANCH   1  13
TORSDOF 7
ENDMDL
MODEL 7
REMARK VINA RESULT:      -5.8      1.867      3.100
REMARK  Name = 
REMARK  8 active torsions:
REMARK  status: ('A' for Active; 'I' for Inactive)
REMARK    1  A    between atoms: C_1  and  C_2
REMARK    2  A    between atoms: C_2  and  C_3
REMARK    3  A    between atoms: C_3  and  C_4
REMARK    4  A    between atoms: C_4  and  C_5
REMARK    5  A    between atoms: C_5  and  C_6
REMARK    6  A    between atoms: C_6  and  O_8
REMARK    7  A    between atoms: O_8  and  C_9
REMARK    8  A    between atoms: C_14  and  C_15
REMARK                            x       y       z     vdW  Elec       q    Type
REMARK                         _______ _______ _______ _____ _____    ______ ____
ROOT
ATOM      1  C   UNL     1       3.702   5.200  17.564  0.00  0.00    +0.000 A 
ATOM      2  C   UNL     1       3.832   3.815  17.783  0.00  0.00    +0.000 A 
ATOM      3 CL   UNL     1       4.836   2.828  16.760  0.00  0.00    +0.000 Cl
ATOM      4  C   UNL     1       3.220   3.231  18.902  0.00  0.00    +0.000 A 
ATOM      5 CL   UNL     1       3.346   1.516  19.174  0.00  0.00    +0.000 Cl
ATOM      6  C   UNL     1       2.536   4.036  19.825  0.00  0.00    +0.000 A 
ATOM      7  C   UNL     1       2.431   5.424  19.615  0.00  0.00    +0.000 A 
ATOM      8 CL   UNL     1       1.648   6.420  20.811  0.00  0.00    +0.000 Cl
ATOM      9  C   UNL     1       3.001   6.008  18.472  0.00  0.00    +0.000 A 
ATOM     10 CL   UNL     1       2.898   7.716  18.184  0.00  0.00    +0.000 Cl
ENDROOT
BRANCH   6  11
ATOM     11  C   UNL     1       1.992   3.446  21.016  0.00  0.00    +0.000 C 
ATOM     12  N   UNL     1       1.552   2.991  21.983  0.00  0.00    +0.000 NA
ENDBRANCH   6  11
BRANCH   1  13
ATOM     13  O   UNL     1       4.453   5.843  16.561  0.00  0.00    +0.000 OA
BRANCH  13  14
ATOM     14  C   UNL     1       5.798   6.039  16.856  0.00  0.00    +0.000 C 
ATOM     15  O   UNL     1       6.231   6.654  17.820  0.00  0.00    +0.000 OA
BRANCH  14  16
ATOM     16  C   UNL     1       6.607   5.461  15.719  0.00  0.00    +0.000 C 
BRANCH  16  17
ATOM     17  C   UNL     1       5.772   5.194  14.489  0.00  0.00    +0.000 C 
BRANCH  17  18
ATOM     18  C   UNL     1       6.268   3.935  13.777  0.00  0.00    +0.000 C 
BRANCH  18  20
ATOM     19  C   UNL     1       5.927   2.504  11.732  0.00  0.00    +0.000 C 
ATOM     20  C   UNL     1       5.331   3.571  12.632  0.00  0.00    +0.000 C 
ENDBRANCH  18  20
ENDBRANCH  17  18
ENDBRANCH  16  17
ENDBRANCH  14  16
ENDBRANCH  13  14
ENDBRANCH   1  13
TORSDOF 7
ENDMDL
MODEL 8
REMARK VINA RESULT:      -5.8      0.772      1.183
REMARK  Name = 
REMARK  8 active torsions:
REMARK  status: ('A' for Active; 'I' for Inactive)
REMARK    1  A    between atoms: C_1  and  C_2
REMARK    2  A    between atoms: C_2  and  C_3
REMARK    3  A    between atoms: C_3  and  C_4
REMARK    4  A    between atoms: C_4  and  C_5
REMARK    5  A    between atoms: C_5  and  C_6
REMARK    6  A    between atoms: C_6  and  O_8
REMARK    7  A    between atoms: O_8  and  C_9
REMARK    8  A    between atoms: C_14  and  C_15
REMARK                            x       y       z     vdW  Elec       q    Type
REMARK                         _______ _______ _______ _____ _____    ______ ____
ROOT
ATOM      1  C   UNL     1       4.697   5.116  18.221  0.00  0.00    +0.000 A 
ATOM      2  C   UNL     1       4.261   6.377  17.772  0.00  0.00    +0.000 A 
ATOM      3 CL   UNL     1       4.829   7.048  16.270  0.00  0.00    +0.000 Cl
ATOM      4  C   UNL     1       3.280   7.068  18.497  0.00  0.00    +0.000 A 
ATOM      5 CL   UNL     1       2.748   8.641  17.973  0.00  0.00    +0.000 Cl
ATOM      6  C   UNL     1       2.696   6.474  19.626  0.00  0.00    +0.000 A 
ATOM      7  C   UNL     1       3.117   5.202  20.055  0.00  0.00    +0.000 A 
ATOM      8 CL   UNL     1       2.327   4.444  21.411  0.00  0.00    +0.000 Cl
ATOM      9  C   UNL     1       4.134   4.525  19.361  0.00  0.00    +0.000 A 
ATOM     10 CL   UNL     1       4.674   2.952  19.858  0.00  0.00    +0.000 Cl
ENDROOT
BRANCH   6  11
ATOM     11  C   UNL     1       1.626   7.145  20.309  0.00  0.00    +0.000 C 
ATOM     12  N   UNL     1       0.752   7.667  20.857  0.00  0.00    +0.000 NA
ENDBRANCH   6  11
BRANCH   1  13
ATOM     13  O   UNL     1       5.541   4.320  17.421  0.00  0.00    +0.000 OA
BRANCH  13  14
ATOM     14  C   UNL     1       4.944   3.767  16.293  0.00  0.00    +0.000 C 
ATOM     15  O   UNL     1       3.804   3.329  16.235  0.00  0.00    +0.000 OA
BRANCH  14  16
ATOM     16  C   UNL     1       5.991   3.701  15.205  0.00  0.00    +0.000 C 
BRANCH  16  17
ATOM     17  C   UNL     1       5.482   4.211  13.878  0.00  0.00    +0.000 C 
BRANCH  17  18
ATOM     18  C   UNL     1       6.351   3.677  12.739  0.00  0.00    +0.000 C 
BRANCH  18  20
ATOM     19  C   UNL     1       4.260   3.268  11.394  0.00  0.00    +0.000 C 
ATOM     20  C   UNL     1       5.566   2.679  11.897  0.00  0.00    +0.000 C 
ENDBRANCH  18  20
ENDBRANCH  17  18
ENDBRANCH  16  17
ENDBRANCH  14  16
ENDBRANCH  13  14
ENDBRANCH   1  13
TORSDOF 7
ENDMDL
MODEL 9
REMARK VINA RESULT:      -5.7      3.563      5.389
REMARK  Name = 
REMARK  8 active torsions:
REMARK  status: ('A' for Active; 'I' for Inactive)
REMARK    1  A    between atoms: C_1  and  C_2
REMARK    2  A    between atoms: C_2  and  C_3
REMARK    3  A    between atoms: C_3  and  C_4
REMARK    4  A    between atoms: C_4  and  C_5
REMARK    5  A    between atoms: C_5  and  C_6
REMARK    6  A    between atoms: C_6  and  O_8
REMARK    7  A    between atoms: O_8  and  C_9
REMARK    8  A    between atoms: C_14  and  C_15
REMARK                            x       y       z     vdW  Elec       q    Type
REMARK                         _______ _______ _______ _____ _____    ______ ____
ROOT
ATOM      1  C   UNL     1       3.310   5.346  20.204  0.00  0.00    +0.000 A 
ATOM      2  C   UNL     1       4.323   4.611  19.558  0.00  0.00    +0.000 A 
ATOM      3 CL   UNL     1       4.867   3.080  20.183  0.00  0.00    +0.000 Cl
ATOM      4  C   UNL     1       4.838   5.070  18.338  0.00  0.00    +0.000 A 
ATOM      5 CL   UNL     1       6.111   4.189  17.538  0.00  0.00    +0.000 Cl
ATOM      6  C   UNL     1       4.303   6.219  17.739  0.00  0.00    +0.000 A 
ATOM      7  C   UNL     1       3.273   6.936  18.376  0.00  0.00    +0.000 A 
ATOM      8 CL   UNL     1       2.564   8.316  17.582  0.00  0.00    +0.000 Cl
ATOM      9  C   UNL     1       2.785   6.509  19.622  0.00  0.00    +0.000 A 
ATOM     10 CL   UNL     1       1.511   7.364  20.434  0.00  0.00    +0.000 Cl
ENDROOT
BRANCH   6  11
ATOM     11  C   UNL     1       4.771   6.630  16.445  0.00  0.00    +0.000 C 
ATOM     12  N   UNL     1       5.127   6.966  15.398  0.00  0.00    +0.000 NA
ENDBRANCH   6  11
BRANCH   1  13
ATOM     13  O   UNL     1       2.645   4.820  21.329  0.00  0.00    +0.000 OA
BRANCH  13  14
ATOM     14  C   UNL     1       1.950   3.636  21.110  0.00  0.00    +0.000 C 
ATOM     15  O   UNL     1       2.267   2.536  21.539  0.00  0.00    +0.000 OA
BRANCH  14  16
ATOM     16  C   UNL     1       0.814   3.939  20.160  0.00  0.00    +0.000 C 
BRANCH  16  17
ATOM     17  C   UNL     1       0.800   3.022  18.960  0.00  0.00    +0.000 C 
BRANCH  17  18
ATOM     18  C   UNL     1       1.238   3.783  17.709  0.00  0.00    +0.000 C 
BRANCH  18  20
ATOM     19  C   UNL     1       2.812   1.817  17.790  0.00  0.00    +0.000 C 
ATOM     20  C   UNL     1       2.426   3.088  17.055  0.00  0.00    +0.000 C 
ENDBRANCH  18  20
ENDBRANCH  17  18
ENDBRANCH  16  17
ENDBRANCH  14  16
ENDBRANCH  13  14
ENDBRANCH   1  13
TORSDOF 7
ENDMDL
