MODEL 1
REMARK VINA RESULT:      -8.5      0.000      0.000
REMARK  Name = 
REMARK  5 active torsions:
REMARK  status: ('A' for Active; 'I' for Inactive)
REMARK    1  A    between atoms: C_1  and  N_2
REMARK    2  A    between atoms: N_5  and  C_6
REMARK    3  A    between atoms: C_12  and  C_13
REMARK    4  A    between atoms: C_17  and  O_18
REMARK    5  A    between atoms: C_20  and  O_21
REMARK                            x       y       z     vdW  Elec       q    Type
REMARK                         _______ _______ _______ _____ _____    ______ ____
ROOT
ATOM      1  C   UNL     1       1.989   6.555  20.043  0.00  0.00    +0.000 A 
ATOM      2  C   UNL     1       1.473   5.615  20.955  0.00  0.00    +0.000 A 
ATOM      3  C   UNL     1       1.822   4.259  20.931  0.00  0.00    +0.000 A 
ATOM      4  C   UNL     1       2.746   3.886  19.965  0.00  0.00    +0.000 A 
ATOM      5  O   UNL     1       3.220   2.634  19.759  0.00  0.00    +0.000 OA
ATOM      6  N   UNL     1       4.146   2.653  18.737  0.00  0.00    +0.000 NA
ATOM      7  C   UNL     1       4.251   3.935  18.335  0.00  0.00    +0.000 A 
ATOM      8  C   UNL     1       3.325   4.755  19.060  0.00  0.00    +0.000 A 
ATOM      9  C   UNL     1       2.907   6.104  19.080  0.00  0.00    +0.000 A 
ENDROOT
BRANCH   1  14
ATOM     10  C   UNL     1      -0.808  11.377  20.090  0.00  0.00    +0.000 C 
ATOM     11  N   UNL     1       0.371  10.521  20.216  0.00  0.00    +0.000 NA
ATOM     12  C   UNL     1       0.648   9.834  18.930  0.00  0.00    +0.000 C 
ATOM     13  C   UNL     1       1.822   8.826  19.017  0.00  0.00    +0.000 C 
ATOM     14  N   UNL     1       1.535   7.861  20.088  0.00  0.00    +0.000 N 
ATOM     15  C   UNL     1       1.328   8.507  21.398  0.00  0.00    +0.000 C 
ATOM     16  C   UNL     1       0.160   9.512  21.282  0.00  0.00    +0.000 C 
ENDBRANCH   1  14
BRANCH   7  17
ATOM     17  C   UNL     1       5.221   4.296  17.296  0.00  0.00    +0.000 A 
ATOM     18  C   UNL     1       4.902   4.040  15.948  0.00  0.00    +0.000 A 
ATOM     19  C   UNL     1       5.817   4.329  14.935  0.00  0.00    +0.000 A 
ATOM     20 CL   UNL     1       5.418   3.976  13.296  0.00  0.00    +0.000 Cl
ATOM     21  C   UNL     1       7.053   4.890  15.252  0.00  0.00    +0.000 A 
ATOM     22  C   UNL     1       7.391   5.155  16.571  0.00  0.00    +0.000 A 
ATOM     23  C   UNL     1       6.485   4.846  17.589  0.00  0.00    +0.000 A 
BRANCH  21  24
ATOM     24  O   UNL     1       7.988   5.188  14.299  0.00  0.00    +0.000 OA
ATOM     25  H   UNL     1       8.644   4.466  14.302  0.00  0.00    +0.000 HD
ENDBRANCH  21  24
BRANCH  23  26
ATOM     26  O   UNL     1       6.869   5.044  18.887  0.00  0.00    +0.000 OA
ATOM     27  H   UNL     1       6.690   4.241  19.406  0.00  0.00    +0.000 HD
ENDBRANCH  23  26
ENDBRANCH   7  17
TORSDOF 4
ENDMDL
MODEL 2
REMARK VINA RESULT:      -8.3      0.838      1.287
REMARK  Name = 
REMARK  5 active torsions:
REMARK  status: ('A' for Active; 'I' for Inactive)
REMARK    1  A    between atoms: C_1  and  N_2
REMARK    2  A    between atoms: N_5  and  C_6
REMARK    3  A    between atoms: C_12  and  C_13
REMARK    4  A    between atoms: C_17  and  O_18
REMARK    5  A    between atoms: C_20  and  O_21
REMARK                            x       y       z     vdW  Elec       q    Type
REMARK                         _______ _______ _______ _____ _____    ______ ____
ROOT
ATOM      1  C   UNL     1       2.033   7.140  19.785  0.00  0.00    +0.000 A 
ATOM      2  C   UNL     1       1.533   6.266  20.769  0.00  0.00    +0.000 A 
ATOM      3  C   UNL     1       1.889   4.914  20.839  0.00  0.00    +0.000 A 
ATOM      4  C   UNL     1       2.803   4.476  19.891  0.00  0.00    +0.000 A 
ATOM      5  O   UNL     1       3.281   3.214  19.770  0.00  0.00    +0.000 OA
ATOM      6  N   UNL     1       4.193   3.163  18.737  0.00  0.00    +0.000 NA
ATOM      7  C   UNL     1       4.287   4.414  18.242  0.00  0.00    +0.000 A 
ATOM      8  C   UNL     1       3.366   5.279  18.917  0.00  0.00    +0.000 A 
ATOM      9  C   UNL     1       2.941   6.624  18.845  0.00  0.00    +0.000 A 
ENDROOT
BRANCH   1  14
ATOM     10  C   UNL     1       1.200  12.652  19.790  0.00  0.00    +0.000 C 
ATOM     11  N   UNL     1       0.822  11.249  19.626  0.00  0.00    +0.000 NA
ATOM     12  C   UNL     1       0.980  10.520  20.908  0.00  0.00    +0.000 C 
ATOM     13  C   UNL     1       0.699   9.000  20.785  0.00  0.00    +0.000 C 
ATOM     14  N   UNL     1       1.572   8.444  19.741  0.00  0.00    +0.000 N 
ATOM     15  C   UNL     1       1.387   9.098  18.433  0.00  0.00    +0.000 C 
ATOM     16  C   UNL     1       1.664  10.611  18.584  0.00  0.00    +0.000 C 
ENDBRANCH   1  14
BRANCH   7  17
ATOM     17  C   UNL     1       5.242   4.702  17.167  0.00  0.00    +0.000 A 
ATOM     18  C   UNL     1       5.004   4.172  15.884  0.00  0.00    +0.000 A 
ATOM     19  C   UNL     1       5.912   4.389  14.847  0.00  0.00    +0.000 A 
ATOM     20 CL   UNL     1       5.617   3.702  13.294  0.00  0.00    +0.000 Cl
ATOM     21  C   UNL     1       7.059   5.148  15.072  0.00  0.00    +0.000 A 
ATOM     22  C   UNL     1       7.315   5.685  16.326  0.00  0.00    +0.000 A 
ATOM     23  C   UNL     1       6.418   5.450  17.371  0.00  0.00    +0.000 A 
BRANCH  21  24
ATOM     24  O   UNL     1       7.983   5.387  14.093  0.00  0.00    +0.000 OA
ATOM     25  H   UNL     1       8.532   6.138  14.389  0.00  0.00    +0.000 HD
ENDBRANCH  21  24
BRANCH  23  26
ATOM     26  O   UNL     1       6.730   5.923  18.616  0.00  0.00    +0.000 OA
ATOM     27  H   UNL     1       6.021   6.509  18.930  0.00  0.00    +0.000 HD
ENDBRANCH  23  26
ENDBRANCH   7  17
TORSDOF 4
ENDMDL
MODEL 3
REMARK VINA RESULT:      -7.7      1.361      1.837
REMARK  Name = 
REMARK  5 active torsions:
REMARK  status: ('A' for Active; 'I' for Inactive)
REMARK    1  A    between atoms: C_1  and  N_2
REMARK    2  A    between atoms: N_5  and  C_6
REMARK    3  A    between atoms: C_12  and  C_13
REMARK    4  A    between atoms: C_17  and  O_18
REMARK    5  A    between atoms: C_20  and  O_21
REMARK                            x       y       z     vdW  Elec       q    Type
REMARK                         _______ _______ _______ _____ _____    ______ ____
ROOT
ATOM      1  C   UNL     1       1.806   7.983  19.694  0.00  0.00    +0.000 A 
ATOM      2  C   UNL     1       1.129   7.366  20.762  0.00  0.00    +0.000 A 
ATOM      3  C   UNL     1       1.332   6.028  21.122  0.00  0.00    +0.000 A 
ATOM      4  C   UNL     1       2.279   5.336  20.380  0.00  0.00    +0.000 A 
ATOM      5  O   UNL     1       2.631   4.039  20.550  0.00  0.00    +0.000 OA
ATOM      6  N   UNL     1       3.625   3.708  19.652  0.00  0.00    +0.000 NA
ATOM      7  C   UNL     1       3.894   4.824  18.947  0.00  0.00    +0.000 A 
ATOM      8  C   UNL     1       3.011   5.881  19.342  0.00  0.00    +0.000 A 
ATOM      9  C   UNL     1       2.738   7.217  18.973  0.00  0.00    +0.000 A 
ENDROOT
BRANCH   1  14
ATOM     10  C   UNL     1       1.455  13.479  18.833  0.00  0.00    +0.000 C 
ATOM     11  N   UNL     1       1.047  12.082  18.694  0.00  0.00    +0.000 NA
ATOM     12  C   UNL     1       0.701  11.513  20.020  0.00  0.00    +0.000 C 
ATOM     13  C   UNL     1       0.362  10.002  19.967  0.00  0.00    +0.000 C 
ATOM     14  N   UNL     1       1.492   9.288  19.356  0.00  0.00    +0.000 N 
ATOM     15  C   UNL     1       1.815   9.779  18.004  0.00  0.00    +0.000 C 
ATOM     16  C   UNL     1       2.141  11.288  18.084  0.00  0.00    +0.000 C 
ENDBRANCH   1  14
BRANCH   7  17
ATOM     17  C   UNL     1       4.970   4.814  17.950  0.00  0.00    +0.000 A 
ATOM     18  C   UNL     1       4.643   4.593  16.597  0.00  0.00    +0.000 A 
ATOM     19  C   UNL     1       5.643   4.533  15.626  0.00  0.00    +0.000 A 
ATOM     20 CL   UNL     1       5.222   4.229  13.982  0.00  0.00    +0.000 Cl
ATOM     21  C   UNL     1       6.978   4.706  15.989  0.00  0.00    +0.000 A 
ATOM     22  C   UNL     1       7.327   4.928  17.313  0.00  0.00    +0.000 A 
ATOM     23  C   UNL     1       6.329   4.966  18.290  0.00  0.00    +0.000 A 
BRANCH  21  24
ATOM     24  O   UNL     1       7.997   4.651  15.078  0.00  0.00    +0.000 OA
ATOM     25  H   UNL     1       7.591   4.574  14.194  0.00  0.00    +0.000 HD
ENDBRANCH  21  24
BRANCH  23  26
ATOM     26  O   UNL     1       6.702   5.108  19.598  0.00  0.00    +0.000 OA
ATOM     27  H   UNL     1       6.927   4.238  19.970  0.00  0.00    +0.000 HD
ENDBRANCH  23  26
ENDBRANCH   7  17
TORSDOF 4
ENDMDL
MODEL 4
REMARK VINA RESULT:      -7.5      2.035      2.829
REMARK  Name = 
REMARK  5 active torsions:
REMARK  status: ('A' for Active; 'I' for Inactive)
REMARK    1  A    between atoms: C_1  and  N_2
REMARK    2  A    between atoms: N_5  and  C_6
REMARK    3  A    between atoms: C_12  and  C_13
REMARK    4  A    between atoms: C_17  and  O_18
REMARK    5  A    between atoms: C_20  and  O_21
REMARK                            x       y       z     vdW  Elec       q    Type
REMARK                         _______ _______ _______ _____ _____    ______ ____
ROOT
ATOM      1  C   UNL     1       1.435   8.680  19.681  0.00  0.00    +0.000 A 
ATOM      2  C   UNL     1       0.796   8.121  20.804  0.00  0.00    +0.000 A 
ATOM      3  C   UNL     1       1.018   6.806  21.231  0.00  0.00    +0.000 A 
ATOM      4  C   UNL     1       1.942   6.076  20.497  0.00  0.00    +0.000 A 
ATOM      5  O   UNL     1       2.305   4.791  20.728  0.00  0.00    +0.000 OA
ATOM      6  N   UNL     1       3.270   4.413  19.817  0.00  0.00    +0.000 NA
ATOM      7  C   UNL     1       3.511   5.489  19.042  0.00  0.00    +0.000 A 
ATOM      8  C   UNL     1       2.636   6.564  19.407  0.00  0.00    +0.000 A 
ATOM      9  C   UNL     1       2.345   7.877  18.973  0.00  0.00    +0.000 A 
ENDROOT
BRANCH   1  14
ATOM     10  C   UNL     1       0.672  14.149  18.925  0.00  0.00    +0.000 C 
ATOM     11  N   UNL     1       0.572  12.731  18.581  0.00  0.00    +0.000 NA
ATOM     12  C   UNL     1      -0.213  12.006  19.611  0.00  0.00    +0.000 C 
ATOM     13  C   UNL     1      -0.271  10.477  19.369  0.00  0.00    +0.000 C 
ATOM     14  N   UNL     1       1.103   9.962  19.282  0.00  0.00    +0.000 N 
ATOM     15  C   UNL     1       1.890  10.610  18.217  0.00  0.00    +0.000 C 
ATOM     16  C   UNL     1       1.925  12.133  18.476  0.00  0.00    +0.000 C 
ENDBRANCH   1  14
BRANCH   7  17
ATOM     17  C   UNL     1       4.553   5.426  18.011  0.00  0.00    +0.000 A 
ATOM     18  C   UNL     1       5.604   6.363  18.046  0.00  0.00    +0.000 A 
ATOM     19  C   UNL     1       6.589   6.361  17.058  0.00  0.00    +0.000 A 
ATOM     20 CL   UNL     1       7.847   7.539  17.103  0.00  0.00    +0.000 Cl
ATOM     21  C   UNL     1       6.546   5.418  16.033  0.00  0.00    +0.000 A 
ATOM     22  C   UNL     1       5.524   4.482  15.977  0.00  0.00    +0.000 A 
ATOM     23  C   UNL     1       4.524   4.496  16.953  0.00  0.00    +0.000 A 
BRANCH  21  24
ATOM     24  O   UNL     1       7.484   5.376  15.038  0.00  0.00    +0.000 OA
ATOM     25  H   UNL     1       7.096   5.815  14.257  0.00  0.00    +0.000 HD
ENDBRANCH  21  24
BRANCH  23  26
ATOM     26  O   UNL     1       3.485   3.615  16.834  0.00  0.00    +0.000 OA
ATOM     27  H   UNL     1       3.639   3.029  16.074  0.00  0.00    +0.000 HD
ENDBRANCH  23  26
ENDBRANCH   7  17
TORSDOF 4
ENDMDL
MODEL 5
REMARK VINA RESULT:      -7.3      1.492      1.721
REMARK  Name = 
REMARK  5 active torsions:
REMARK  status: ('A' for Active; 'I' for Inactive)
REMARK    1  A    between atoms: C_1  and  N_2
REMARK    2  A    between atoms: N_5  and  C_6
REMARK    3  A    between atoms: C_12  and  C_13
REMARK    4  A    between atoms: C_17  and  O_18
REMARK    5  A    between atoms: C_20  and  O_21
REMARK                            x       y       z     vdW  Elec       q    Type
REMARK                         _______ _______ _______ _____ _____    ______ ____
ROOT
ATOM      1  C   UNL     1       1.924   6.778  20.153  0.00  0.00    +0.000 A 
ATOM      2  C   UNL     1       1.424   5.857  21.092  0.00  0.00    +0.000 A 
ATOM      3  C   UNL     1       1.835   4.518  21.140  0.00  0.00    +0.000 A 
ATOM      4  C   UNL     1       2.802   4.146  20.218  0.00  0.00    +0.000 A 
ATOM      5  O   UNL     1       3.338   2.910  20.082  0.00  0.00    +0.000 OA
ATOM      6  N   UNL     1       4.292   2.926  19.085  0.00  0.00    +0.000 NA
ATOM      7  C   UNL     1       4.351   4.193  18.629  0.00  0.00    +0.000 A 
ATOM      8  C   UNL     1       3.368   4.999  19.289  0.00  0.00    +0.000 A 
ATOM      9  C   UNL     1       2.889   6.328  19.236  0.00  0.00    +0.000 A 
ENDROOT
BRANCH   1  14
ATOM     10  C   UNL     1      -1.090  11.462  19.929  0.00  0.00    +0.000 C 
ATOM     11  N   UNL     1       0.126  10.669  20.106  0.00  0.00    +0.000 NA
ATOM     12  C   UNL     1       0.442   9.928  18.860  0.00  0.00    +0.000 C 
ATOM     13  C   UNL     1       1.660   8.981  19.005  0.00  0.00    +0.000 C 
ATOM     14  N   UNL     1       1.411   8.063  20.126  0.00  0.00    +0.000 N 
ATOM     15  C   UNL     1       1.166   8.767  21.398  0.00  0.00    +0.000 C 
ATOM     16  C   UNL     1      -0.047   9.709  21.224  0.00  0.00    +0.000 C 
ENDBRANCH   1  14
BRANCH   7  17
ATOM     17  C   UNL     1       5.334   4.552  17.601  0.00  0.00    +0.000 A 
ATOM     18  C   UNL     1       6.064   5.748  17.744  0.00  0.00    +0.000 A 
ATOM     19  C   UNL     1       6.975   6.145  16.765  0.00  0.00    +0.000 A 
ATOM     20 CL   UNL     1       7.832   7.629  16.946  0.00  0.00    +0.000 Cl
ATOM     21  C   UNL     1       7.182   5.347  15.641  0.00  0.00    +0.000 A 
ATOM     22  C   UNL     1       6.479   4.162  15.477  0.00  0.00    +0.000 A 
ATOM     23  C   UNL     1       5.548   3.774  16.445  0.00  0.00    +0.000 A 
BRANCH  21  24
ATOM     24  O   UNL     1       8.060   5.691  14.650  0.00  0.00    +0.000 OA
ATOM     25  H   UNL     1       8.956   5.669  15.038  0.00  0.00    +0.000 HD
ENDBRANCH  21  24
BRANCH  23  26
ATOM     26  O   UNL     1       4.811   2.644  16.225  0.00  0.00    +0.000 OA
ATOM     27  H   UNL     1       5.406   1.880  16.130  0.00  0.00    +0.000 HD
ENDBRANCH  23  26
ENDBRANCH   7  17
TORSDOF 4
ENDMDL
MODEL 6
REMARK VINA RESULT:      -7.2      1.753      2.273
REMARK  Name = 
REMARK  5 active torsions:
REMARK  status: ('A' for Active; 'I' for Inactive)
REMARK    1  A    between atoms: C_1  and  N_2
REMARK    2  A    between atoms: N_5  and  C_6
REMARK    3  A    between atoms: C_12  and  C_13
REMARK    4  A    between atoms: C_17  and  O_18
REMARK    5  A    between atoms: C_20  and  O_21
REMARK                            x       y       z     vdW  Elec       q    Type
REMARK                         _______ _______ _______ _____ _____    ______ ____
ROOT
ATOM      1  C   UNL     1       1.780   7.669  19.905  0.00  0.00    +0.000 A 
ATOM      2  C   UNL     1       1.177   6.916  20.930  0.00  0.00    +0.000 A 
ATOM      3  C   UNL     1       1.469   5.565  21.157  0.00  0.00    +0.000 A 
ATOM      4  C   UNL     1       2.426   5.002  20.326  0.00  0.00    +0.000 A 
ATOM      5  O   UNL     1       2.857   3.718  20.363  0.00  0.00    +0.000 OA
ATOM      6  N   UNL     1       3.836   3.531  19.409  0.00  0.00    +0.000 NA
ATOM      7  C   UNL     1       4.017   4.722  18.804  0.00  0.00    +0.000 A 
ATOM      8  C   UNL     1       3.089   5.683  19.322  0.00  0.00    +0.000 A 
ATOM      9  C   UNL     1       2.728   7.029  19.088  0.00  0.00    +0.000 A 
ENDROOT
BRANCH   1  14
ATOM     10  C   UNL     1       1.173  13.183  19.364  0.00  0.00    +0.000 C 
ATOM     11  N   UNL     1       0.761  11.783  19.269  0.00  0.00    +0.000 NA
ATOM     12  C   UNL     1       0.739  11.161  20.615  0.00  0.00    +0.000 C 
ATOM     13  C   UNL     1       0.414   9.646  20.583  0.00  0.00    +0.000 C 
ATOM     14  N   UNL     1       1.381   8.977  19.700  0.00  0.00    +0.000 N 
ATOM     15  C   UNL     1       1.376   9.522  18.330  0.00  0.00    +0.000 C 
ATOM     16  C   UNL     1       1.694  11.034  18.391  0.00  0.00    +0.000 C 
ENDBRANCH   1  14
BRANCH   7  17
ATOM     17  C   UNL     1       5.055   4.867  17.778  0.00  0.00    +0.000 A 
ATOM     18  C   UNL     1       5.893   5.999  17.812  0.00  0.00    +0.000 A 
ATOM     19  C   UNL     1       6.863   6.193  16.829  0.00  0.00    +0.000 A 
ATOM     20 CL   UNL     1       7.854   7.603  16.872  0.00  0.00    +0.000 Cl
ATOM     21  C   UNL     1       7.020   5.256  15.809  0.00  0.00    +0.000 A 
ATOM     22  C   UNL     1       6.210   4.130  15.754  0.00  0.00    +0.000 A 
ATOM     23  C   UNL     1       5.223   3.945  16.726  0.00  0.00    +0.000 A 
BRANCH  21  24
ATOM     24  O   UNL     1       7.952   5.400  14.818  0.00  0.00    +0.000 OA
ATOM     25  H   UNL     1       7.655   4.861  14.061  0.00  0.00    +0.000 HD
ENDBRANCH  21  24
BRANCH  23  26
ATOM     26  O   UNL     1       4.386   2.870  16.608  0.00  0.00    +0.000 OA
ATOM     27  H   UNL     1       4.771   2.223  15.992  0.00  0.00    +0.000 HD
ENDBRANCH  23  26
ENDBRANCH   7  17
TORSDOF 4
ENDMDL
MODEL 7
REMARK VINA RESULT:      -6.7      1.891      2.699
REMARK  Name = 
REMARK  5 active torsions:
REMARK  status: ('A' for Active; 'I' for Inactive)
REMARK    1  A    between atoms: C_1  and  N_2
REMARK    2  A    between atoms: N_5  and  C_6
REMARK    3  A    between atoms: C_12  and  C_13
REMARK    4  A    between atoms: C_17  and  O_18
REMARK    5  A    between atoms: C_20  and  O_21
REMARK                            x       y       z     vdW  Elec       q    Type
REMARK                         _______ _______ _______ _____ _____    ______ ____
ROOT
ATOM      1  C   UNL     1       1.208   9.036  19.744  0.00  0.00    +0.000 A 
ATOM      2  C   UNL     1       0.526   8.495  20.850  0.00  0.00    +0.000 A 
ATOM      3  C   UNL     1       0.765   7.204  21.336  0.00  0.00    +0.000 A 
ATOM      4  C   UNL     1       1.751   6.480  20.680  0.00  0.00    +0.000 A 
ATOM      5  O   UNL     1       2.141   5.217  20.975  0.00  0.00    +0.000 OA
ATOM      6  N   UNL     1       3.166   4.841  20.133  0.00  0.00    +0.000 NA
ATOM      7  C   UNL     1       3.416   5.897  19.333  0.00  0.00    +0.000 A 
ATOM      8  C   UNL     1       2.489   6.954  19.611  0.00  0.00    +0.000 A 
ATOM      9  C   UNL     1       2.181   8.241  19.116  0.00  0.00    +0.000 A 
ENDROOT
BRANCH   1  14
ATOM     10  C   UNL     1       0.167  14.435  18.829  0.00  0.00    +0.000 C 
ATOM     11  N   UNL     1       0.253  13.018  18.478  0.00  0.00    +0.000 NA
ATOM     12  C   UNL     1      -0.659  12.220  19.333  0.00  0.00    +0.000 C 
ATOM     13  C   UNL     1      -0.542  10.693  19.091  0.00  0.00    +0.000 C 
ATOM     14  N   UNL     1       0.859  10.293  19.282  0.00  0.00    +0.000 N 
ATOM     15  C   UNL     1       1.786  11.015  18.392  0.00  0.00    +0.000 C 
ATOM     16  C   UNL     1       1.645  12.533  18.647  0.00  0.00    +0.000 C 
ENDBRANCH   1  14
BRANCH   7  17
ATOM     17  C   UNL     1       4.514   5.833  18.363  0.00  0.00    +0.000 A 
ATOM     18  C   UNL     1       4.310   6.345  17.067  0.00  0.00    +0.000 A 
ATOM     19  C   UNL     1       5.315   6.262  16.104  0.00  0.00    +0.000 A 
ATOM     20 CL   UNL     1       5.030   6.866  14.515  0.00  0.00    +0.000 Cl
ATOM     21  C   UNL     1       6.542   5.683  16.426  0.00  0.00    +0.000 A 
ATOM     22  C   UNL     1       6.771   5.174  17.696  0.00  0.00    +0.000 A 
ATOM     23  C   UNL     1       5.757   5.236  18.655  0.00  0.00    +0.000 A 
BRANCH  21  24
ATOM     24  O   UNL     1       7.560   5.573  15.518  0.00  0.00    +0.000 OA
ATOM     25  H   UNL     1       7.846   4.640  15.517  0.00  0.00    +0.000 HD
ENDBRANCH  21  24
BRANCH  23  26
ATOM     26  O   UNL     1       5.977   4.658  19.875  0.00  0.00    +0.000 OA
ATOM     27  H   UNL     1       5.147   4.283  20.213  0.00  0.00    +0.000 HD
ENDBRANCH  23  26
ENDBRANCH   7  17
TORSDOF 4
ENDMDL
MODEL 8
REMARK VINA RESULT:      -6.5      9.356     12.552
REMARK  Name = 
REMARK  5 active torsions:
REMARK  status: ('A' for Active; 'I' for Inactive)
REMARK    1  A    between atoms: C_1  and  N_2
REMARK    2  A    between atoms: N_5  and  C_6
REMARK    3  A    between atoms: C_12  and  C_13
REMARK    4  A    between atoms: C_17  and  O_18
REMARK    5  A    between atoms: C_20  and  O_21
REMARK                            x       y       z     vdW  Elec       q    Type
REMARK                         _______ _______ _______ _____ _____    ______ ____
ROOT
ATOM      1  C   UNL     1      -2.452  11.961  18.842  0.00  0.00    +0.000 A 
ATOM      2  C   UNL     1      -2.720  11.523  17.531  0.00  0.00    +0.000 A 
ATOM      3  C   UNL     1      -4.002  11.172  17.092  0.00  0.00    +0.000 A 
ATOM      4  C   UNL     1      -5.023  11.313  18.021  0.00  0.00    +0.000 A 
ATOM      5  O   UNL     1      -6.332  11.030  17.815  0.00  0.00    +0.000 OA
ATOM      6  N   UNL     1      -7.054  11.325  18.953  0.00  0.00    +0.000 NA
ATOM      7  C   UNL     1      -6.175  11.815  19.850  0.00  0.00    +0.000 A 
ATOM      8  C   UNL     1      -4.848  11.771  19.313  0.00  0.00    +0.000 A 
ATOM      9  C   UNL     1      -3.532  12.063  19.736  0.00  0.00    +0.000 A 
ENDROOT
BRANCH   1  14
ATOM     10  C   UNL     1       2.376  13.707  21.013  0.00  0.00    +0.000 C 
ATOM     11  N   UNL     1       1.517  12.858  20.188  0.00  0.00    +0.000 NA
ATOM     12  C   UNL     1       0.829  13.671  19.155  0.00  0.00    +0.000 C 
ATOM     13  C   UNL     1      -0.182  12.856  18.310  0.00  0.00    +0.000 C 
ATOM     14  N   UNL     1      -1.145  12.215  19.217  0.00  0.00    +0.000 N 
ATOM     15  C   UNL     1      -0.499  11.339  20.211  0.00  0.00    +0.000 C 
ATOM     16  C   UNL     1       0.509  12.173  21.034  0.00  0.00    +0.000 C 
ENDBRANCH   1  14
BRANCH   7  17
ATOM     17  C   UNL     1      -6.654  12.293  21.152  0.00  0.00    +0.000 A 
ATOM     18  C   UNL     1      -6.214  13.546  21.622  0.00  0.00    +0.000 A 
ATOM     19  C   UNL     1      -6.612  14.014  22.874  0.00  0.00    +0.000 A 
ATOM     20 CL   UNL     1      -6.035  15.535  23.442  0.00  0.00    +0.000 Cl
ATOM     21  C   UNL     1      -7.465  13.247  23.665  0.00  0.00    +0.000 A 
ATOM     22  C   UNL     1      -7.916  12.011  23.225  0.00  0.00    +0.000 A 
ATOM     23  C   UNL     1      -7.500  11.530  21.981  0.00  0.00    +0.000 A 
BRANCH  21  24
ATOM     24  O   UNL     1      -7.883  13.657  24.902  0.00  0.00    +0.000 OA
ATOM     25  H   UNL     1      -8.792  13.324  25.025  0.00  0.00    +0.000 HD
ENDBRANCH  21  24
BRANCH  23  26
ATOM     26  O   UNL     1      -7.894  10.276  21.601  0.00  0.00    +0.000 OA
ATOM     27  H   UNL     1      -7.940  10.229  20.631  0.00  0.00    +0.000 HD
ENDBRANCH  23  26
ENDBRANCH   7  17
TORSDOF 4
ENDMDL
MODEL 9
REMARK VINA RESULT:      -6.4      5.191      8.187
REMARK  Name = 
REMARK  5 active torsions:
REMARK  status: ('A' for Active; 'I' for Inactive)
REMARK    1  A    between atoms: C_1  and  N_2
REMARK    2  A    between atoms: N_5  and  C_6
REMARK    3  A    between atoms: C_12  and  C_13
REMARK    4  A    between atoms: C_17  and  O_18
REMARK    5  A    between atoms: C_20  and  O_21
REMARK                            x       y       z     vdW  Elec       q    Type
REMARK                         _______ _______ _______ _____ _____    ______ ____
ROOT
ATOM      1  C   UNL     1       2.341  14.197  18.951  0.00  0.00    +0.000 A 
ATOM      2  C   UNL     1       1.182  14.967  18.736  0.00  0.00    +0.000 A 
ATOM      3  C   UNL     1      -0.093  14.405  18.603  0.00  0.00    +0.000 A 
ATOM      4  C   UNL     1      -0.165  13.025  18.729  0.00  0.00    +0.000 A 
ATOM      5  O   UNL     1      -1.289  12.275  18.632  0.00  0.00    +0.000 OA
ATOM      6  N   UNL     1      -0.978  10.948  18.845  0.00  0.00    +0.000 NA
ATOM      7  C   UNL     1       0.344  10.897  19.098  0.00  0.00    +0.000 A 
ATOM      8  C   UNL     1       0.919  12.204  18.977  0.00  0.00    +0.000 A 
ATOM      9  C   UNL     1       2.196  12.803  19.050  0.00  0.00    +0.000 A 
ENDROOT
BRANCH   1  14
ATOM     10  C   UNL     1       7.683  15.744  19.319  0.00  0.00    +0.000 C 
ATOM     11  N   UNL     1       6.256  15.938  19.069  0.00  0.00    +0.000 NA
ATOM     12  C   UNL     1       5.475  15.661  20.300  0.00  0.00    +0.000 C 
ATOM     13  C   UNL     1       3.943  15.743  20.083  0.00  0.00    +0.000 C 
ATOM     14  N   UNL     1       3.573  14.825  18.996  0.00  0.00    +0.000 N 
ATOM     15  C   UNL     1       4.276  15.120  17.735  0.00  0.00    +0.000 C 
ATOM     16  C   UNL     1       5.800  15.041  17.980  0.00  0.00    +0.000 C 
ENDBRANCH   1  14
BRANCH   7  17
ATOM     17  C   UNL     1       0.972   9.616  19.439  0.00  0.00    +0.000 A 
ATOM     18  C   UNL     1       1.808   8.993  18.492  0.00  0.00    +0.000 A 
ATOM     19  C   UNL     1       2.388   7.753  18.763  0.00  0.00    +0.000 A 
ATOM     20 CL   UNL     1       3.380   6.995  17.575  0.00  0.00    +0.000 Cl
ATOM     21  C   UNL     1       2.154   7.128  19.986  0.00  0.00    +0.000 A 
ATOM     22  C   UNL     1       1.338   7.721  20.939  0.00  0.00    +0.000 A 
ATOM     23  C   UNL     1       0.738   8.952  20.660  0.00  0.00    +0.000 A 
BRANCH  21  24
ATOM     24  O   UNL     1       2.694   5.911  20.301  0.00  0.00    +0.000 OA
ATOM     25  H   UNL     1       2.531   5.759  21.252  0.00  0.00    +0.000 HD
ENDBRANCH  21  24
BRANCH  23  26
ATOM     26  O   UNL     1      -0.124   9.480  21.581  0.00  0.00    +0.000 OA
ATOM     27  H   UNL     1      -0.904   8.906  21.665  0.00  0.00    +0.000 HD
ENDBRANCH  23  26
ENDBRANCH   7  17
TORSDOF 4
ENDMDL
