MODEL 1
REMARK VINA RESULT:      -7.3      0.000      0.000
REMARK  Name = 
REMARK  5 active torsions:
REMARK  status: ('A' for Active; 'I' for Inactive)
REMARK    1  A    between atoms: C_1  and  O_2
REMARK    2  A    between atoms: O_2  and  C_3
REMARK    3  A    between atoms: C_7  and  C_8
REMARK    4  A    between atoms: C_8  and  N_9
REMARK    5  A    between atoms: C_15  and  C_17
REMARK                            x       y       z     vdW  Elec       q    Type
REMARK                         _______ _______ _______ _____ _____    ______ ____
ROOT
ATOM      1  N   UNL     1      -0.742  11.992  19.049  0.00  0.00    +0.000 N 
ATOM      2  C   UNL     1      -0.301  10.745  18.495  0.00  0.00    +0.000 C 
ATOM      3  C   UNL     1       1.187  10.682  18.868  0.00  0.00    +0.000 C 
ATOM      4  C   UNL     1       1.990   9.884  17.820  0.00  0.00    +0.000 C 
ATOM      5  C   UNL     1       1.584   8.406  17.843  0.00  0.00    +0.000 C 
ATOM      6  N   UNL     1       1.827   7.853  19.177  0.00  0.00    +0.000 N 
ATOM      7  C   UNL     1       2.506   6.672  19.492  0.00  0.00    +0.000 C 
ATOM      8  O   UNL     1       2.463   6.167  20.617  0.00  0.00    +0.000 OA
ATOM      9  C   UNL     1       1.097   8.523  20.251  0.00  0.00    +0.000 C 
ATOM     10  C   UNL     1       1.404  10.022  20.256  0.00  0.00    +0.000 C 
ATOM     11  C   UNL     1       1.591  12.175  18.915  0.00  0.00    +0.000 C 
ATOM     12  C   UNL     1       0.286  12.910  19.144  0.00  0.00    +0.000 C 
ATOM     13  O   UNL     1       0.183  14.101  19.385  0.00  0.00    +0.000 OA
ENDROOT
BRANCH   7  14
ATOM     14  C   UNL     1       3.303   5.945  18.468  0.00  0.00    +0.000 A 
ATOM     15  C   UNL     1       4.439   6.499  17.864  0.00  0.00    +0.000 A 
ATOM     16  C   UNL     1       5.104   5.802  16.854  0.00  0.00    +0.000 A 
ATOM     17  C   UNL     1       4.688   4.520  16.517  0.00  0.00    +0.000 A 
ATOM     18  F   UNL     1       5.329   3.854  15.550  0.00  0.00    +0.000 F 
ATOM     19  C   UNL     1       3.625   3.914  17.178  0.00  0.00    +0.000 A 
ATOM     20  C   UNL     1       2.928   4.630  18.153  0.00  0.00    +0.000 A 
ENDBRANCH   7  14
BRANCH   1  21
ATOM     21  C   UNL     1      -2.135  12.279  19.330  0.00  0.00    +0.000 C 
BRANCH  21  26
ATOM     22  C   UNL     1      -3.933  13.056  22.609  0.00  0.00    +0.000 A 
ATOM     23  C   UNL     1      -3.111  12.399  23.517  0.00  0.00    +0.000 A 
ATOM     24  C   UNL     1      -1.964  11.731  23.086  0.00  0.00    +0.000 A 
ATOM     25  C   UNL     1      -1.640  11.721  21.730  0.00  0.00    +0.000 A 
ATOM     26  C   UNL     1      -2.471  12.357  20.795  0.00  0.00    +0.000 A 
ATOM     27  C   UNL     1      -3.624  13.027  21.246  0.00  0.00    +0.000 A 
BRANCH  22  29
ATOM     28  C   UNL     1      -5.910  12.908  23.940  0.00  0.00    +0.000 C 
ATOM     29  O   UNL     1      -5.008  13.690  23.177  0.00  0.00    +0.000 OA
ENDBRANCH  22  29
ENDBRANCH  21  26
ENDBRANCH   1  21
TORSDOF 4
ENDMDL
MODEL 2
REMARK VINA RESULT:      -7.3      2.930      5.032
REMARK  Name = 
REMARK  5 active torsions:
REMARK  status: ('A' for Active; 'I' for Inactive)
REMARK    1  A    between atoms: C_1  and  O_2
REMARK    2  A    between atoms: O_2  and  C_3
REMARK    3  A    between atoms: C_7  and  C_8
REMARK    4  A    between atoms: C_8  and  N_9
REMARK    5  A    between atoms: C_15  and  C_17
REMARK                            x       y       z     vdW  Elec       q    Type
REMARK                         _______ _______ _______ _____ _____    ______ ____
ROOT
ATOM      1  N   UNL     1       0.555  12.676  20.403  0.00  0.00    +0.000 N 
ATOM      2  C   UNL     1       1.036  11.349  20.651  0.00  0.00    +0.000 C 
ATOM      3  C   UNL     1       0.278  10.486  19.632  0.00  0.00    +0.000 C 
ATOM      4  C   UNL     1       0.063   9.055  20.166  0.00  0.00    +0.000 C 
ATOM      5  C   UNL     1       1.402   8.319  20.285  0.00  0.00    +0.000 C 
ATOM      6  N   UNL     1       2.049   8.264  18.973  0.00  0.00    +0.000 N 
ATOM      7  C   UNL     1       2.590   7.139  18.343  0.00  0.00    +0.000 C 
ATOM      8  O   UNL     1       3.316   7.226  17.350  0.00  0.00    +0.000 OA
ATOM      9  C   UNL     1       2.321   9.571  18.379  0.00  0.00    +0.000 C 
ATOM     10  C   UNL     1       1.035  10.394  18.280  0.00  0.00    +0.000 C 
ATOM     11  C   UNL     1      -1.051  11.258  19.451  0.00  0.00    +0.000 C 
ATOM     12  C   UNL     1      -0.721  12.676  19.874  0.00  0.00    +0.000 C 
ATOM     13  O   UNL     1      -1.461  13.638  19.746  0.00  0.00    +0.000 OA
ENDROOT
BRANCH   7  14
ATOM     14  C   UNL     1       2.334   5.768  18.861  0.00  0.00    +0.000 A 
ATOM     15  C   UNL     1       1.660   4.794  18.113  0.00  0.00    +0.000 A 
ATOM     16  C   UNL     1       1.380   3.549  18.677  0.00  0.00    +0.000 A 
ATOM     17  C   UNL     1       1.853   3.251  19.949  0.00  0.00    +0.000 A 
ATOM     18  F   UNL     1       1.585   2.055  20.486  0.00  0.00    +0.000 F 
ATOM     19  C   UNL     1       2.612   4.169  20.665  0.00  0.00    +0.000 A 
ATOM     20  C   UNL     1       2.849   5.433  20.122  0.00  0.00    +0.000 A 
ENDBRANCH   7  14
BRANCH   1  21
ATOM     21  C   UNL     1       1.282  13.865  20.805  0.00  0.00    +0.000 C 
BRANCH  21  26
ATOM     22  C   UNL     1       2.325  16.568  18.317  0.00  0.00    +0.000 A 
ATOM     23  C   UNL     1       3.346  15.914  17.636  0.00  0.00    +0.000 A 
ATOM     24  C   UNL     1       3.682  14.597  17.952  0.00  0.00    +0.000 A 
ATOM     25  C   UNL     1       2.989  13.931  18.962  0.00  0.00    +0.000 A 
ATOM     26  C   UNL     1       1.974  14.583  19.677  0.00  0.00    +0.000 A 
ATOM     27  C   UNL     1       1.645  15.911  19.346  0.00  0.00    +0.000 A 
BRANCH  22  29
ATOM     28  C   UNL     1       0.840  18.116  17.266  0.00  0.00    +0.000 C 
ATOM     29  O   UNL     1       2.087  17.847  17.884  0.00  0.00    +0.000 OA
ENDBRANCH  22  29
ENDBRANCH  21  26
ENDBRANCH   1  21
TORSDOF 4
ENDMDL
MODEL 3
REMARK VINA RESULT:      -7.3      2.177      3.676
REMARK  Name = 
REMARK  5 active torsions:
REMARK  status: ('A' for Active; 'I' for Inactive)
REMARK    1  A    between atoms: C_1  and  O_2
REMARK    2  A    between atoms: O_2  and  C_3
REMARK    3  A    between atoms: C_7  and  C_8
REMARK    4  A    between atoms: C_8  and  N_9
REMARK    5  A    between atoms: C_15  and  C_17
REMARK                            x       y       z     vdW  Elec       q    Type
REMARK                         _______ _______ _______ _____ _____    ______ ____
ROOT
ATOM      1  N   UNL     1      -0.651  11.669  19.310  0.00  0.00    +0.000 N 
ATOM      2  C   UNL     1      -0.141  10.519  18.623  0.00  0.00    +0.000 C 
ATOM      3  C   UNL     1       1.342  10.481  19.022  0.00  0.00    +0.000 C 
ATOM      4  C   UNL     1       2.202   9.853  17.906  0.00  0.00    +0.000 C 
ATOM      5  C   UNL     1       1.869   8.365  17.743  0.00  0.00    +0.000 C 
ATOM      6  N   UNL     1       2.114   7.668  19.006  0.00  0.00    +0.000 N 
ATOM      7  C   UNL     1       2.844   6.491  19.195  0.00  0.00    +0.000 C 
ATOM      8  O   UNL     1       2.804   5.853  20.250  0.00  0.00    +0.000 OA
ATOM      9  C   UNL     1       1.332   8.170  20.135  0.00  0.00    +0.000 C 
ATOM     10  C   UNL     1       1.566   9.670  20.326  0.00  0.00    +0.000 C 
ATOM     11  C   UNL     1       1.672  11.974  19.256  0.00  0.00    +0.000 C 
ATOM     12  C   UNL     1       0.328  12.616  19.539  0.00  0.00    +0.000 C 
ATOM     13  O   UNL     1       0.163  13.763  19.917  0.00  0.00    +0.000 OA
ENDROOT
BRANCH   7  14
ATOM     14  C   UNL     1       3.694   5.929  18.112  0.00  0.00    +0.000 A 
ATOM     15  C   UNL     1       4.723   6.661  17.506  0.00  0.00    +0.000 A 
ATOM     16  C   UNL     1       5.440   6.111  16.442  0.00  0.00    +0.000 A 
ATOM     17  C   UNL     1       5.186   4.802  16.049  0.00  0.00    +0.000 A 
ATOM     18  F   UNL     1       5.876   4.278  15.029  0.00  0.00    +0.000 F 
ATOM     19  C   UNL     1       4.238   4.027  16.706  0.00  0.00    +0.000 A 
ATOM     20  C   UNL     1       3.487   4.592  17.737  0.00  0.00    +0.000 A 
ENDBRANCH   7  14
BRANCH   1  21
ATOM     21  C   UNL     1      -2.062  11.856  19.590  0.00  0.00    +0.000 C 
BRANCH  21  26
ATOM     22  C   UNL     1      -3.300  11.157  16.046  0.00  0.00    +0.000 A 
ATOM     23  C   UNL     1      -4.677  11.191  16.241  0.00  0.00    +0.000 A 
ATOM     24  C   UNL     1      -5.211  11.467  17.500  0.00  0.00    +0.000 A 
ATOM     25  C   UNL     1      -4.356  11.709  18.574  0.00  0.00    +0.000 A 
ATOM     26  C   UNL     1      -2.965  11.654  18.403  0.00  0.00    +0.000 A 
ATOM     27  C   UNL     1      -2.441  11.375  17.126  0.00  0.00    +0.000 A 
BRANCH  22  29
ATOM     28  C   UNL     1      -3.739  10.041  13.981  0.00  0.00    +0.000 C 
ATOM     29  O   UNL     1      -2.919  10.900  14.754  0.00  0.00    +0.000 OA
ENDBRANCH  22  29
ENDBRANCH  21  26
ENDBRANCH   1  21
TORSDOF 4
ENDMDL
MODEL 4
REMARK VINA RESULT:      -7.2      2.847      5.416
REMARK  Name = 
REMARK  5 active torsions:
REMARK  status: ('A' for Active; 'I' for Inactive)
REMARK    1  A    between atoms: C_1  and  O_2
REMARK    2  A    between atoms: O_2  and  C_3
REMARK    3  A    between atoms: C_7  and  C_8
REMARK    4  A    between atoms: C_8  and  N_9
REMARK    5  A    between atoms: C_15  and  C_17
REMARK                            x       y       z     vdW  Elec       q    Type
REMARK                         _______ _______ _______ _____ _____    ______ ____
ROOT
ATOM      1  N   UNL     1       0.481  12.809  20.607  0.00  0.00    +0.000 N 
ATOM      2  C   UNL     1       0.960  11.478  20.842  0.00  0.00    +0.000 C 
ATOM      3  C   UNL     1       0.180  10.623  19.832  0.00  0.00    +0.000 C 
ATOM      4  C   UNL     1      -0.034   9.191  20.364  0.00  0.00    +0.000 C 
ATOM      5  C   UNL     1       1.303   8.447  20.460  0.00  0.00    +0.000 C 
ATOM      6  N   UNL     1       1.928   8.394  19.137  0.00  0.00    +0.000 N 
ATOM      7  C   UNL     1       2.453   7.269  18.494  0.00  0.00    +0.000 C 
ATOM      8  O   UNL     1       3.164   7.355  17.490  0.00  0.00    +0.000 OA
ATOM      9  C   UNL     1       2.198   9.702  18.543  0.00  0.00    +0.000 C 
ATOM     10  C   UNL     1       0.915  10.532  18.468  0.00  0.00    +0.000 C 
ATOM     11  C   UNL     1      -1.147  11.403  19.676  0.00  0.00    +0.000 C 
ATOM     12  C   UNL     1      -0.803  12.817  20.098  0.00  0.00    +0.000 C 
ATOM     13  O   UNL     1      -1.539  13.783  19.985  0.00  0.00    +0.000 OA
ENDROOT
BRANCH   7  14
ATOM     14  C   UNL     1       2.198   5.898  19.011  0.00  0.00    +0.000 A 
ATOM     15  C   UNL     1       2.221   5.590  20.377  0.00  0.00    +0.000 A 
ATOM     16  C   UNL     1       2.051   4.272  20.801  0.00  0.00    +0.000 A 
ATOM     17  C   UNL     1       1.767   3.283  19.866  0.00  0.00    +0.000 A 
ATOM     18  F   UNL     1       1.602   2.020  20.276  0.00  0.00    +0.000 F 
ATOM     19  C   UNL     1       1.638   3.588  18.516  0.00  0.00    +0.000 A 
ATOM     20  C   UNL     1       1.859   4.897  18.086  0.00  0.00    +0.000 A 
ENDBRANCH   7  14
BRANCH   1  21
ATOM     21  C   UNL     1       1.221  13.992  21.001  0.00  0.00    +0.000 C 
BRANCH  21  26
ATOM     22  C   UNL     1       3.859  14.724  18.338  0.00  0.00    +0.000 A 
ATOM     23  C   UNL     1       3.316  15.857  17.740  0.00  0.00    +0.000 A 
ATOM     24  C   UNL     1       2.121  16.405  18.207  0.00  0.00    +0.000 A 
ATOM     25  C   UNL     1       1.463  15.811  19.283  0.00  0.00    +0.000 A 
ATOM     26  C   UNL     1       1.982  14.653  19.882  0.00  0.00    +0.000 A 
ATOM     27  C   UNL     1       3.189  14.112  19.400  0.00  0.00    +0.000 A 
BRANCH  22  29
ATOM     28  C   UNL     1       6.211  15.060  18.100  0.00  0.00    +0.000 C 
ATOM     29  O   UNL     1       5.048  14.313  17.792  0.00  0.00    +0.000 OA
ENDBRANCH  22  29
ENDBRANCH  21  26
ENDBRANCH   1  21
TORSDOF 4
ENDMDL
MODEL 5
REMARK VINA RESULT:      -7.1      1.116      1.763
REMARK  Name = 
REMARK  5 active torsions:
REMARK  status: ('A' for Active; 'I' for Inactive)
REMARK    1  A    between atoms: C_1  and  O_2
REMARK    2  A    between atoms: O_2  and  C_3
REMARK    3  A    between atoms: C_7  and  C_8
REMARK    4  A    between atoms: C_8  and  N_9
REMARK    5  A    between atoms: C_15  and  C_17
REMARK                            x       y       z     vdW  Elec       q    Type
REMARK                         _______ _______ _______ _____ _____    ______ ____
ROOT
ATOM      1  N   UNL     1      -0.371  12.037  18.630  0.00  0.00    +0.000 N 
ATOM      2  C   UNL     1       0.009  10.732  18.174  0.00  0.00    +0.000 C 
ATOM      3  C   UNL     1       1.477  10.604  18.608  0.00  0.00    +0.000 C 
ATOM      4  C   UNL     1       2.264   9.692  17.644  0.00  0.00    +0.000 C 
ATOM      5  C   UNL     1       1.766   8.246  17.744  0.00  0.00    +0.000 C 
ATOM      6  N   UNL     1       1.927   7.767  19.119  0.00  0.00    +0.000 N 
ATOM      7  C   UNL     1       2.519   6.571  19.534  0.00  0.00    +0.000 C 
ATOM      8  O   UNL     1       2.405   6.144  20.685  0.00  0.00    +0.000 OA
ATOM      9  C   UNL     1       1.203   8.549  20.119  0.00  0.00    +0.000 C 
ATOM     10  C   UNL     1       1.604  10.024  20.042  0.00  0.00    +0.000 C 
ATOM     11  C   UNL     1       1.972  12.069  18.576  0.00  0.00    +0.000 C 
ATOM     12  C   UNL     1       0.708  12.895  18.707  0.00  0.00    +0.000 C 
ATOM     13  O   UNL     1       0.672  14.104  18.868  0.00  0.00    +0.000 OA
ENDROOT
BRANCH   7  14
ATOM     14  C   UNL     1       3.304   5.732  18.590  0.00  0.00    +0.000 A 
ATOM     15  C   UNL     1       4.641   6.003  18.272  0.00  0.00    +0.000 A 
ATOM     16  C   UNL     1       5.305   5.227  17.322  0.00  0.00    +0.000 A 
ATOM     17  C   UNL     1       4.663   4.130  16.761  0.00  0.00    +0.000 A 
ATOM     18  F   UNL     1       5.304   3.387  15.851  0.00  0.00    +0.000 F 
ATOM     19  C   UNL     1       3.371   3.785  17.141  0.00  0.00    +0.000 A 
ATOM     20  C   UNL     1       2.687   4.590  18.054  0.00  0.00    +0.000 A 
ENDBRANCH   7  14
BRANCH   1  21
ATOM     21  C   UNL     1      -1.753  12.426  18.839  0.00  0.00    +0.000 C 
BRANCH  21  26
ATOM     22  C   UNL     1      -1.892  11.683  22.582  0.00  0.00    +0.000 A 
ATOM     23  C   UNL     1      -3.006  12.429  22.953  0.00  0.00    +0.000 A 
ATOM     24  C   UNL     1      -3.732  13.146  22.001  0.00  0.00    +0.000 A 
ATOM     25  C   UNL     1      -3.335  13.117  20.665  0.00  0.00    +0.000 A 
ATOM     26  C   UNL     1      -2.199  12.392  20.276  0.00  0.00    +0.000 A 
ATOM     27  C   UNL     1      -1.478  11.672  21.248  0.00  0.00    +0.000 A 
BRANCH  22  29
ATOM     28  C   UNL     1      -0.456   9.914  23.296  0.00  0.00    +0.000 C 
ATOM     29  O   UNL     1      -1.294  11.011  23.617  0.00  0.00    +0.000 OA
ENDBRANCH  22  29
ENDBRANCH  21  26
ENDBRANCH   1  21
TORSDOF 4
ENDMDL
MODEL 6
REMARK VINA RESULT:      -6.9      2.795      5.277
REMARK  Name = 
REMARK  5 active torsions:
REMARK  status: ('A' for Active; 'I' for Inactive)
REMARK    1  A    between atoms: C_1  and  O_2
REMARK    2  A    between atoms: O_2  and  C_3
REMARK    3  A    between atoms: C_7  and  C_8
REMARK    4  A    between atoms: C_8  and  N_9
REMARK    5  A    between atoms: C_15  and  C_17
REMARK                            x       y       z     vdW  Elec       q    Type
REMARK                         _______ _______ _______ _____ _____    ______ ____
ROOT
ATOM      1  N   UNL     1       0.427  12.634  20.618  0.00  0.00    +0.000 N 
ATOM      2  C   UNL     1       0.974  11.321  20.800  0.00  0.00    +0.000 C 
ATOM      3  C   UNL     1       0.201  10.459  19.791  0.00  0.00    +0.000 C 
ATOM      4  C   UNL     1       0.071   9.004  20.287  0.00  0.00    +0.000 C 
ATOM      5  C   UNL     1       1.442   8.321  20.319  0.00  0.00    +0.000 C 
ATOM      6  N   UNL     1       2.026   8.334  18.977  0.00  0.00    +0.000 N 
ATOM      7  C   UNL     1       2.580   7.252  18.286  0.00  0.00    +0.000 C 
ATOM      8  O   UNL     1       3.253   7.399  17.262  0.00  0.00    +0.000 OA
ATOM      9  C   UNL     1       2.216   9.669  18.413  0.00  0.00    +0.000 C 
ATOM     10  C   UNL     1       0.895  10.440  18.402  0.00  0.00    +0.000 C 
ATOM     11  C   UNL     1      -1.164  11.180  19.699  0.00  0.00    +0.000 C 
ATOM     12  C   UNL     1      -0.872  12.597  20.151  0.00  0.00    +0.000 C 
ATOM     13  O   UNL     1      -1.655  13.530  20.089  0.00  0.00    +0.000 OA
ENDROOT
BRANCH   7  14
ATOM     14  C   UNL     1       2.405   5.857  18.770  0.00  0.00    +0.000 A 
ATOM     15  C   UNL     1       2.782   5.453  20.057  0.00  0.00    +0.000 A 
ATOM     16  C   UNL     1       2.665   4.114  20.432  0.00  0.00    +0.000 A 
ATOM     17  C   UNL     1       2.089   3.204  19.554  0.00  0.00    +0.000 A 
ATOM     18  F   UNL     1       1.977   1.921  19.917  0.00  0.00    +0.000 F 
ATOM     19  C   UNL     1       1.617   3.608  18.310  0.00  0.00    +0.000 A 
ATOM     20  C   UNL     1       1.779   4.936  17.915  0.00  0.00    +0.000 A 
ENDBRANCH   7  14
BRANCH   1  21
ATOM     21  C   UNL     1       1.125  13.840  21.024  0.00  0.00    +0.000 C 
BRANCH  21  26
ATOM     22  C   UNL     1       4.541  14.860  19.655  0.00  0.00    +0.000 A 
ATOM     23  C   UNL     1       4.253  14.975  18.300  0.00  0.00    +0.000 A 
ATOM     24  C   UNL     1       2.960  14.755  17.825  0.00  0.00    +0.000 A 
ATOM     25  C   UNL     1       1.945  14.415  18.719  0.00  0.00    +0.000 A 
ATOM     26  C   UNL     1       2.222  14.269  20.087  0.00  0.00    +0.000 A 
ATOM     27  C   UNL     1       3.532  14.496  20.550  0.00  0.00    +0.000 A 
BRANCH  22  29
ATOM     28  C   UNL     1       6.145  15.420  21.334  0.00  0.00    +0.000 C 
ATOM     29  O   UNL     1       5.846  15.130  19.980  0.00  0.00    +0.000 OA
ENDBRANCH  22  29
ENDBRANCH  21  26
ENDBRANCH   1  21
TORSDOF 4
ENDMDL
MODEL 7
REMARK VINA RESULT:      -6.9      2.595      3.412
REMARK  Name = 
REMARK  5 active torsions:
REMARK  status: ('A' for Active; 'I' for Inactive)
REMARK    1  A    between atoms: C_1  and  O_2
REMARK    2  A    between atoms: O_2  and  C_3
REMARK    3  A    between atoms: C_7  and  C_8
REMARK    4  A    between atoms: C_8  and  N_9
REMARK    5  A    between atoms: C_15  and  C_17
REMARK                            x       y       z     vdW  Elec       q    Type
REMARK                         _______ _______ _______ _____ _____    ______ ____
ROOT
ATOM      1  N   UNL     1      -0.640  10.547  18.997  0.00  0.00    +0.000 N 
ATOM      2  C   UNL     1       0.086   9.520  18.308  0.00  0.00    +0.000 C 
ATOM      3  C   UNL     1       1.532   9.705  18.792  0.00  0.00    +0.000 C 
ATOM      4  C   UNL     1       2.540   9.265  17.711  0.00  0.00    +0.000 C 
ATOM      5  C   UNL     1       2.461   7.751  17.487  0.00  0.00    +0.000 C 
ATOM      6  N   UNL     1       2.748   7.055  18.742  0.00  0.00    +0.000 N 
ATOM      7  C   UNL     1       3.648   6.003  18.940  0.00  0.00    +0.000 C 
ATOM      8  O   UNL     1       3.657   5.328  19.972  0.00  0.00    +0.000 OA
ATOM      9  C   UNL     1       1.836   7.382  19.837  0.00  0.00    +0.000 C 
ATOM     10  C   UNL     1       1.814   8.892  20.083  0.00  0.00    +0.000 C 
ATOM     11  C   UNL     1       1.602  11.222  19.087  0.00  0.00    +0.000 C 
ATOM     12  C   UNL     1       0.159  11.629  19.309  0.00  0.00    +0.000 C 
ATOM     13  O   UNL     1      -0.210  12.721  19.710  0.00  0.00    +0.000 OA
ENDROOT
BRANCH   7  14
ATOM     14  C   UNL     1       4.634   5.626  17.892  0.00  0.00    +0.000 A 
ATOM     15  C   UNL     1       5.883   6.250  17.774  0.00  0.00    +0.000 A 
ATOM     16  C   UNL     1       6.739   5.909  16.725  0.00  0.00    +0.000 A 
ATOM     17  C   UNL     1       6.383   4.884  15.856  0.00  0.00    +0.000 A 
ATOM     18  F   UNL     1       7.206   4.559  14.853  0.00  0.00    +0.000 F 
ATOM     19  C   UNL     1       5.193   4.185  16.021  0.00  0.00    +0.000 A 
ATOM     20  C   UNL     1       4.314   4.559  17.038  0.00  0.00    +0.000 A 
ENDBRANCH   7  14
BRANCH   1  21
ATOM     21  C   UNL     1      -2.076  10.495  19.199  0.00  0.00    +0.000 C 
BRANCH  21  26
ATOM     22  C   UNL     1      -4.839  11.747  16.879  0.00  0.00    +0.000 A 
ATOM     23  C   UNL     1      -4.326  11.376  15.641  0.00  0.00    +0.000 A 
ATOM     24  C   UNL     1      -3.109  10.699  15.549  0.00  0.00    +0.000 A 
ATOM     25  C   UNL     1      -2.400  10.392  16.709  0.00  0.00    +0.000 A 
ATOM     26  C   UNL     1      -2.889  10.781  17.965  0.00  0.00    +0.000 A 
ATOM     27  C   UNL     1      -4.118  11.463  18.042  0.00  0.00    +0.000 A 
BRANCH  22  29
ATOM     28  C   UNL     1      -6.908  12.283  17.945  0.00  0.00    +0.000 C 
ATOM     29  O   UNL     1      -6.053  12.382  16.820  0.00  0.00    +0.000 OA
ENDBRANCH  22  29
ENDBRANCH  21  26
ENDBRANCH   1  21
TORSDOF 4
ENDMDL
MODEL 8
REMARK VINA RESULT:      -6.9      3.536      4.952
REMARK  Name = 
REMARK  5 active torsions:
REMARK  status: ('A' for Active; 'I' for Inactive)
REMARK    1  A    between atoms: C_1  and  O_2
REMARK    2  A    between atoms: O_2  and  C_3
REMARK    3  A    between atoms: C_7  and  C_8
REMARK    4  A    between atoms: C_8  and  N_9
REMARK    5  A    between atoms: C_15  and  C_17
REMARK                            x       y       z     vdW  Elec       q    Type
REMARK                         _______ _______ _______ _____ _____    ______ ____
ROOT
ATOM      1  N   UNL     1       1.380  12.286  18.949  0.00  0.00    +0.000 N 
ATOM      2  C   UNL     1       1.758  11.047  19.564  0.00  0.00    +0.000 C 
ATOM      3  C   UNL     1       0.749  10.035  19.001  0.00  0.00    +0.000 C 
ATOM      4  C   UNL     1       0.483   8.897  20.009  0.00  0.00    +0.000 C 
ATOM      5  C   UNL     1       1.739   8.038  20.195  0.00  0.00    +0.000 C 
ATOM      6  N   UNL     1       2.140   7.472  18.905  0.00  0.00    +0.000 N 
ATOM      7  C   UNL     1       2.445   6.137  18.626  0.00  0.00    +0.000 C 
ATOM      8  O   UNL     1       2.993   5.792  17.576  0.00  0.00    +0.000 OA
ATOM      9  C   UNL     1       2.439   8.467  17.876  0.00  0.00    +0.000 C 
ATOM     10  C   UNL     1       1.247   9.405  17.673  0.00  0.00    +0.000 C 
ATOM     11  C   UNL     1      -0.503  10.906  18.745  0.00  0.00    +0.000 C 
ATOM     12  C   UNL     1       0.039  12.316  18.620  0.00  0.00    +0.000 C 
ATOM     13  O   UNL     1      -0.608  13.290  18.273  0.00  0.00    +0.000 OA
ENDROOT
BRANCH   7  14
ATOM     14  C   UNL     1       2.141   5.057  19.602  0.00  0.00    +0.000 A 
ATOM     15  C   UNL     1       2.673   5.041  20.898  0.00  0.00    +0.000 A 
ATOM     16  C   UNL     1       2.416   3.964  21.747  0.00  0.00    +0.000 A 
ATOM     17  C   UNL     1       1.557   2.954  21.331  0.00  0.00    +0.000 A 
ATOM     18  F   UNL     1       1.312   1.922  22.148  0.00  0.00    +0.000 F 
ATOM     19  C   UNL     1       0.940   3.004  20.086  0.00  0.00    +0.000 A 
ATOM     20  C   UNL     1       1.235   4.056  19.217  0.00  0.00    +0.000 A 
ENDBRANCH   7  14
BRANCH   1  21
ATOM     21  C   UNL     1       2.285  13.413  18.830  0.00  0.00    +0.000 C 
BRANCH  21  26
ATOM     22  C   UNL     1       3.400  14.854  22.187  0.00  0.00    +0.000 A 
ATOM     23  C   UNL     1       2.558  15.957  22.287  0.00  0.00    +0.000 A 
ATOM     24  C   UNL     1       1.612  16.224  21.296  0.00  0.00    +0.000 A 
ATOM     25  C   UNL     1       1.511  15.378  20.193  0.00  0.00    +0.000 A 
ATOM     26  C   UNL     1       2.369  14.276  20.061  0.00  0.00    +0.000 A 
ATOM     27  C   UNL     1       3.317  14.019  21.069  0.00  0.00    +0.000 A 
BRANCH  22  29
ATOM     28  C   UNL     1       5.407  13.895  23.053  0.00  0.00    +0.000 C 
ATOM     29  O   UNL     1       4.259  14.702  23.244  0.00  0.00    +0.000 OA
ENDBRANCH  22  29
ENDBRANCH  21  26
ENDBRANCH   1  21
TORSDOF 4
ENDMDL
MODEL 9
REMARK VINA RESULT:      -6.9      2.036      3.010
REMARK  Name = 
REMARK  5 active torsions:
REMARK  status: ('A' for Active; 'I' for Inactive)
REMARK    1  A    between atoms: C_1  and  O_2
REMARK    2  A    between atoms: O_2  and  C_3
REMARK    3  A    between atoms: C_7  and  C_8
REMARK    4  A    between atoms: C_8  and  N_9
REMARK    5  A    between atoms: C_15  and  C_17
REMARK                            x       y       z     vdW  Elec       q    Type
REMARK                         _______ _______ _______ _____ _____    ______ ____
ROOT
ATOM      1  N   UNL     1      -0.742  11.815  19.419  0.00  0.00    +0.000 N 
ATOM      2  C   UNL     1      -0.267  10.652  18.728  0.00  0.00    +0.000 C 
ATOM      3  C   UNL     1       1.234  10.617  19.056  0.00  0.00    +0.000 C 
ATOM      4  C   UNL     1       2.038   9.968  17.911  0.00  0.00    +0.000 C 
ATOM      5  C   UNL     1       1.695   8.479  17.790  0.00  0.00    +0.000 C 
ATOM      6  N   UNL     1       2.000   7.803  19.052  0.00  0.00    +0.000 N 
ATOM      7  C   UNL     1       2.736   6.628  19.226  0.00  0.00    +0.000 C 
ATOM      8  O   UNL     1       2.747   6.008  20.293  0.00  0.00    +0.000 OA
ATOM      9  C   UNL     1       1.274   8.326  20.208  0.00  0.00    +0.000 C 
ATOM     10  C   UNL     1       1.519   9.829  20.362  0.00  0.00    +0.000 C 
ATOM     11  C   UNL     1       1.576  12.114  19.247  0.00  0.00    +0.000 C 
ATOM     12  C   UNL     1       0.248  12.763  19.584  0.00  0.00    +0.000 C 
ATOM     13  O   UNL     1       0.103  13.918  19.950  0.00  0.00    +0.000 OA
ENDROOT
BRANCH   7  14
ATOM     14  C   UNL     1       3.533   6.046  18.113  0.00  0.00    +0.000 A 
ATOM     15  C   UNL     1       3.394   4.713  17.703  0.00  0.00    +0.000 A 
ATOM     16  C   UNL     1       4.221   4.199  16.704  0.00  0.00    +0.000 A 
ATOM     17  C   UNL     1       5.118   5.040  16.056  0.00  0.00    +0.000 A 
ATOM     18  F   UNL     1       5.908   4.544  15.097  0.00  0.00    +0.000 F 
ATOM     19  C   UNL     1       5.197   6.389  16.380  0.00  0.00    +0.000 A 
ATOM     20  C   UNL     1       4.406   6.893  17.414  0.00  0.00    +0.000 A 
ENDBRANCH   7  14
BRANCH   1  21
ATOM     21  C   UNL     1      -2.137  12.009  19.763  0.00  0.00    +0.000 C 
BRANCH  21  26
ATOM     22  C   UNL     1      -5.368  11.541  17.782  0.00  0.00    +0.000 A 
ATOM     23  C   UNL     1      -4.859  11.272  16.516  0.00  0.00    +0.000 A 
ATOM     24  C   UNL     1      -3.481  11.210  16.301  0.00  0.00    +0.000 A 
ATOM     25  C   UNL     1      -2.606  11.423  17.365  0.00  0.00    +0.000 A 
ATOM     26  C   UNL     1      -3.101  11.721  18.644  0.00  0.00    +0.000 A 
ATOM     27  C   UNL     1      -4.493  11.779  18.845  0.00  0.00    +0.000 A 
BRANCH  22  29
ATOM     28  C   UNL     1      -7.380  12.761  18.190  0.00  0.00    +0.000 C 
ATOM     29  O   UNL     1      -6.738  11.545  17.850  0.00  0.00    +0.000 OA
ENDBRANCH  22  29
ENDBRANCH  21  26
ENDBRANCH   1  21
TORSDOF 4
ENDMDL
