MODEL 1
REMARK VINA RESULT:      -7.8      0.000      0.000
REMARK  Name = 
REMARK  12 active torsions:
REMARK  status: ('A' for Active; 'I' for Inactive)
REMARK    1  A    between atoms: C_1  and  C_2
REMARK    2  A    between atoms: C_2  and  C_3
REMARK    3  A    between atoms: C_3  and  N_4
REMARK    4  A    between atoms: N_4  and  N_5
REMARK    5  A    between atoms: C_6  and  C_8
REMARK    6  A    between atoms: C_9  and  C_10
REMARK    7  A    between atoms: C_13  and  C_14
REMARK    8  A    between atoms: C_14  and  N_15
REMARK    9  A    between atoms: N_15  and  C_16
REMARK   10  A    between atoms: C_16  and  C_17
REMARK   11  A    between atoms: C_17  and  C_18
REMARK   12  A    between atoms: C_19  and  C_20
REMARK                            x       y       z     vdW  Elec       q    Type
REMARK                         _______ _______ _______ _____ _____    ______ ____
ROOT
ATOM      1  C   UNL     1       3.492   6.919  17.909  0.00  0.00    +0.000 A 
ATOM      2  C   UNL     1       2.787   8.124  17.837  0.00  0.00    +0.000 A 
ATOM      3  C   UNL     1       1.923   8.529  18.871  0.00  0.00    +0.000 A 
ATOM      4  C   UNL     1       1.722   7.729  20.000  0.00  0.00    +0.000 A 
ATOM      5  C   UNL     1       2.414   6.511  20.081  0.00  0.00    +0.000 A 
ATOM      6  C   UNL     1       3.275   6.116  19.039  0.00  0.00    +0.000 A 
ENDROOT
BRANCH   1   8
ATOM      7  C   UNL     1       5.552   5.822  17.059  0.00  0.00    +0.000 C 
ATOM      8  C   UNL     1       4.369   6.421  16.839  0.00  0.00    +0.000 C 
BRANCH   7  10
ATOM      9  N   UNL     1       5.735   4.243  15.271  0.00  0.00    +0.000 N 
ATOM     10  C   UNL     1       6.359   5.305  15.915  0.00  0.00    +0.000 C 
ATOM     11  O   UNL     1       7.445   5.766  15.595  0.00  0.00    +0.000 OA
ATOM     12  H   UNL     1       4.880   3.840  15.641  0.00  0.00    +0.000 HD
BRANCH   9  13
ATOM     13  N   UNL     1       6.392   3.560  14.219  0.00  0.00    +0.000 NA
ATOM     14  H   UNL     1       7.343   3.947  14.146  0.00  0.00    +0.000 HD
BRANCH  13  15
ATOM     15  C   UNL     1       5.687   3.767  12.948  0.00  0.00    +0.000 C 
BRANCH  15  17
ATOM     16  C   UNL     1       5.923   1.743  11.457  0.00  0.00    +0.000 C 
ATOM     17  C   UNL     1       6.461   3.128  11.792  0.00  0.00    +0.000 C 
ENDBRANCH  15  17
ENDBRANCH  13  15
ENDBRANCH   9  13
ENDBRANCH   7  10
ENDBRANCH   1   8
BRANCH   4  18
ATOM     18  C   UNL     1       0.814   8.173  21.131  0.00  0.00    +0.000 C 
BRANCH  18  19
ATOM     19  N   UNL     1       1.219   9.395  21.846  0.00  0.00    +0.000 NA
ATOM     20  H   UNL     1       1.978   9.858  21.362  0.00  0.00    +0.000 HD
BRANCH  19  21
ATOM     21  C   UNL     1       0.115  10.339  22.010  0.00  0.00    +0.000 C 
BRANCH  21  22
ATOM     22  C   UNL     1       0.115  11.480  21.003  0.00  0.00    +0.000 C 
BRANCH  22  23
ATOM     23  C   UNL     1      -0.942  11.694  19.955  0.00  0.00    +0.000 A 
ATOM     24  C   UNL     1      -1.242  12.996  19.544  0.00  0.00    +0.000 A 
ATOM     25  C   UNL     1      -0.413  13.700  18.488  0.00  0.00    +0.000 C 
ATOM     26  N   UNL     1      -2.616  12.889  19.419  0.00  0.00    +0.000 N 
ATOM     27  C   UNL     1      -2.753  11.786  18.598  0.00  0.00    +0.000 A 
ATOM     28  C   UNL     1      -3.715  11.520  17.626  0.00  0.00    +0.000 A 
ATOM     29  C   UNL     1      -3.360  10.557  16.689  0.00  0.00    +0.000 A 
ATOM     30  C   UNL     1      -2.182   9.817  16.835  0.00  0.00    +0.000 A 
ATOM     31  C   UNL     1      -1.340   9.960  17.963  0.00  0.00    +0.000 A 
ATOM     32  C   UNL     1      -1.598  11.016  18.857  0.00  0.00    +0.000 A 
ATOM     33  H   UNL     1      -3.277  13.077  20.161  0.00  0.00    +0.000 HD
ENDBRANCH  22  23
ENDBRANCH  21  22
ENDBRANCH  19  21
ENDBRANCH  18  19
ENDBRANCH   4  18
TORSDOF 10
ENDMDL
MODEL 2
REMARK VINA RESULT:      -7.7      1.941      3.334
REMARK  Name = 
REMARK  12 active torsions:
REMARK  status: ('A' for Active; 'I' for Inactive)
REMARK    1  A    between atoms: C_1  and  C_2
REMARK    2  A    between atoms: C_2  and  C_3
REMARK    3  A    between atoms: C_3  and  N_4
REMARK    4  A    between atoms: N_4  and  N_5
REMARK    5  A    between atoms: C_6  and  C_8
REMARK    6  A    between atoms: C_9  and  C_10
REMARK    7  A    between atoms: C_13  and  C_14
REMARK    8  A    between atoms: C_14  and  N_15
REMARK    9  A    between atoms: N_15  and  C_16
REMARK   10  A    between atoms: C_16  and  C_17
REMARK   11  A    between atoms: C_17  and  C_18
REMARK   12  A    between atoms: C_19  and  C_20
REMARK                            x       y       z     vdW  Elec       q    Type
REMARK                         _______ _______ _______ _____ _____    ______ ____
ROOT
ATOM      1  C   UNL     1       4.025   5.024  17.258  0.00  0.00    +0.000 A 
ATOM      2  C   UNL     1       2.797   4.425  17.554  0.00  0.00    +0.000 A 
ATOM      3  C   UNL     1       2.036   4.829  18.665  0.00  0.00    +0.000 A 
ATOM      4  C   UNL     1       2.491   5.830  19.529  0.00  0.00    +0.000 A 
ATOM      5  C   UNL     1       3.727   6.432  19.251  0.00  0.00    +0.000 A 
ATOM      6  C   UNL     1       4.481   6.019  18.136  0.00  0.00    +0.000 A 
ENDROOT
BRANCH   1   8
ATOM      7  C   UNL     1       5.750   5.431  15.517  0.00  0.00    +0.000 C 
ATOM      8  C   UNL     1       4.887   4.611  16.140  0.00  0.00    +0.000 C 
BRANCH   7  10
ATOM      9  N   UNL     1       5.963   3.987  13.623  0.00  0.00    +0.000 N 
ATOM     10  C   UNL     1       6.620   4.917  14.420  0.00  0.00    +0.000 C 
ATOM     11  O   UNL     1       7.778   5.274  14.255  0.00  0.00    +0.000 OA
ATOM     12  H   UNL     1       5.035   3.656  13.865  0.00  0.00    +0.000 HD
BRANCH   9  13
ATOM     13  N   UNL     1       6.658   3.318  12.586  0.00  0.00    +0.000 NA
ATOM     14  H   UNL     1       7.120   4.036  12.010  0.00  0.00    +0.000 HD
BRANCH  13  15
ATOM     15  C   UNL     1       5.727   2.552  11.748  0.00  0.00    +0.000 C 
BRANCH  15  17
ATOM     16  C   UNL     1       3.904   3.741  10.470  0.00  0.00    +0.000 C 
ATOM     17  C   UNL     1       4.322   3.156  11.813  0.00  0.00    +0.000 C 
ENDBRANCH  15  17
ENDBRANCH  13  15
ENDBRANCH   9  13
ENDBRANCH   7  10
ENDBRANCH   1   8
BRANCH   4  18
ATOM     18  C   UNL     1       1.661   6.290  20.713  0.00  0.00    +0.000 C 
BRANCH  18  19
ATOM     19  N   UNL     1       1.737   7.723  21.041  0.00  0.00    +0.000 NA
ATOM     20  H   UNL     1       1.941   8.270  20.213  0.00  0.00    +0.000 HD
BRANCH  19  21
ATOM     21  C   UNL     1       0.506   8.224  21.648  0.00  0.00    +0.000 C 
BRANCH  21  22
ATOM     22  C   UNL     1      -0.212   9.283  20.823  0.00  0.00    +0.000 C 
BRANCH  22  23
ATOM     23  C   UNL     1       0.463  10.211  19.853  0.00  0.00    +0.000 A 
ATOM     24  C   UNL     1       0.116  10.155  18.499  0.00  0.00    +0.000 A 
ATOM     25  C   UNL     1      -1.097  10.890  17.966  0.00  0.00    +0.000 C 
ATOM     26  N   UNL     1       1.365  10.333  17.931  0.00  0.00    +0.000 N 
ATOM     27  C   UNL     1       1.810  11.486  18.552  0.00  0.00    +0.000 A 
ATOM     28  C   UNL     1       2.614  12.506  18.049  0.00  0.00    +0.000 A 
ATOM     29  C   UNL     1       2.541  13.711  18.739  0.00  0.00    +0.000 A 
ATOM     30  C   UNL     1       1.825  13.808  19.936  0.00  0.00    +0.000 A 
ATOM     31  C   UNL     1       1.206  12.685  20.534  0.00  0.00    +0.000 A 
ATOM     32  C   UNL     1       1.146  11.487  19.797  0.00  0.00    +0.000 A 
ATOM     33  H   UNL     1       2.002   9.584  17.697  0.00  0.00    +0.000 HD
ENDBRANCH  22  23
ENDBRANCH  21  22
ENDBRANCH  19  21
ENDBRANCH  18  19
ENDBRANCH   4  18
TORSDOF 10
ENDMDL
MODEL 3
REMARK VINA RESULT:      -7.6      1.594      2.887
REMARK  Name = 
REMARK  12 active torsions:
REMARK  status: ('A' for Active; 'I' for Inactive)
REMARK    1  A    between atoms: C_1  and  C_2
REMARK    2  A    between atoms: C_2  and  C_3
REMARK    3  A    between atoms: C_3  and  N_4
REMARK    4  A    between atoms: N_4  and  N_5
REMARK    5  A    between atoms: C_6  and  C_8
REMARK    6  A    between atoms: C_9  and  C_10
REMARK    7  A    between atoms: C_13  and  C_14
REMARK    8  A    between atoms: C_14  and  N_15
REMARK    9  A    between atoms: N_15  and  C_16
REMARK   10  A    between atoms: C_16  and  C_17
REMARK   11  A    between atoms: C_17  and  C_18
REMARK   12  A    between atoms: C_19  and  C_20
REMARK                            x       y       z     vdW  Elec       q    Type
REMARK                         _______ _______ _______ _____ _____    ______ ____
ROOT
ATOM      1  C   UNL     1       3.841   4.895  17.259  0.00  0.00    +0.000 A 
ATOM      2  C   UNL     1       2.639   4.258  17.578  0.00  0.00    +0.000 A 
ATOM      3  C   UNL     1       1.894   4.628  18.712  0.00  0.00    +0.000 A 
ATOM      4  C   UNL     1       2.342   5.633  19.575  0.00  0.00    +0.000 A 
ATOM      5  C   UNL     1       3.552   6.274  19.274  0.00  0.00    +0.000 A 
ATOM      6  C   UNL     1       4.290   5.894  18.137  0.00  0.00    +0.000 A 
ENDROOT
BRANCH   1   8
ATOM      7  C   UNL     1       5.662   5.298  15.618  0.00  0.00    +0.000 C 
ATOM      8  C   UNL     1       4.687   4.519  16.116  0.00  0.00    +0.000 C 
BRANCH   7  10
ATOM      9  N   UNL     1       5.929   3.736  13.825  0.00  0.00    +0.000 N 
ATOM     10  C   UNL     1       6.503   4.818  14.483  0.00  0.00    +0.000 C 
ATOM     11  O   UNL     1       7.576   5.321  14.180  0.00  0.00    +0.000 OA
ATOM     12  H   UNL     1       5.085   3.298  14.181  0.00  0.00    +0.000 HD
BRANCH   9  13
ATOM     13  N   UNL     1       6.626   3.084  12.779  0.00  0.00    +0.000 NA
ATOM     14  H   UNL     1       7.257   3.776  12.351  0.00  0.00    +0.000 HD
BRANCH  13  15
ATOM     15  C   UNL     1       5.689   2.590  11.762  0.00  0.00    +0.000 C 
BRANCH  15  17
ATOM     16  C   UNL     1       3.424   3.002  10.729  0.00  0.00    +0.000 C 
ATOM     17  C   UNL     1       4.582   3.615  11.505  0.00  0.00    +0.000 C 
ENDBRANCH  15  17
ENDBRANCH  13  15
ENDBRANCH   9  13
ENDBRANCH   7  10
ENDBRANCH   1   8
BRANCH   4  18
ATOM     18  C   UNL     1       1.529   6.056  20.784  0.00  0.00    +0.000 C 
BRANCH  18  19
ATOM     19  N   UNL     1       1.796   7.407  21.305  0.00  0.00    +0.000 NA
ATOM     20  H   UNL     1       2.651   7.780  20.913  0.00  0.00    +0.000 HD
BRANCH  19  21
ATOM     21  C   UNL     1       0.704   8.339  21.032  0.00  0.00    +0.000 C 
BRANCH  21  22
ATOM     22  C   UNL     1       0.966   9.284  19.868  0.00  0.00    +0.000 C 
BRANCH  22  23
ATOM     23  C   UNL     1       0.246  10.585  19.646  0.00  0.00    +0.000 A 
ATOM     24  C   UNL     1      -0.416  10.801  18.434  0.00  0.00    +0.000 A 
ATOM     25  C   UNL     1      -1.818  10.277  18.197  0.00  0.00    +0.000 C 
ATOM     26  N   UNL     1      -0.110  12.136  18.238  0.00  0.00    +0.000 N 
ATOM     27  C   UNL     1      -0.509  12.709  19.430  0.00  0.00    +0.000 A 
ATOM     28  C   UNL     1      -1.050  13.970  19.668  0.00  0.00    +0.000 A 
ATOM     29  C   UNL     1      -1.736  14.104  20.870  0.00  0.00    +0.000 A 
ATOM     30  C   UNL     1      -1.726  13.074  21.817  0.00  0.00    +0.000 A 
ATOM     31  C   UNL     1      -0.973  11.891  21.632  0.00  0.00    +0.000 A 
ATOM     32  C   UNL     1      -0.381  11.668  20.375  0.00  0.00    +0.000 A 
ATOM     33  H   UNL     1       0.704  12.472  17.740  0.00  0.00    +0.000 HD
ENDBRANCH  22  23
ENDBRANCH  21  22
ENDBRANCH  19  21
ENDBRANCH  18  19
ENDBRANCH   4  18
TORSDOF 10
ENDMDL
MODEL 4
REMARK VINA RESULT:      -7.6      1.922      3.453
REMARK  Name = 
REMARK  12 active torsions:
REMARK  status: ('A' for Active; 'I' for Inactive)
REMARK    1  A    between atoms: C_1  and  C_2
REMARK    2  A    between atoms: C_2  and  C_3
REMARK    3  A    between atoms: C_3  and  N_4
REMARK    4  A    between atoms: N_4  and  N_5
REMARK    5  A    between atoms: C_6  and  C_8
REMARK    6  A    between atoms: C_9  and  C_10
REMARK    7  A    between atoms: C_13  and  C_14
REMARK    8  A    between atoms: C_14  and  N_15
REMARK    9  A    between atoms: N_15  and  C_16
REMARK   10  A    between atoms: C_16  and  C_17
REMARK   11  A    between atoms: C_17  and  C_18
REMARK   12  A    between atoms: C_19  and  C_20
REMARK                            x       y       z     vdW  Elec       q    Type
REMARK                         _______ _______ _______ _____ _____    ______ ____
ROOT
ATOM      1  C   UNL     1       4.267   4.716  17.073  0.00  0.00    +0.000 A 
ATOM      2  C   UNL     1       4.659   5.704  17.981  0.00  0.00    +0.000 A 
ATOM      3  C   UNL     1       4.006   5.864  19.216  0.00  0.00    +0.000 A 
ATOM      4  C   UNL     1       2.922   5.054  19.571  0.00  0.00    +0.000 A 
ATOM      5  C   UNL     1       2.509   4.066  18.665  0.00  0.00    +0.000 A 
ATOM      6  C   UNL     1       3.171   3.916  17.431  0.00  0.00    +0.000 A 
ENDROOT
BRANCH   1   8
ATOM      7  C   UNL     1       6.168   4.799  15.477  0.00  0.00    +0.000 C 
ATOM      8  C   UNL     1       4.880   4.533  15.749  0.00  0.00    +0.000 C 
BRANCH   7  10
ATOM      9  N   UNL     1       6.157   3.415  13.526  0.00  0.00    +0.000 N 
ATOM     10  C   UNL     1       6.720   4.542  14.115  0.00  0.00    +0.000 C 
ATOM     11  O   UNL     1       7.573   5.243  13.590  0.00  0.00    +0.000 OA
ATOM     12  H   UNL     1       5.526   2.815  14.047  0.00  0.00    +0.000 HD
BRANCH   9  13
ATOM     13  N   UNL     1       6.624   2.958  12.269  0.00  0.00    +0.000 NA
ATOM     14  H   UNL     1       7.059   3.760  11.791  0.00  0.00    +0.000 HD
BRANCH  13  15
ATOM     15  C   UNL     1       5.510   2.456  11.455  0.00  0.00    +0.000 C 
BRANCH  15  17
ATOM     16  C   UNL     1       3.404   3.392  10.424  0.00  0.00    +0.000 C 
ATOM     17  C   UNL     1       4.251   3.296  11.687  0.00  0.00    +0.000 C 
ENDBRANCH  15  17
ENDBRANCH  13  15
ENDBRANCH   9  13
ENDBRANCH   7  10
ENDBRANCH   1   8
BRANCH   4  18
ATOM     18  C   UNL     1       2.231   5.202  20.913  0.00  0.00    +0.000 C 
BRANCH  18  19
ATOM     19  N   UNL     1       1.214   6.263  21.005  0.00  0.00    +0.000 NA
ATOM     20  H   UNL     1       0.613   6.115  21.806  0.00  0.00    +0.000 HD
BRANCH  19  21
ATOM     21  C   UNL     1       1.803   7.597  21.095  0.00  0.00    +0.000 C 
BRANCH  21  22
ATOM     22  C   UNL     1       1.254   8.592  20.082  0.00  0.00    +0.000 C 
BRANCH  22  23
ATOM     23  C   UNL     1       0.700   9.946  20.430  0.00  0.00    +0.000 A 
ATOM     24  C   UNL     1       0.325  10.815  19.401  0.00  0.00    +0.000 A 
ATOM     25  C   UNL     1      -1.033  10.711  18.737  0.00  0.00    +0.000 C 
ATOM     26  N   UNL     1       0.769  12.012  19.935  0.00  0.00    +0.000 N 
ATOM     27  C   UNL     1       0.175  12.016  21.183  0.00  0.00    +0.000 A 
ATOM     28  C   UNL     1      -0.304  13.089  21.931  0.00  0.00    +0.000 A 
ATOM     29  C   UNL     1      -1.213  12.756  22.930  0.00  0.00    +0.000 A 
ATOM     30  C   UNL     1      -1.481  11.418  23.235  0.00  0.00    +0.000 A 
ATOM     31  C   UNL     1      -0.800  10.352  22.602  0.00  0.00    +0.000 A 
ATOM     32  C   UNL     1       0.021  10.649  21.498  0.00  0.00    +0.000 A 
ATOM     33  H   UNL     1       1.692  12.398  19.791  0.00  0.00    +0.000 HD
ENDBRANCH  22  23
ENDBRANCH  21  22
ENDBRANCH  19  21
ENDBRANCH  18  19
ENDBRANCH   4  18
TORSDOF 10
ENDMDL
MODEL 5
REMARK VINA RESULT:      -7.5      1.764      3.272
REMARK  Name = 
REMARK  12 active torsions:
REMARK  status: ('A' for Active; 'I' for Inactive)
REMARK    1  A    between atoms: C_1  and  C_2
REMARK    2  A    between atoms: C_2  and  C_3
REMARK    3  A    between atoms: C_3  and  N_4
REMARK    4  A    between atoms: N_4  and  N_5
REMARK    5  A    between atoms: C_6  and  C_8
REMARK    6  A    between atoms: C_9  and  C_10
REMARK    7  A    between atoms: C_13  and  C_14
REMARK    8  A    between atoms: C_14  and  N_15
REMARK    9  A    between atoms: N_15  and  C_16
REMARK   10  A    between atoms: C_16  and  C_17
REMARK   11  A    between atoms: C_17  and  C_18
REMARK   12  A    between atoms: C_19  and  C_20
REMARK                            x       y       z     vdW  Elec       q    Type
REMARK                         _______ _______ _______ _____ _____    ______ ____
ROOT
ATOM      1  C   UNL     1       3.818   5.193  17.638  0.00  0.00    +0.000 A 
ATOM      2  C   UNL     1       3.476   4.347  18.697  0.00  0.00    +0.000 A 
ATOM      3  C   UNL     1       2.711   4.807  19.783  0.00  0.00    +0.000 A 
ATOM      4  C   UNL     1       2.283   6.137  19.855  0.00  0.00    +0.000 A 
ATOM      5  C   UNL     1       2.629   7.001  18.806  0.00  0.00    +0.000 A 
ATOM      6  C   UNL     1       3.396   6.529  17.724  0.00  0.00    +0.000 A 
ENDROOT
BRANCH   1   8
ATOM      7  C   UNL     1       5.667   5.519  16.012  0.00  0.00    +0.000 C 
ATOM      8  C   UNL     1       4.656   4.782  16.502  0.00  0.00    +0.000 C 
BRANCH   7  10
ATOM      9  N   UNL     1       5.803   4.091  14.098  0.00  0.00    +0.000 N 
ATOM     10  C   UNL     1       6.497   5.005  14.883  0.00  0.00    +0.000 C 
ATOM     11  O   UNL     1       7.653   5.349  14.686  0.00  0.00    +0.000 OA
ATOM     12  H   UNL     1       4.879   3.770  14.366  0.00  0.00    +0.000 HD
BRANCH   9  13
ATOM     13  N   UNL     1       6.457   3.424  13.033  0.00  0.00    +0.000 NA
ATOM     14  H   UNL     1       7.203   4.046  12.691  0.00  0.00    +0.000 HD
BRANCH  13  15
ATOM     15  C   UNL     1       5.517   3.150  11.939  0.00  0.00    +0.000 C 
BRANCH  15  17
ATOM     16  C   UNL     1       7.201   1.530  10.986  0.00  0.00    +0.000 C 
ATOM     17  C   UNL     1       5.744   1.747  11.372  0.00  0.00    +0.000 C 
ENDBRANCH  15  17
ENDBRANCH  13  15
ENDBRANCH   9  13
ENDBRANCH   7  10
ENDBRANCH   1   8
BRANCH   4  18
ATOM     18  C   UNL     1       1.434   6.633  21.010  0.00  0.00    +0.000 C 
BRANCH  18  19
ATOM     19  N   UNL     1       1.614   8.044  21.389  0.00  0.00    +0.000 NA
ATOM     20  H   UNL     1       2.234   8.513  20.740  0.00  0.00    +0.000 HD
BRANCH  19  21
ATOM     21  C   UNL     1       0.349   8.774  21.446  0.00  0.00    +0.000 C 
BRANCH  21  22
ATOM     22  C   UNL     1       0.503  10.287  21.508  0.00  0.00    +0.000 C 
BRANCH  22  23
ATOM     23  C   UNL     1       0.918  11.150  20.349  0.00  0.00    +0.000 A 
ATOM     24  C   UNL     1       0.498  10.810  19.059  0.00  0.00    +0.000 A 
ATOM     25  C   UNL     1      -0.868  11.215  18.543  0.00  0.00    +0.000 C 
ATOM     26  N   UNL     1       1.648  11.116  18.353  0.00  0.00    +0.000 N 
ATOM     27  C   UNL     1       1.901  12.416  18.748  0.00  0.00    +0.000 A 
ATOM     28  C   UNL     1       2.456  13.468  18.024  0.00  0.00    +0.000 A 
ATOM     29  C   UNL     1       2.196  14.737  18.530  0.00  0.00    +0.000 A 
ATOM     30  C   UNL     1       1.557  14.897  19.764  0.00  0.00    +0.000 A 
ATOM     31  C   UNL     1       1.210  13.795  20.579  0.00  0.00    +0.000 A 
ATOM     32  C   UNL     1       1.334  12.502  20.038  0.00  0.00    +0.000 A 
ATOM     33  H   UNL     1       2.401  10.465  18.172  0.00  0.00    +0.000 HD
ENDBRANCH  22  23
ENDBRANCH  21  22
ENDBRANCH  19  21
ENDBRANCH  18  19
ENDBRANCH   4  18
TORSDOF 10
ENDMDL
MODEL 6
REMARK VINA RESULT:      -7.3      2.875      9.239
REMARK  Name = 
REMARK  12 active torsions:
REMARK  status: ('A' for Active; 'I' for Inactive)
REMARK    1  A    between atoms: C_1  and  C_2
REMARK    2  A    between atoms: C_2  and  C_3
REMARK    3  A    between atoms: C_3  and  N_4
REMARK    4  A    between atoms: N_4  and  N_5
REMARK    5  A    between atoms: C_6  and  C_8
REMARK    6  A    between atoms: C_9  and  C_10
REMARK    7  A    between atoms: C_13  and  C_14
REMARK    8  A    between atoms: C_14  and  N_15
REMARK    9  A    between atoms: N_15  and  C_16
REMARK   10  A    between atoms: C_16  and  C_17
REMARK   11  A    between atoms: C_17  and  C_18
REMARK   12  A    between atoms: C_19  and  C_20
REMARK                            x       y       z     vdW  Elec       q    Type
REMARK                         _______ _______ _______ _____ _____    ______ ____
ROOT
ATOM      1  C   UNL     1       1.976   7.126  19.120  0.00  0.00    +0.000 A 
ATOM      2  C   UNL     1       1.968   6.423  20.328  0.00  0.00    +0.000 A 
ATOM      3  C   UNL     1       1.888   5.019  20.358  0.00  0.00    +0.000 A 
ATOM      4  C   UNL     1       1.790   4.276  19.177  0.00  0.00    +0.000 A 
ATOM      5  C   UNL     1       1.785   4.968  17.957  0.00  0.00    +0.000 A 
ATOM      6  C   UNL     1       1.865   6.373  17.941  0.00  0.00    +0.000 A 
ENDROOT
BRANCH   1   8
ATOM      7  C   UNL     1       1.372   9.298  18.079  0.00  0.00    +0.000 C 
ATOM      8  C   UNL     1       2.009   8.593  19.029  0.00  0.00    +0.000 C 
BRANCH   7  10
ATOM      9  N   UNL     1       0.154  11.355  18.172  0.00  0.00    +0.000 N 
ATOM     10  C   UNL     1       1.421  10.789  18.087  0.00  0.00    +0.000 C 
ATOM     11  O   UNL     1       2.461  11.430  18.019  0.00  0.00    +0.000 OA
ATOM     12  H   UNL     1      -0.679  10.776  18.128  0.00  0.00    +0.000 HD
BRANCH   9  13
ATOM     13  N   UNL     1      -0.007  12.760  18.099  0.00  0.00    +0.000 NA
ATOM     14  H   UNL     1       0.914  13.186  18.269  0.00  0.00    +0.000 HD
BRANCH  13  15
ATOM     15  C   UNL     1      -0.953  13.227  19.121  0.00  0.00    +0.000 C 
BRANCH  15  17
ATOM     16  C   UNL     1      -3.106  12.531  20.240  0.00  0.00    +0.000 C 
ATOM     17  C   UNL     1      -1.775  12.058  19.669  0.00  0.00    +0.000 C 
ENDBRANCH  15  17
ENDBRANCH  13  15
ENDBRANCH   9  13
ENDBRANCH   7  10
ENDBRANCH   1   8
BRANCH   4  18
ATOM     18  C   UNL     1       1.732   2.760  19.200  0.00  0.00    +0.000 C 
BRANCH  18  19
ATOM     19  N   UNL     1       2.832   2.058  18.519  0.00  0.00    +0.000 NA
ATOM     20  H   UNL     1       3.134   2.573  17.702  0.00  0.00    +0.000 HD
BRANCH  19  21
ATOM     21  C   UNL     1       3.982   1.839  19.394  0.00  0.00    +0.000 C 
BRANCH  21  22
ATOM     22  C   UNL     1       4.849   3.072  19.606  0.00  0.00    +0.000 C 
BRANCH  22  23
ATOM     23  C   UNL     1       5.156   4.092  18.546  0.00  0.00    +0.000 A 
ATOM     24  C   UNL     1       5.872   5.242  18.891  0.00  0.00    +0.000 A 
ATOM     25  C   UNL     1       7.386   5.235  18.965  0.00  0.00    +0.000 C 
ATOM     26  N   UNL     1       5.199   6.174  18.122  0.00  0.00    +0.000 N 
ATOM     27  C   UNL     1       5.243   5.606  16.863  0.00  0.00    +0.000 A 
ATOM     28  C   UNL     1       5.334   6.222  15.617  0.00  0.00    +0.000 A 
ATOM     29  C   UNL     1       5.781   5.406  14.585  0.00  0.00    +0.000 A 
ATOM     30  C   UNL     1       5.964   4.034  14.786  0.00  0.00    +0.000 A 
ATOM     31  C   UNL     1       5.643   3.404  16.011  0.00  0.00    +0.000 A 
ATOM     32  C   UNL     1       5.319   4.218  17.112  0.00  0.00    +0.000 A 
ATOM     33  H   UNL     1       4.395   6.702  18.433  0.00  0.00    +0.000 HD
ENDBRANCH  22  23
ENDBRANCH  21  22
ENDBRANCH  19  21
ENDBRANCH  18  19
ENDBRANCH   4  18
TORSDOF 10
ENDMDL
MODEL 7
REMARK VINA RESULT:      -7.2      3.190      4.419
REMARK  Name = 
REMARK  12 active torsions:
REMARK  status: ('A' for Active; 'I' for Inactive)
REMARK    1  A    between atoms: C_1  and  C_2
REMARK    2  A    between atoms: C_2  and  C_3
REMARK    3  A    between atoms: C_3  and  N_4
REMARK    4  A    between atoms: N_4  and  N_5
REMARK    5  A    between atoms: C_6  and  C_8
REMARK    6  A    between atoms: C_9  and  C_10
REMARK    7  A    between atoms: C_13  and  C_14
REMARK    8  A    between atoms: C_14  and  N_15
REMARK    9  A    between atoms: N_15  and  C_16
REMARK   10  A    between atoms: C_16  and  C_17
REMARK   11  A    between atoms: C_17  and  C_18
REMARK   12  A    between atoms: C_19  and  C_20
REMARK                            x       y       z     vdW  Elec       q    Type
REMARK                         _______ _______ _______ _____ _____    ______ ____
ROOT
ATOM      1  C   UNL     1       2.063   8.163  18.691  0.00  0.00    +0.000 A 
ATOM      2  C   UNL     1       1.417   9.097  17.877  0.00  0.00    +0.000 A 
ATOM      3  C   UNL     1       0.538  10.054  18.416  0.00  0.00    +0.000 A 
ATOM      4  C   UNL     1       0.262  10.091  19.786  0.00  0.00    +0.000 A 
ATOM      5  C   UNL     1       0.894   9.152  20.615  0.00  0.00    +0.000 A 
ATOM      6  C   UNL     1       1.770   8.198  20.063  0.00  0.00    +0.000 A 
ENDROOT
BRANCH   1   8
ATOM      7  C   UNL     1       3.270   5.999  18.866  0.00  0.00    +0.000 C 
ATOM      8  C   UNL     1       2.952   7.110  18.180  0.00  0.00    +0.000 C 
BRANCH   7  10
ATOM      9  N   UNL     1       5.410   4.931  18.828  0.00  0.00    +0.000 N 
ATOM     10  C   UNL     1       4.145   4.958  18.252  0.00  0.00    +0.000 C 
ATOM     11  O   UNL     1       3.783   4.224  17.343  0.00  0.00    +0.000 OA
ATOM     12  H   UNL     1       5.686   5.629  19.512  0.00  0.00    +0.000 HD
BRANCH   9  13
ATOM     13  N   UNL     1       6.411   4.071  18.314  0.00  0.00    +0.000 NA
ATOM     14  H   UNL     1       6.694   3.438  19.075  0.00  0.00    +0.000 HD
BRANCH  13  15
ATOM     15  C   UNL     1       7.577   4.843  17.867  0.00  0.00    +0.000 C 
BRANCH  15  17
ATOM     16  C   UNL     1       7.557   7.350  17.574  0.00  0.00    +0.000 C 
ATOM     17  C   UNL     1       7.628   6.201  18.571  0.00  0.00    +0.000 C 
ENDBRANCH  15  17
ENDBRANCH  13  15
ENDBRANCH   9  13
ENDBRANCH   7  10
ENDBRANCH   1   8
BRANCH   4  18
ATOM     18  C   UNL     1      -0.663  11.138  20.378  0.00  0.00    +0.000 C 
BRANCH  18  19
ATOM     19  N   UNL     1      -0.926  11.030  21.823  0.00  0.00    +0.000 NA
ATOM     20  H   UNL     1      -0.156  10.572  22.294  0.00  0.00    +0.000 HD
BRANCH  19  21
ATOM     21  C   UNL     1      -1.159  12.329  22.448  0.00  0.00    +0.000 C 
BRANCH  21  22
ATOM     22  C   UNL     1      -2.392  12.381  23.340  0.00  0.00    +0.000 C 
BRANCH  22  23
ATOM     23  C   UNL     1      -3.795  12.597  22.844  0.00  0.00    +0.000 A 
ATOM     24  C   UNL     1      -4.689  13.335  23.625  0.00  0.00    +0.000 A 
ATOM     25  C   UNL     1      -4.711  14.850  23.579  0.00  0.00    +0.000 C 
ATOM     26  N   UNL     1      -5.842  12.598  23.418  0.00  0.00    +0.000 N 
ATOM     27  C   UNL     1      -5.911  12.540  22.039  0.00  0.00    +0.000 A 
ATOM     28  C   UNL     1      -7.031  12.526  21.210  0.00  0.00    +0.000 A 
ATOM     29  C   UNL     1      -6.793  12.889  19.889  0.00  0.00    +0.000 A 
ATOM     30  C   UNL     1      -5.490  13.092  19.427  0.00  0.00    +0.000 A 
ATOM     31  C   UNL     1      -4.358  12.875  20.248  0.00  0.00    +0.000 A 
ATOM     32  C   UNL     1      -4.567  12.640  21.620  0.00  0.00    +0.000 A 
ATOM     33  H   UNL     1      -6.137  11.820  23.993  0.00  0.00    +0.000 HD
ENDBRANCH  22  23
ENDBRANCH  21  22
ENDBRANCH  19  21
ENDBRANCH  18  19
ENDBRANCH   4  18
TORSDOF 10
ENDMDL
MODEL 8
REMARK VINA RESULT:      -7.2      1.117      1.537
REMARK  Name = 
REMARK  12 active torsions:
REMARK  status: ('A' for Active; 'I' for Inactive)
REMARK    1  A    between atoms: C_1  and  C_2
REMARK    2  A    between atoms: C_2  and  C_3
REMARK    3  A    between atoms: C_3  and  N_4
REMARK    4  A    between atoms: N_4  and  N_5
REMARK    5  A    between atoms: C_6  and  C_8
REMARK    6  A    between atoms: C_9  and  C_10
REMARK    7  A    between atoms: C_13  and  C_14
REMARK    8  A    between atoms: C_14  and  N_15
REMARK    9  A    between atoms: N_15  and  C_16
REMARK   10  A    between atoms: C_16  and  C_17
REMARK   11  A    between atoms: C_17  and  C_18
REMARK   12  A    between atoms: C_19  and  C_20
REMARK                            x       y       z     vdW  Elec       q    Type
REMARK                         _______ _______ _______ _____ _____    ______ ____
ROOT
ATOM      1  C   UNL     1       3.449   5.407  18.381  0.00  0.00    +0.000 A 
ATOM      2  C   UNL     1       2.756   4.643  19.325  0.00  0.00    +0.000 A 
ATOM      3  C   UNL     1       1.902   5.243  20.267  0.00  0.00    +0.000 A 
ATOM      4  C   UNL     1       1.731   6.631  20.308  0.00  0.00    +0.000 A 
ATOM      5  C   UNL     1       2.429   7.412  19.375  0.00  0.00    +0.000 A 
ATOM      6  C   UNL     1       3.283   6.800  18.437  0.00  0.00    +0.000 A 
ENDROOT
BRANCH   1   8
ATOM      7  C   UNL     1       5.346   5.556  16.785  0.00  0.00    +0.000 C 
ATOM      8  C   UNL     1       4.392   4.842  17.405  0.00  0.00    +0.000 C 
BRANCH   7  10
ATOM      9  N   UNL     1       6.073   5.277  14.523  0.00  0.00    +0.000 N 
ATOM     10  C   UNL     1       6.292   4.892  15.841  0.00  0.00    +0.000 C 
ATOM     11  O   UNL     1       7.150   4.097  16.196  0.00  0.00    +0.000 OA
ATOM     12  H   UNL     1       5.284   5.864  14.276  0.00  0.00    +0.000 HD
BRANCH   9  13
ATOM     13  N   UNL     1       6.813   4.680  13.473  0.00  0.00    +0.000 NA
ATOM     14  H   UNL     1       6.805   5.335  12.679  0.00  0.00    +0.000 HD
BRANCH  13  15
ATOM     15  C   UNL     1       6.196   3.413  13.061  0.00  0.00    +0.000 C 
BRANCH  15  17
ATOM     16  C   UNL     1       4.213   3.214  11.512  0.00  0.00    +0.000 C 
ATOM     17  C   UNL     1       5.706   3.498  11.613  0.00  0.00    +0.000 C 
ENDBRANCH  15  17
ENDBRANCH  13  15
ENDBRANCH   9  13
ENDBRANCH   7  10
ENDBRANCH   1   8
BRANCH   4  18
ATOM     18  C   UNL     1       0.789   7.282  21.303  0.00  0.00    +0.000 C 
BRANCH  18  19
ATOM     19  N   UNL     1       0.915   8.741  21.456  0.00  0.00    +0.000 NA
ATOM     20  H   UNL     1       1.700   9.091  20.922  0.00  0.00    +0.000 HD
BRANCH  19  21
ATOM     21  C   UNL     1      -0.294   9.453  21.045  0.00  0.00    +0.000 C 
BRANCH  21  22
ATOM     22  C   UNL     1      -0.130  10.280  19.778  0.00  0.00    +0.000 C 
BRANCH  22  23
ATOM     23  C   UNL     1      -1.269  10.851  18.979  0.00  0.00    +0.000 A 
ATOM     24  C   UNL     1      -1.550  12.218  19.071  0.00  0.00    +0.000 A 
ATOM     25  C   UNL     1      -0.791  13.235  18.242  0.00  0.00    +0.000 C 
ATOM     26  N   UNL     1      -2.932  12.172  19.056  0.00  0.00    +0.000 N 
ATOM     27  C   UNL     1      -3.191  11.421  17.926  0.00  0.00    +0.000 A 
ATOM     28  C   UNL     1      -4.249  11.515  17.024  0.00  0.00    +0.000 A 
ATOM     29  C   UNL     1      -4.023  10.931  15.783  0.00  0.00    +0.000 A 
ATOM     30  C   UNL     1      -2.869  10.176  15.548  0.00  0.00    +0.000 A 
ATOM     31  C   UNL     1      -1.922   9.914  16.565  0.00  0.00    +0.000 A 
ATOM     32  C   UNL     1      -2.051  10.599  17.787  0.00  0.00    +0.000 A 
ATOM     33  H   UNL     1      -3.513  12.099  19.880  0.00  0.00    +0.000 HD
ENDBRANCH  22  23
ENDBRANCH  21  22
ENDBRANCH  19  21
ENDBRANCH  18  19
ENDBRANCH   4  18
TORSDOF 10
ENDMDL
MODEL 9
REMARK VINA RESULT:      -7.2      1.917      3.344
REMARK  Name = 
REMARK  12 active torsions:
REMARK  status: ('A' for Active; 'I' for Inactive)
REMARK    1  A    between atoms: C_1  and  C_2
REMARK    2  A    between atoms: C_2  and  C_3
REMARK    3  A    between atoms: C_3  and  N_4
REMARK    4  A    between atoms: N_4  and  N_5
REMARK    5  A    between atoms: C_6  and  C_8
REMARK    6  A    between atoms: C_9  and  C_10
REMARK    7  A    between atoms: C_13  and  C_14
REMARK    8  A    between atoms: C_14  and  N_15
REMARK    9  A    between atoms: N_15  and  C_16
REMARK   10  A    between atoms: C_16  and  C_17
REMARK   11  A    between atoms: C_17  and  C_18
REMARK   12  A    between atoms: C_19  and  C_20
REMARK                            x       y       z     vdW  Elec       q    Type
REMARK                         _______ _______ _______ _____ _____    ______ ____
ROOT
ATOM      1  C   UNL     1       4.205   5.083  17.166  0.00  0.00    +0.000 A 
ATOM      2  C   UNL     1       4.517   6.268  17.838  0.00  0.00    +0.000 A 
ATOM      3  C   UNL     1       3.749   6.715  18.928  0.00  0.00    +0.000 A 
ATOM      4  C   UNL     1       2.629   6.000  19.365  0.00  0.00    +0.000 A 
ATOM      5  C   UNL     1       2.297   4.815  18.693  0.00  0.00    +0.000 A 
ATOM      6  C   UNL     1       3.073   4.378  17.602  0.00  0.00    +0.000 A 
ENDROOT
BRANCH   1   8
ATOM      7  C   UNL     1       5.759   5.355  15.248  0.00  0.00    +0.000 C 
ATOM      8  C   UNL     1       4.941   4.592  15.992  0.00  0.00    +0.000 C 
BRANCH   7  10
ATOM      9  N   UNL     1       5.903   3.601  13.628  0.00  0.00    +0.000 N 
ATOM     10  C   UNL     1       6.504   4.764  14.098  0.00  0.00    +0.000 C 
ATOM     11  O   UNL     1       7.526   5.249  13.635  0.00  0.00    +0.000 OA
ATOM     12  H   UNL     1       5.112   3.191  14.112  0.00  0.00    +0.000 HD
BRANCH   9  13
ATOM     13  N   UNL     1       6.518   2.846  12.599  0.00  0.00    +0.000 NA
ATOM     14  H   UNL     1       7.256   3.432  12.185  0.00  0.00    +0.000 HD
BRANCH  13  15
ATOM     15  C   UNL     1       5.540   2.493  11.562  0.00  0.00    +0.000 C 
BRANCH  15  17
ATOM     16  C   UNL     1       3.386   3.193  10.447  0.00  0.00    +0.000 C 
ATOM     17  C   UNL     1       4.333   3.432  11.617  0.00  0.00    +0.000 C 
ENDBRANCH  15  17
ENDBRANCH  13  15
ENDBRANCH   9  13
ENDBRANCH   7  10
ENDBRANCH   1   8
BRANCH   4  18
ATOM     18  C   UNL     1       1.813   6.462  20.557  0.00  0.00    +0.000 C 
BRANCH  18  19
ATOM     19  N   UNL     1       1.135   7.761  20.416  0.00  0.00    +0.000 NA
ATOM     20  H   UNL     1       0.152   7.632  20.210  0.00  0.00    +0.000 HD
BRANCH  19  21
ATOM     21  C   UNL     1       1.263   8.592  21.610  0.00  0.00    +0.000 C 
BRANCH  21  22
ATOM     22  C   UNL     1       0.603   9.959  21.494  0.00  0.00    +0.000 C 
BRANCH  22  23
ATOM     23  C   UNL     1       0.861  10.939  20.384  0.00  0.00    +0.000 A 
ATOM     24  C   UNL     1       0.065  10.896  19.235  0.00  0.00    +0.000 A 
ATOM     25  C   UNL     1      -1.285  11.583  19.186  0.00  0.00    +0.000 C 
ATOM     26  N   UNL     1       1.029  11.145  18.275  0.00  0.00    +0.000 N 
ATOM     27  C   UNL     1       1.619  12.304  18.743  0.00  0.00    +0.000 A 
ATOM     28  C   UNL     1       2.158  13.373  18.030  0.00  0.00    +0.000 A 
ATOM     29  C   UNL     1       2.286  14.558  18.745  0.00  0.00    +0.000 A 
ATOM     30  C   UNL     1       2.031  14.594  20.119  0.00  0.00    +0.000 A 
ATOM     31  C   UNL     1       1.703  13.431  20.854  0.00  0.00    +0.000 A 
ATOM     32  C   UNL     1       1.433  12.248  20.141  0.00  0.00    +0.000 A 
ATOM     33  H   UNL     1       1.571  10.432  17.806  0.00  0.00    +0.000 HD
ENDBRANCH  22  23
ENDBRANCH  21  22
ENDBRANCH  19  21
ENDBRANCH  18  19
ENDBRANCH   4  18
TORSDOF 10
ENDMDL
