MODEL 1
REMARK VINA RESULT:      -6.8      0.000      0.000
REMARK  Name = 
REMARK  5 active torsions:
REMARK  status: ('A' for Active; 'I' for Inactive)
REMARK    1  A    between atoms: C_1  and  C_2
REMARK    2  A    between atoms: C_2  and  C_3
REMARK    3  A    between atoms: C_8  and  C_9
REMARK    4  A    between atoms: N_10  and  C_11
REMARK    5  A    between atoms: C_11  and  C_12
REMARK                            x       y       z     vdW  Elec       q    Type
REMARK                         _______ _______ _______ _____ _____    ______ ____
ROOT
ATOM      1  C   UNL     1       2.532   3.384  19.400  0.00  0.00    +0.000 A 
ATOM      2  N   UNL     1       2.520   4.738  19.275  0.00  0.00    +0.000 NA
ATOM      3  C   UNL     1       3.360   5.250  18.329  0.00  0.00    +0.000 A 
ATOM      4  C   UNL     1       4.230   4.482  17.571  0.00  0.00    +0.000 A 
ATOM      5  N   UNL     1       4.234   3.132  17.701  0.00  0.00    +0.000 NA
ATOM      6  C   UNL     1       3.392   2.592  18.626  0.00  0.00    +0.000 A 
ATOM      7  C   UNL     1       3.407   1.095  18.734  0.00  0.00    +0.000 C 
ATOM      8  N   UNL     1       4.926   4.996  16.440  0.00  0.00    +0.000 N 
ATOM      9  S   UNL     1       5.205   6.657  16.501  0.00  0.00    +0.000 S 
ATOM     10  O   UNL     1       6.366   6.851  17.347  0.00  0.00    +0.000 OA
ATOM     11  O   UNL     1       5.244   7.109  15.126  0.00  0.00    +0.000 OA
ATOM     12  N   UNL     1       3.967   7.381  17.245  0.00  0.00    +0.000 NA
ATOM     13  C   UNL     1       3.224   6.712  18.068  0.00  0.00    +0.000 C 
ATOM     14  N   UNL     1       2.246   7.399  18.759  0.00  0.00    +0.000 N 
ATOM     15  H   UNL     1       2.409   8.396  18.840  0.00  0.00    +0.000 HD
ATOM     16  H   UNL     1       1.920   6.947  19.610  0.00  0.00    +0.000 HD
ENDROOT
BRANCH   1  18
ATOM     17  C   UNL     1       2.062   2.942  21.823  0.00  0.00    +0.000 C 
ATOM     18  C   UNL     1       1.559   2.808  20.396  0.00  0.00    +0.000 C 
ENDBRANCH   1  18
BRANCH   8  19
ATOM     19  C   UNL     1       5.959   4.169  15.774  0.00  0.00    +0.000 C 
ATOM     20  C   UNL     1       5.787   4.049  14.266  0.00  0.00    +0.000 C 
ENDBRANCH   8  19
TORSDOF 2
ENDMDL
MODEL 2
REMARK VINA RESULT:      -6.5      1.983      3.483
REMARK  Name = 
REMARK  5 active torsions:
REMARK  status: ('A' for Active; 'I' for Inactive)
REMARK    1  A    between atoms: C_1  and  C_2
REMARK    2  A    between atoms: C_2  and  C_3
REMARK    3  A    between atoms: C_8  and  C_9
REMARK    4  A    between atoms: N_10  and  C_11
REMARK    5  A    between atoms: C_11  and  C_12
REMARK                            x       y       z     vdW  Elec       q    Type
REMARK                         _______ _______ _______ _____ _____    ______ ____
ROOT
ATOM      1  C   UNL     1       2.191   4.927  19.461  0.00  0.00    +0.000 A 
ATOM      2  N   UNL     1       2.744   3.903  18.757  0.00  0.00    +0.000 NA
ATOM      3  C   UNL     1       3.823   4.231  17.989  0.00  0.00    +0.000 A 
ATOM      4  C   UNL     1       4.316   5.520  17.858  0.00  0.00    +0.000 A 
ATOM      5  N   UNL     1       3.759   6.534  18.564  0.00  0.00    +0.000 NA
ATOM      6  C   UNL     1       2.691   6.233  19.353  0.00  0.00    +0.000 A 
ATOM      7  C   UNL     1       2.109   7.374  20.136  0.00  0.00    +0.000 C 
ATOM      8  N   UNL     1       5.568   5.807  17.243  0.00  0.00    +0.000 N 
ATOM      9  S   UNL     1       6.049   4.669  16.098  0.00  0.00    +0.000 S 
ATOM     10  O   UNL     1       5.338   4.985  14.875  0.00  0.00    +0.000 OA
ATOM     11  O   UNL     1       7.498   4.682  16.101  0.00  0.00    +0.000 OA
ATOM     12  N   UNL     1       5.548   3.203  16.556  0.00  0.00    +0.000 NA
ATOM     13  C   UNL     1       4.536   3.083  17.356  0.00  0.00    +0.000 C 
ATOM     14  N   UNL     1       4.080   1.811  17.634  0.00  0.00    +0.000 N 
ATOM     15  H   UNL     1       4.326   1.114  16.940  0.00  0.00    +0.000 HD
ATOM     16  H   UNL     1       3.121   1.760  17.971  0.00  0.00    +0.000 HD
ENDROOT
BRANCH   1  18
ATOM     17  C   UNL     1       1.160   3.139  20.884  0.00  0.00    +0.000 C 
ATOM     18  C   UNL     1       1.041   4.560  20.361  0.00  0.00    +0.000 C 
ENDBRANCH   1  18
BRANCH   8  19
ATOM     19  C   UNL     1       5.958   7.214  16.991  0.00  0.00    +0.000 C 
ATOM     20  C   UNL     1       7.319   7.596  17.558  0.00  0.00    +0.000 C 
ENDBRANCH   8  19
TORSDOF 2
ENDMDL
MODEL 3
REMARK VINA RESULT:      -6.4      3.192      4.932
REMARK  Name = 
REMARK  5 active torsions:
REMARK  status: ('A' for Active; 'I' for Inactive)
REMARK    1  A    between atoms: C_1  and  C_2
REMARK    2  A    between atoms: C_2  and  C_3
REMARK    3  A    between atoms: C_8  and  C_9
REMARK    4  A    between atoms: N_10  and  C_11
REMARK    5  A    between atoms: C_11  and  C_12
REMARK                            x       y       z     vdW  Elec       q    Type
REMARK                         _______ _______ _______ _____ _____    ______ ____
ROOT
ATOM      1  C   UNL     1       6.003   6.253  17.600  0.00  0.00    +0.000 A 
ATOM      2  N   UNL     1       4.769   6.707  17.948  0.00  0.00    +0.000 NA
ATOM      3  C   UNL     1       3.984   5.819  18.625  0.00  0.00    +0.000 A 
ATOM      4  C   UNL     1       4.357   4.513  18.902  0.00  0.00    +0.000 A 
ATOM      5  N   UNL     1       5.589   4.070  18.552  0.00  0.00    +0.000 NA
ATOM      6  C   UNL     1       6.402   4.941  17.891  0.00  0.00    +0.000 A 
ATOM      7  C   UNL     1       7.765   4.426  17.534  0.00  0.00    +0.000 C 
ATOM      8  N   UNL     1       3.630   3.679  19.799  0.00  0.00    +0.000 N 
ATOM      9  S   UNL     1       1.996   4.066  19.928  0.00  0.00    +0.000 S 
ATOM     10  O   UNL     1       1.336   3.467  18.784  0.00  0.00    +0.000 OA
ATOM     11  O   UNL     1       1.594   3.676  21.264  0.00  0.00    +0.000 OA
ATOM     12  N   UNL     1       1.811   5.664  19.782  0.00  0.00    +0.000 NA
ATOM     13  C   UNL     1       2.704   6.367  19.159  0.00  0.00    +0.000 C 
ATOM     14  N   UNL     1       2.451   7.710  18.968  0.00  0.00    +0.000 N 
ATOM     15  H   UNL     1       1.469   7.963  19.006  0.00  0.00    +0.000 HD
ATOM     16  H   UNL     1       2.977   8.146  18.214  0.00  0.00    +0.000 HD
ENDROOT
BRANCH   1  18
ATOM     17  C   UNL     1       7.814   7.963  17.891  0.00  0.00    +0.000 C 
ATOM     18  C   UNL     1       6.899   7.250  16.911  0.00  0.00    +0.000 C 
ENDBRANCH   1  18
BRANCH   8  19
ATOM     19  C   UNL     1       3.990   2.247  19.925  0.00  0.00    +0.000 C 
ATOM     20  C   UNL     1       3.665   1.410  18.695  0.00  0.00    +0.000 C 
ENDBRANCH   8  19
TORSDOF 2
ENDMDL
MODEL 4
REMARK VINA RESULT:      -6.4      3.257      4.683
REMARK  Name = 
REMARK  5 active torsions:
REMARK  status: ('A' for Active; 'I' for Inactive)
REMARK    1  A    between atoms: C_1  and  C_2
REMARK    2  A    between atoms: C_2  and  C_3
REMARK    3  A    between atoms: C_8  and  C_9
REMARK    4  A    between atoms: N_10  and  C_11
REMARK    5  A    between atoms: C_11  and  C_12
REMARK                            x       y       z     vdW  Elec       q    Type
REMARK                         _______ _______ _______ _____ _____    ______ ____
ROOT
ATOM      1  C   UNL     1       1.915   7.034  20.151  0.00  0.00    +0.000 A 
ATOM      2  N   UNL     1       1.811   5.816  20.747  0.00  0.00    +0.000 NA
ATOM      3  C   UNL     1       2.230   4.756  19.996  0.00  0.00    +0.000 A 
ATOM      4  C   UNL     1       2.677   4.862  18.689  0.00  0.00    +0.000 A 
ATOM      5  N   UNL     1       2.778   6.081  18.103  0.00  0.00    +0.000 NA
ATOM      6  C   UNL     1       2.385   7.160  18.836  0.00  0.00    +0.000 A 
ATOM      7  C   UNL     1       2.526   8.496  18.165  0.00  0.00    +0.000 C 
ATOM      8  N   UNL     1       3.320   3.791  18.005  0.00  0.00    +0.000 N 
ATOM      9  S   UNL     1       2.879   2.261  18.554  0.00  0.00    +0.000 S 
ATOM     10  O   UNL     1       1.612   1.944  17.927  0.00  0.00    +0.000 OA
ATOM     11  O   UNL     1       4.023   1.403  18.317  0.00  0.00    +0.000 OA
ATOM     12  N   UNL     1       2.605   2.322  20.145  0.00  0.00    +0.000 NA
ATOM     13  C   UNL     1       2.281   3.444  20.705  0.00  0.00    +0.000 C 
ATOM     14  N   UNL     1       1.953   3.426  22.046  0.00  0.00    +0.000 N 
ATOM     15  H   UNL     1       1.650   2.522  22.393  0.00  0.00    +0.000 HD
ATOM     16  H   UNL     1       1.398   4.216  22.366  0.00  0.00    +0.000 HD
ENDROOT
BRANCH   1  18
ATOM     17  C   UNL     1       0.038   8.193  21.342  0.00  0.00    +0.000 C 
ATOM     18  C   UNL     1       1.517   8.215  20.997  0.00  0.00    +0.000 C 
ENDBRANCH   1  18
BRANCH   8  19
ATOM     19  C   UNL     1       3.627   3.920  16.561  0.00  0.00    +0.000 C 
ATOM     20  C   UNL     1       5.112   4.040  16.246  0.00  0.00    +0.000 C 
ENDBRANCH   8  19
TORSDOF 2
ENDMDL
MODEL 5
REMARK VINA RESULT:      -6.3      3.436      5.176
REMARK  Name = 
REMARK  5 active torsions:
REMARK  status: ('A' for Active; 'I' for Inactive)
REMARK    1  A    between atoms: C_1  and  C_2
REMARK    2  A    between atoms: C_2  and  C_3
REMARK    3  A    between atoms: C_8  and  C_9
REMARK    4  A    between atoms: N_10  and  C_11
REMARK    5  A    between atoms: C_11  and  C_12
REMARK                            x       y       z     vdW  Elec       q    Type
REMARK                         _______ _______ _______ _____ _____    ______ ____
ROOT
ATOM      1  C   UNL     1       5.639   6.069  17.784  0.00  0.00    +0.000 A 
ATOM      2  N   UNL     1       4.486   6.384  18.432  0.00  0.00    +0.000 NA
ATOM      3  C   UNL     1       3.919   5.372  19.152  0.00  0.00    +0.000 A 
ATOM      4  C   UNL     1       4.418   4.080  19.194  0.00  0.00    +0.000 A 
ATOM      5  N   UNL     1       5.569   3.775  18.545  0.00  0.00    +0.000 NA
ATOM      6  C   UNL     1       6.167   4.771  17.833  0.00  0.00    +0.000 A 
ATOM      7  C   UNL     1       7.448   4.406  17.141  0.00  0.00    +0.000 C 
ATOM      8  N   UNL     1       3.953   3.105  20.122  0.00  0.00    +0.000 N 
ATOM      9  S   UNL     1       2.366   3.343  20.633  0.00  0.00    +0.000 S 
ATOM     10  O   UNL     1       1.510   2.809  19.593  0.00  0.00    +0.000 OA
ATOM     11  O   UNL     1       2.287   2.791  21.971  0.00  0.00    +0.000 OA
ATOM     12  N   UNL     1       2.062   4.928  20.713  0.00  0.00    +0.000 NA
ATOM     13  C   UNL     1       2.756   5.759  20.002  0.00  0.00    +0.000 C 
ATOM     14  N   UNL     1       2.390   7.089  20.023  0.00  0.00    +0.000 N 
ATOM     15  H   UNL     1       1.427   7.257  20.294  0.00  0.00    +0.000 HD
ATOM     16  H   UNL     1       2.714   7.639  19.231  0.00  0.00    +0.000 HD
ENDROOT
BRANCH   1  18
ATOM     17  C   UNL     1       7.563   7.676  17.745  0.00  0.00    +0.000 C 
ATOM     18  C   UNL     1       6.304   7.198  17.041  0.00  0.00    +0.000 C 
ENDBRANCH   1  18
BRANCH   8  19
ATOM     19  C   UNL     1       4.414   1.701  20.005  0.00  0.00    +0.000 C 
ATOM     20  C   UNL     1       5.311   1.241  21.147  0.00  0.00    +0.000 C 
ENDBRANCH   8  19
TORSDOF 2
ENDMDL
MODEL 6
REMARK VINA RESULT:      -6.3      2.993      5.517
REMARK  Name = 
REMARK  5 active torsions:
REMARK  status: ('A' for Active; 'I' for Inactive)
REMARK    1  A    between atoms: C_1  and  C_2
REMARK    2  A    between atoms: C_2  and  C_3
REMARK    3  A    between atoms: C_8  and  C_9
REMARK    4  A    between atoms: N_10  and  C_11
REMARK    5  A    between atoms: C_11  and  C_12
REMARK                            x       y       z     vdW  Elec       q    Type
REMARK                         _______ _______ _______ _____ _____    ______ ____
ROOT
ATOM      1  C   UNL     1       6.161   3.985  13.712  0.00  0.00    +0.000 A 
ATOM      2  N   UNL     1       5.235   3.610  14.635  0.00  0.00    +0.000 NA
ATOM      3  C   UNL     1       5.353   4.200  15.859  0.00  0.00    +0.000 A 
ATOM      4  C   UNL     1       6.369   5.079  16.200  0.00  0.00    +0.000 A 
ATOM      5  N   UNL     1       7.286   5.448  15.273  0.00  0.00    +0.000 NA
ATOM      6  C   UNL     1       7.183   4.888  14.035  0.00  0.00    +0.000 A 
ATOM      7  C   UNL     1       8.203   5.332  13.027  0.00  0.00    +0.000 C 
ATOM      8  N   UNL     1       6.347   5.855  17.394  0.00  0.00    +0.000 N 
ATOM      9  S   UNL     1       5.463   5.163  18.650  0.00  0.00    +0.000 S 
ATOM     10  O   UNL     1       6.325   4.176  19.268  0.00  0.00    +0.000 OA
ATOM     11  O   UNL     1       4.961   6.265  19.445  0.00  0.00    +0.000 OA
ATOM     12  N   UNL     1       4.204   4.356  18.037  0.00  0.00    +0.000 NA
ATOM     13  C   UNL     1       4.242   3.925  16.816  0.00  0.00    +0.000 C 
ATOM     14  N   UNL     1       3.189   3.151  16.373  0.00  0.00    +0.000 N 
ATOM     15  H   UNL     1       2.662   2.694  17.109  0.00  0.00    +0.000 HD
ATOM     16  H   UNL     1       3.392   2.566  15.565  0.00  0.00    +0.000 HD
ENDROOT
BRANCH   1  18
ATOM     17  C   UNL     1       4.556   3.439  11.864  0.00  0.00    +0.000 C 
ATOM     18  C   UNL     1       5.999   3.387  12.338  0.00  0.00    +0.000 C 
ENDBRANCH   1  18
BRANCH   8  19
ATOM     19  C   UNL     1       7.537   6.652  17.774  0.00  0.00    +0.000 C 
ATOM     20  C   UNL     1       7.397   8.146  17.518  0.00  0.00    +0.000 C 
ENDBRANCH   8  19
TORSDOF 2
ENDMDL
MODEL 7
REMARK VINA RESULT:      -6.3      3.076      4.797
REMARK  Name = 
REMARK  5 active torsions:
REMARK  status: ('A' for Active; 'I' for Inactive)
REMARK    1  A    between atoms: C_1  and  C_2
REMARK    2  A    between atoms: C_2  and  C_3
REMARK    3  A    between atoms: C_8  and  C_9
REMARK    4  A    between atoms: N_10  and  C_11
REMARK    5  A    between atoms: C_11  and  C_12
REMARK                            x       y       z     vdW  Elec       q    Type
REMARK                         _______ _______ _______ _____ _____    ______ ____
ROOT
ATOM      1  C   UNL     1       5.749   6.222  17.430  0.00  0.00    +0.000 A 
ATOM      2  N   UNL     1       4.639   6.585  18.127  0.00  0.00    +0.000 NA
ATOM      3  C   UNL     1       3.770   5.573  18.418  0.00  0.00    +0.000 A 
ATOM      4  C   UNL     1       3.938   4.264  17.996  0.00  0.00    +0.000 A 
ATOM      5  N   UNL     1       5.049   3.911  17.303  0.00  0.00    +0.000 NA
ATOM      6  C   UNL     1       5.943   4.898  17.014  0.00  0.00    +0.000 A 
ATOM      7  C   UNL     1       7.170   4.472  16.261  0.00  0.00    +0.000 C 
ATOM      8  N   UNL     1       3.153   3.186  18.496  0.00  0.00    +0.000 N 
ATOM      9  S   UNL     1       1.621   3.642  19.029  0.00  0.00    +0.000 S 
ATOM     10  O   UNL     1       0.786   3.747  17.849  0.00  0.00    +0.000 OA
ATOM     11  O   UNL     1       1.262   2.702  20.072  0.00  0.00    +0.000 OA
ATOM     12  N   UNL     1       1.696   5.121  19.675  0.00  0.00    +0.000 NA
ATOM     13  C   UNL     1       2.644   5.933  19.328  0.00  0.00    +0.000 C 
ATOM     14  N   UNL     1       2.605   7.219  19.825  0.00  0.00    +0.000 N 
ATOM     15  H   UNL     1       1.686   7.530  20.120  0.00  0.00    +0.000 HD
ATOM     16  H   UNL     1       3.139   7.904  19.294  0.00  0.00    +0.000 HD
ENDROOT
BRANCH   1  18
ATOM     17  C   UNL     1       7.868   7.331  18.185  0.00  0.00    +0.000 C 
ATOM     18  C   UNL     1       6.744   7.321  17.163  0.00  0.00    +0.000 C 
ENDBRANCH   1  18
BRANCH   8  19
ATOM     19  C   UNL     1       3.276   1.842  17.886  0.00  0.00    +0.000 C 
ATOM     20  C   UNL     1       3.999   0.824  18.758  0.00  0.00    +0.000 C 
ENDBRANCH   8  19
TORSDOF 2
ENDMDL
MODEL 8
REMARK VINA RESULT:      -6.2      2.721      5.292
REMARK  Name = 
REMARK  5 active torsions:
REMARK  status: ('A' for Active; 'I' for Inactive)
REMARK    1  A    between atoms: C_1  and  C_2
REMARK    2  A    between atoms: C_2  and  C_3
REMARK    3  A    between atoms: C_8  and  C_9
REMARK    4  A    between atoms: N_10  and  C_11
REMARK    5  A    between atoms: C_11  and  C_12
REMARK                            x       y       z     vdW  Elec       q    Type
REMARK                         _______ _______ _______ _____ _____    ______ ____
ROOT
ATOM      1  C   UNL     1       2.633   7.693  18.664  0.00  0.00    +0.000 A 
ATOM      2  N   UNL     1       3.351   6.866  17.857  0.00  0.00    +0.000 NA
ATOM      3  C   UNL     1       3.473   5.579  18.295  0.00  0.00    +0.000 A 
ATOM      4  C   UNL     1       2.971   5.121  19.502  0.00  0.00    +0.000 A 
ATOM      5  N   UNL     1       2.256   5.953  20.299  0.00  0.00    +0.000 NA
ATOM      6  C   UNL     1       2.101   7.240  19.879  0.00  0.00    +0.000 A 
ATOM      7  C   UNL     1       1.290   8.130  20.775  0.00  0.00    +0.000 C 
ATOM      8  N   UNL     1       2.907   3.738  19.835  0.00  0.00    +0.000 N 
ATOM      9  S   UNL     1       4.069   2.791  19.067  0.00  0.00    +0.000 S 
ATOM     10  O   UNL     1       5.297   2.949  19.819  0.00  0.00    +0.000 OA
ATOM     11  O   UNL     1       3.486   1.472  18.928  0.00  0.00    +0.000 OA
ATOM     12  N   UNL     1       4.352   3.384  17.591  0.00  0.00    +0.000 NA
ATOM     13  C   UNL     1       4.107   4.630  17.334  0.00  0.00    +0.000 C 
ATOM     14  N   UNL     1       4.464   5.115  16.093  0.00  0.00    +0.000 N 
ATOM     15  H   UNL     1       5.189   4.582  15.624  0.00  0.00    +0.000 HD
ATOM     16  H   UNL     1       4.573   6.125  16.038  0.00  0.00    +0.000 HD
ENDROOT
BRANCH   1  18
ATOM     17  C   UNL     1       1.011   9.341  17.693  0.00  0.00    +0.000 C 
ATOM     18  C   UNL     1       2.438   9.098  18.156  0.00  0.00    +0.000 C 
ENDBRANCH   1  18
BRANCH   8  19
ATOM     19  C   UNL     1       2.509   3.329  21.203  0.00  0.00    +0.000 C 
ATOM     20  C   UNL     1       1.129   2.690  21.288  0.00  0.00    +0.000 C 
ENDBRANCH   8  19
TORSDOF 2
ENDMDL
MODEL 9
REMARK VINA RESULT:      -6.2      3.069      5.501
REMARK  Name = 
REMARK  5 active torsions:
REMARK  status: ('A' for Active; 'I' for Inactive)
REMARK    1  A    between atoms: C_1  and  C_2
REMARK    2  A    between atoms: C_2  and  C_3
REMARK    3  A    between atoms: C_8  and  C_9
REMARK    4  A    between atoms: N_10  and  C_11
REMARK    5  A    between atoms: C_11  and  C_12
REMARK                            x       y       z     vdW  Elec       q    Type
REMARK                         _______ _______ _______ _____ _____    ______ ____
ROOT
ATOM      1  C   UNL     1       5.617   4.544  16.939  0.00  0.00    +0.000 A 
ATOM      2  N   UNL     1       4.841   3.505  17.349  0.00  0.00    +0.000 NA
ATOM      3  C   UNL     1       3.857   3.823  18.240  0.00  0.00    +0.000 A 
ATOM      4  C   UNL     1       3.668   5.091  18.765  0.00  0.00    +0.000 A 
ATOM      5  N   UNL     1       4.446   6.121  18.349  0.00  0.00    +0.000 NA
ATOM      6  C   UNL     1       5.426   5.837  17.445  0.00  0.00    +0.000 A 
ATOM      7  C   UNL     1       6.258   7.001  16.992  0.00  0.00    +0.000 C 
ATOM      8  N   UNL     1       2.508   5.453  19.508  0.00  0.00    +0.000 N 
ATOM      9  S   UNL     1       1.772   4.164  20.304  0.00  0.00    +0.000 S 
ATOM     10  O   UNL     1       2.524   3.945  21.523  0.00  0.00    +0.000 OA
ATOM     11  O   UNL     1       0.364   4.494  20.388  0.00  0.00    +0.000 OA
ATOM     12  N   UNL     1       1.932   2.824  19.415  0.00  0.00    +0.000 NA
ATOM     13  C   UNL     1       2.897   2.725  18.558  0.00  0.00    +0.000 C 
ATOM     14  N   UNL     1       3.056   1.523  17.900  0.00  0.00    +0.000 N 
ATOM     15  H   UNL     1       2.652   0.724  18.377  0.00  0.00    +0.000 HD
ATOM     16  H   UNL     1       3.982   1.363  17.508  0.00  0.00    +0.000 HD
ENDROOT
BRANCH   1  18
ATOM     17  C   UNL     1       6.060   4.038  14.523  0.00  0.00    +0.000 C 
ATOM     18  C   UNL     1       6.663   4.214  15.906  0.00  0.00    +0.000 C 
ENDBRANCH   1  18
BRANCH   8  19
ATOM     19  C   UNL     1       2.445   6.774  20.174  0.00  0.00    +0.000 C 
ATOM     20  C   UNL     1       1.869   7.886  19.307  0.00  0.00    +0.000 C 
ENDBRANCH   8  19
TORSDOF 2
ENDMDL
