MODEL 1
REMARK VINA RESULT:      -6.8      0.000      0.000
REMARK  Name = 
REMARK  11 active torsions:
REMARK  status: ('A' for Active; 'I' for Inactive)
REMARK    1  A    between atoms: C_1  and  C_2
REMARK    2  A    between atoms: C_2  and  O_3
REMARK    3  A    between atoms: O_3  and  C_4
REMARK    4  A    between atoms: C_6  and  C_7
REMARK    5  A    between atoms: C_11  and  S_12
REMARK    6  A    between atoms: S_12  and  N_15
REMARK    7  A    between atoms: N_15  and  C_16
REMARK    8  A    between atoms: C_18  and  C_19
REMARK    9  A    between atoms: C_18  and  C_20
REMARK   10  A    between atoms: C_22  and  C_23
REMARK   11  A    between atoms: C_22  and  C_24
REMARK                            x       y       z     vdW  Elec       q    Type
REMARK                         _______ _______ _______ _____ _____    ______ ____
ROOT
ATOM      1  S   UNL     1       1.526   8.966  18.554  0.00  0.00    +0.000 S 
ATOM      2  O   UNL     1       0.619   8.250  17.713  0.00  0.00    +0.000 OA
ATOM      3  O   UNL     1       2.457   9.940  17.977  0.00  0.00    +0.000 OA
ENDROOT
BRANCH   1  11
ATOM      4  C   UNL     1      -0.323  10.882  19.407  0.00  0.00    +0.000 A 
ATOM      5  C   UNL     1      -1.054  11.460  20.451  0.00  0.00    +0.000 A 
ATOM      6  C   UNL     1      -0.903  11.039  21.787  0.00  0.00    +0.000 A 
ATOM      7  C   UNL     1      -1.744  11.657  22.860  0.00  0.00    +0.000 C 
ATOM      8  C   UNL     1       0.012  10.030  22.080  0.00  0.00    +0.000 A 
ATOM      9 CL   UNL     1       0.252   9.437  23.679  0.00  0.00    +0.000 Cl
ATOM     10  C   UNL     1       0.743   9.450  21.061  0.00  0.00    +0.000 A 
ATOM     11  C   UNL     1       0.560   9.855  19.732  0.00  0.00    +0.000 A 
BRANCH   4  12
ATOM     12  O   UNL     1      -0.496  11.241  18.098  0.00  0.00    +0.000 OA
BRANCH  12  14
ATOM     13  C   UNL     1      -2.304  10.067  17.068  0.00  0.00    +0.000 C 
ATOM     14  C   UNL     1      -1.855  11.385  17.664  0.00  0.00    +0.000 C 
ENDBRANCH  12  14
ENDBRANCH   4  12
ENDBRANCH   1  11
BRANCH   1  15
ATOM     15  N   UNL     1       2.459   7.840  19.402  0.00  0.00    +0.000 NA
ATOM     16  H   UNL     1       2.543   8.101  20.385  0.00  0.00    +0.000 HD
BRANCH  15  17
ATOM     17  C   UNL     1       2.327   6.385  19.108  0.00  0.00    +0.000 C 
ATOM     18  C   UNL     1       2.064   5.626  20.408  0.00  0.00    +0.000 C 
ATOM     19  C   UNL     1       2.066   4.098  20.266  0.00  0.00    +0.000 C 
ATOM     20  C   UNL     1       2.182   3.528  21.702  0.00  0.00    +0.000 C 
ATOM     21  C   UNL     1       0.745   3.567  19.684  0.00  0.00    +0.000 C 
ATOM     22  N   UNL     1       3.251   3.647  19.525  0.00  0.00    +0.000 NA
ATOM     23  C   UNL     1       3.622   4.338  18.283  0.00  0.00    +0.000 C 
ATOM     24  C   UNL     1       5.089   3.952  17.986  0.00  0.00    +0.000 C 
ATOM     25  C   UNL     1       2.786   3.873  17.079  0.00  0.00    +0.000 C 
ATOM     26  C   UNL     1       3.587   5.866  18.432  0.00  0.00    +0.000 C 
ATOM     27  H   UNL     1       3.249   2.635  19.402  0.00  0.00    +0.000 HD
ENDBRANCH  15  17
ENDBRANCH   1  15
TORSDOF 5
ENDMDL
MODEL 2
REMARK VINA RESULT:      -6.6      2.247      3.027
REMARK  Name = 
REMARK  11 active torsions:
REMARK  status: ('A' for Active; 'I' for Inactive)
REMARK    1  A    between atoms: C_1  and  C_2
REMARK    2  A    between atoms: C_2  and  O_3
REMARK    3  A    between atoms: O_3  and  C_4
REMARK    4  A    between atoms: C_6  and  C_7
REMARK    5  A    between atoms: C_11  and  S_12
REMARK    6  A    between atoms: S_12  and  N_15
REMARK    7  A    between atoms: N_15  and  C_16
REMARK    8  A    between atoms: C_18  and  C_19
REMARK    9  A    between atoms: C_18  and  C_20
REMARK   10  A    between atoms: C_22  and  C_23
REMARK   11  A    between atoms: C_22  and  C_24
REMARK                            x       y       z     vdW  Elec       q    Type
REMARK                         _______ _______ _______ _____ _____    ______ ____
ROOT
ATOM      1  S   UNL     1       1.703   8.976  18.269  0.00  0.00    +0.000 S 
ATOM      2  O   UNL     1       0.424   8.568  17.779  0.00  0.00    +0.000 OA
ATOM      3  O   UNL     1       2.833   9.124  17.348  0.00  0.00    +0.000 OA
ENDROOT
BRANCH   1  11
ATOM      4  C   UNL     1       0.821  10.748  20.243  0.00  0.00    +0.000 A 
ATOM      5  C   UNL     1       0.779  12.052  20.751  0.00  0.00    +0.000 A 
ATOM      6  C   UNL     1       1.379  13.132  20.075  0.00  0.00    +0.000 A 
ATOM      7  C   UNL     1       1.348  14.499  20.685  0.00  0.00    +0.000 C 
ATOM      8  C   UNL     1       2.018  12.901  18.859  0.00  0.00    +0.000 A 
ATOM      9 CL   UNL     1       2.795  14.156  17.970  0.00  0.00    +0.000 Cl
ATOM     10  C   UNL     1       2.066  11.621  18.342  0.00  0.00    +0.000 A 
ATOM     11  C   UNL     1       1.494  10.548  19.040  0.00  0.00    +0.000 A 
BRANCH   4  12
ATOM     12  O   UNL     1       0.291   9.678  20.911  0.00  0.00    +0.000 OA
BRANCH  12  14
ATOM     13  C   UNL     1      -0.313   9.582  23.220  0.00  0.00    +0.000 C 
ATOM     14  C   UNL     1       0.817   9.437  22.223  0.00  0.00    +0.000 C 
ENDBRANCH  12  14
ENDBRANCH   4  12
ENDBRANCH   1  11
BRANCH   1  15
ATOM     15  N   UNL     1       2.183   7.880  19.463  0.00  0.00    +0.000 NA
ATOM     16  H   UNL     1       1.758   8.107  20.361  0.00  0.00    +0.000 HD
BRANCH  15  17
ATOM     17  C   UNL     1       2.321   6.431  19.139  0.00  0.00    +0.000 C 
ATOM     18  C   UNL     1       1.919   5.599  20.355  0.00  0.00    +0.000 C 
ATOM     19  C   UNL     1       2.167   4.091  20.206  0.00  0.00    +0.000 C 
ATOM     20  C   UNL     1       2.078   3.493  21.632  0.00  0.00    +0.000 C 
ATOM     21  C   UNL     1       1.076   3.403  19.368  0.00  0.00    +0.000 C 
ATOM     22  N   UNL     1       3.526   3.835  19.713  0.00  0.00    +0.000 NA
ATOM     23  C   UNL     1       4.032   4.614  18.576  0.00  0.00    +0.000 C 
ATOM     24  C   UNL     1       5.569   4.446  18.575  0.00  0.00    +0.000 C 
ATOM     25  C   UNL     1       3.525   4.080  17.225  0.00  0.00    +0.000 C 
ATOM     26  C   UNL     1       3.750   6.116  18.725  0.00  0.00    +0.000 C 
ATOM     27  H   UNL     1       3.694   2.837  19.586  0.00  0.00    +0.000 HD
ENDBRANCH  15  17
ENDBRANCH   1  15
TORSDOF 5
ENDMDL
MODEL 3
REMARK VINA RESULT:      -6.6      2.363      4.016
REMARK  Name = 
REMARK  11 active torsions:
REMARK  status: ('A' for Active; 'I' for Inactive)
REMARK    1  A    between atoms: C_1  and  C_2
REMARK    2  A    between atoms: C_2  and  O_3
REMARK    3  A    between atoms: O_3  and  C_4
REMARK    4  A    between atoms: C_6  and  C_7
REMARK    5  A    between atoms: C_11  and  S_12
REMARK    6  A    between atoms: S_12  and  N_15
REMARK    7  A    between atoms: N_15  and  C_16
REMARK    8  A    between atoms: C_18  and  C_19
REMARK    9  A    between atoms: C_18  and  C_20
REMARK   10  A    between atoms: C_22  and  C_23
REMARK   11  A    between atoms: C_22  and  C_24
REMARK                            x       y       z     vdW  Elec       q    Type
REMARK                         _______ _______ _______ _____ _____    ______ ____
ROOT
ATOM      1  S   UNL     1       1.446   9.659  18.843  0.00  0.00    +0.000 S 
ATOM      2  O   UNL     1       2.325  10.732  18.501  0.00  0.00    +0.000 OA
ATOM      3  O   UNL     1       1.497   9.059  20.179  0.00  0.00    +0.000 OA
ENDROOT
BRANCH   1  11
ATOM      4  C   UNL     1      -0.834  11.139  19.497  0.00  0.00    +0.000 A 
ATOM      5  C   UNL     1      -2.133  11.546  19.171  0.00  0.00    +0.000 A 
ATOM      6  C   UNL     1      -2.796  11.066  18.025  0.00  0.00    +0.000 A 
ATOM      7  C   UNL     1      -4.167  11.570  17.695  0.00  0.00    +0.000 C 
ATOM      8  C   UNL     1      -2.149  10.149  17.200  0.00  0.00    +0.000 A 
ATOM      9 CL   UNL     1      -2.872   9.521  15.769  0.00  0.00    +0.000 Cl
ATOM     10  C   UNL     1      -0.867   9.735  17.509  0.00  0.00    +0.000 A 
ATOM     11  C   UNL     1      -0.205  10.245  18.635  0.00  0.00    +0.000 A 
BRANCH   4  12
ATOM     12  O   UNL     1      -0.154  11.635  20.576  0.00  0.00    +0.000 OA
BRANCH  12  14
ATOM     13  C   UNL     1      -0.659  10.421  22.570  0.00  0.00    +0.000 C 
ATOM     14  C   UNL     1      -0.894  11.705  21.803  0.00  0.00    +0.000 C 
ENDBRANCH  12  14
ENDBRANCH   4  12
ENDBRANCH   1  11
BRANCH   1  15
ATOM     15  N   UNL     1       1.688   8.406  17.734  0.00  0.00    +0.000 NA
ATOM     16  H   UNL     1       1.711   8.763  16.778  0.00  0.00    +0.000 HD
BRANCH  15  17
ATOM     17  C   UNL     1       2.629   7.295  18.052  0.00  0.00    +0.000 C 
ATOM     18  C   UNL     1       3.713   7.223  16.977  0.00  0.00    +0.000 C 
ATOM     19  C   UNL     1       4.655   6.019  17.101  0.00  0.00    +0.000 C 
ATOM     20  C   UNL     1       5.398   5.906  15.746  0.00  0.00    +0.000 C 
ATOM     21  C   UNL     1       5.732   6.232  18.180  0.00  0.00    +0.000 C 
ATOM     22  N   UNL     1       3.892   4.778  17.281  0.00  0.00    +0.000 NA
ATOM     23  C   UNL     1       2.794   4.750  18.257  0.00  0.00    +0.000 C 
ATOM     24  C   UNL     1       1.932   3.513  17.915  0.00  0.00    +0.000 C 
ATOM     25  C   UNL     1       3.295   4.560  19.699  0.00  0.00    +0.000 C 
ATOM     26  C   UNL     1       1.877   5.976  18.141  0.00  0.00    +0.000 C 
ATOM     27  H   UNL     1       4.509   3.974  17.391  0.00  0.00    +0.000 HD
ENDBRANCH  15  17
ENDBRANCH   1  15
TORSDOF 5
ENDMDL
MODEL 4
REMARK VINA RESULT:      -6.4      3.277      7.793
REMARK  Name = 
REMARK  11 active torsions:
REMARK  status: ('A' for Active; 'I' for Inactive)
REMARK    1  A    between atoms: C_1  and  C_2
REMARK    2  A    between atoms: C_2  and  O_3
REMARK    3  A    between atoms: O_3  and  C_4
REMARK    4  A    between atoms: C_6  and  C_7
REMARK    5  A    between atoms: C_11  and  S_12
REMARK    6  A    between atoms: S_12  and  N_15
REMARK    7  A    between atoms: N_15  and  C_16
REMARK    8  A    between atoms: C_18  and  C_19
REMARK    9  A    between atoms: C_18  and  C_20
REMARK   10  A    between atoms: C_22  and  C_23
REMARK   11  A    between atoms: C_22  and  C_24
REMARK                            x       y       z     vdW  Elec       q    Type
REMARK                         _______ _______ _______ _____ _____    ______ ____
ROOT
ATOM      1  S   UNL     1       2.671   5.792  18.767  0.00  0.00    +0.000 S 
ATOM      2  O   UNL     1       1.466   5.481  18.064  0.00  0.00    +0.000 OA
ATOM      3  O   UNL     1       2.942   5.187  20.073  0.00  0.00    +0.000 OA
ENDROOT
BRANCH   1  11
ATOM      4  C   UNL     1       4.053   4.173  16.954  0.00  0.00    +0.000 A 
ATOM      5  C   UNL     1       5.176   3.970  16.144  0.00  0.00    +0.000 A 
ATOM      6  C   UNL     1       6.245   4.886  16.111  0.00  0.00    +0.000 A 
ATOM      7  C   UNL     1       7.401   4.646  15.191  0.00  0.00    +0.000 C 
ATOM      8  C   UNL     1       6.192   6.020  16.920  0.00  0.00    +0.000 A 
ATOM      9 CL   UNL     1       7.442   7.204  16.935  0.00  0.00    +0.000 Cl
ATOM     10  C   UNL     1       5.091   6.234  17.728  0.00  0.00    +0.000 A 
ATOM     11  C   UNL     1       4.019   5.331  17.727  0.00  0.00    +0.000 A 
BRANCH   4  12
ATOM     12  O   UNL     1       2.982   3.322  16.958  0.00  0.00    +0.000 OA
BRANCH  12  14
ATOM     13  C   UNL     1       1.937   2.060  18.696  0.00  0.00    +0.000 C 
ATOM     14  C   UNL     1       3.124   2.142  17.761  0.00  0.00    +0.000 C 
ENDBRANCH  12  14
ENDBRANCH   4  12
ENDBRANCH   1  11
BRANCH   1  15
ATOM     15  N   UNL     1       2.738   7.468  18.980  0.00  0.00    +0.000 NA
ATOM     16  H   UNL     1       3.267   7.912  18.229  0.00  0.00    +0.000 HD
BRANCH  15  17
ATOM     17  C   UNL     1       1.546   8.208  19.482  0.00  0.00    +0.000 C 
ATOM     18  C   UNL     1       1.523   9.608  18.870  0.00  0.00    +0.000 C 
ATOM     19  C   UNL     1       0.431  10.530  19.429  0.00  0.00    +0.000 C 
ATOM     20  C   UNL     1       0.811  11.968  18.995  0.00  0.00    +0.000 C 
ATOM     21  C   UNL     1      -0.949  10.234  18.816  0.00  0.00    +0.000 C 
ATOM     22  N   UNL     1       0.431  10.506  20.897  0.00  0.00    +0.000 NA
ATOM     23  C   UNL     1       0.499   9.212  21.589  0.00  0.00    +0.000 C 
ATOM     24  C   UNL     1       0.918   9.514  23.047  0.00  0.00    +0.000 C 
ATOM     25  C   UNL     1      -0.868   8.508  21.655  0.00  0.00    +0.000 C 
ATOM     26  C   UNL     1       1.576   8.290  21.000  0.00  0.00    +0.000 C 
ATOM     27  H   UNL     1      -0.308  11.095  21.279  0.00  0.00    +0.000 HD
ENDBRANCH  15  17
ENDBRANCH   1  15
TORSDOF 5
ENDMDL
MODEL 5
REMARK VINA RESULT:      -6.4      2.020      3.037
REMARK  Name = 
REMARK  11 active torsions:
REMARK  status: ('A' for Active; 'I' for Inactive)
REMARK    1  A    between atoms: C_1  and  C_2
REMARK    2  A    between atoms: C_2  and  O_3
REMARK    3  A    between atoms: O_3  and  C_4
REMARK    4  A    between atoms: C_6  and  C_7
REMARK    5  A    between atoms: C_11  and  S_12
REMARK    6  A    between atoms: S_12  and  N_15
REMARK    7  A    between atoms: N_15  and  C_16
REMARK    8  A    between atoms: C_18  and  C_19
REMARK    9  A    between atoms: C_18  and  C_20
REMARK   10  A    between atoms: C_22  and  C_23
REMARK   11  A    between atoms: C_22  and  C_24
REMARK                            x       y       z     vdW  Elec       q    Type
REMARK                         _______ _______ _______ _____ _____    ______ ____
ROOT
ATOM      1  S   UNL     1       1.593   9.324  18.364  0.00  0.00    +0.000 S 
ATOM      2  O   UNL     1       1.566   8.633  17.113  0.00  0.00    +0.000 OA
ATOM      3  O   UNL     1       2.562  10.397  18.594  0.00  0.00    +0.000 OA
ENDROOT
BRANCH   1  11
ATOM      4  C   UNL     1      -0.416  10.657  19.780  0.00  0.00    +0.000 A 
ATOM      5  C   UNL     1      -1.695  11.226  19.796  0.00  0.00    +0.000 A 
ATOM      6  C   UNL     1      -2.544  11.178  18.674  0.00  0.00    +0.000 A 
ATOM      7  C   UNL     1      -3.884  11.844  18.727  0.00  0.00    +0.000 C 
ATOM      8  C   UNL     1      -2.107  10.533  17.519  0.00  0.00    +0.000 A 
ATOM      9 CL   UNL     1      -3.067  10.439  16.092  0.00  0.00    +0.000 Cl
ATOM     10  C   UNL     1      -0.848   9.963  17.487  0.00  0.00    +0.000 A 
ATOM     11  C   UNL     1       0.001  10.046  18.600  0.00  0.00    +0.000 A 
BRANCH   4  12
ATOM     12  O   UNL     1       0.443  10.741  20.842  0.00  0.00    +0.000 OA
BRANCH  12  14
ATOM     13  C   UNL     1       0.243   9.390  22.801  0.00  0.00    +0.000 C 
ATOM     14  C   UNL     1      -0.163  10.690  22.140  0.00  0.00    +0.000 C 
ENDBRANCH  12  14
ENDBRANCH   4  12
ENDBRANCH   1  11
BRANCH   1  15
ATOM     15  N   UNL     1       1.823   8.183  19.590  0.00  0.00    +0.000 NA
ATOM     16  H   UNL     1       1.151   8.316  20.345  0.00  0.00    +0.000 HD
BRANCH  15  17
ATOM     17  C   UNL     1       2.169   6.774  19.247  0.00  0.00    +0.000 C 
ATOM     18  C   UNL     1       1.777   5.858  20.405  0.00  0.00    +0.000 C 
ATOM     19  C   UNL     1       2.226   4.399  20.245  0.00  0.00    +0.000 C 
ATOM     20  C   UNL     1       2.096   3.748  21.644  0.00  0.00    +0.000 C 
ATOM     21  C   UNL     1       1.303   3.608  19.301  0.00  0.00    +0.000 C 
ATOM     22  N   UNL     1       3.642   4.330  19.865  0.00  0.00    +0.000 NA
ATOM     23  C   UNL     1       4.137   5.203  18.792  0.00  0.00    +0.000 C 
ATOM     24  C   UNL     1       5.678   5.227  18.920  0.00  0.00    +0.000 C 
ATOM     25  C   UNL     1       3.814   4.654  17.392  0.00  0.00    +0.000 C 
ATOM     26  C   UNL     1       3.656   6.652  18.950  0.00  0.00    +0.000 C 
ATOM     27  H   UNL     1       3.945   3.366  19.730  0.00  0.00    +0.000 HD
ENDBRANCH  15  17
ENDBRANCH   1  15
TORSDOF 5
ENDMDL
MODEL 6
REMARK VINA RESULT:      -6.4      4.123      6.394
REMARK  Name = 
REMARK  11 active torsions:
REMARK  status: ('A' for Active; 'I' for Inactive)
REMARK    1  A    between atoms: C_1  and  C_2
REMARK    2  A    between atoms: C_2  and  O_3
REMARK    3  A    between atoms: O_3  and  C_4
REMARK    4  A    between atoms: C_6  and  C_7
REMARK    5  A    between atoms: C_11  and  S_12
REMARK    6  A    between atoms: S_12  and  N_15
REMARK    7  A    between atoms: N_15  and  C_16
REMARK    8  A    between atoms: C_18  and  C_19
REMARK    9  A    between atoms: C_18  and  C_20
REMARK   10  A    between atoms: C_22  and  C_23
REMARK   11  A    between atoms: C_22  and  C_24
REMARK                            x       y       z     vdW  Elec       q    Type
REMARK                         _______ _______ _______ _____ _____    ______ ____
ROOT
ATOM      1  S   UNL     1       2.436   2.977  17.889  0.00  0.00    +0.000 S 
ATOM      2  O   UNL     1       2.033   1.837  18.650  0.00  0.00    +0.000 OA
ATOM      3  O   UNL     1       1.862   3.220  16.563  0.00  0.00    +0.000 OA
ENDROOT
BRANCH   1  11
ATOM      4  C   UNL     1       1.447   4.377  20.097  0.00  0.00    +0.000 A 
ATOM      5  C   UNL     1       1.262   5.598  20.758  0.00  0.00    +0.000 A 
ATOM      6  C   UNL     1       1.668   6.820  20.188  0.00  0.00    +0.000 A 
ATOM      7  C   UNL     1       1.491   8.093  20.956  0.00  0.00    +0.000 C 
ATOM      8  C   UNL     1       2.256   6.818  18.924  0.00  0.00    +0.000 A 
ATOM      9 CL   UNL     1       2.799   8.260  18.155  0.00  0.00    +0.000 Cl
ATOM     10  C   UNL     1       2.443   5.622  18.258  0.00  0.00    +0.000 A 
ATOM     11  C   UNL     1       2.065   4.409  18.850  0.00  0.00    +0.000 A 
BRANCH   4  12
ATOM     12  O   UNL     1       1.109   3.176  20.658  0.00  0.00    +0.000 OA
BRANCH  12  14
ATOM     13  C   UNL     1       3.147   2.350  21.588  0.00  0.00    +0.000 C 
ATOM     14  C   UNL     1       1.756   2.860  21.898  0.00  0.00    +0.000 C 
ENDBRANCH  12  14
ENDBRANCH   4  12
ENDBRANCH   1  11
BRANCH   1  15
ATOM     15  N   UNL     1       4.114   2.912  17.693  0.00  0.00    +0.000 NA
ATOM     16  H   UNL     1       4.399   2.028  17.272  0.00  0.00    +0.000 HD
BRANCH  15  17
ATOM     17  C   UNL     1       4.866   4.127  17.266  0.00  0.00    +0.000 C 
ATOM     18  C   UNL     1       5.459   3.894  15.878  0.00  0.00    +0.000 C 
ATOM     19  C   UNL     1       6.392   5.010  15.388  0.00  0.00    +0.000 C 
ATOM     20  C   UNL     1       7.178   4.426  14.188  0.00  0.00    +0.000 C 
ATOM     21  C   UNL     1       5.614   6.227  14.858  0.00  0.00    +0.000 C 
ATOM     22  N   UNL     1       7.376   5.356  16.422  0.00  0.00    +0.000 NA
ATOM     23  C   UNL     1       6.919   5.556  17.804  0.00  0.00    +0.000 C 
ATOM     24  C   UNL     1       8.175   5.468  18.700  0.00  0.00    +0.000 C 
ATOM     25  C   UNL     1       6.309   6.951  18.026  0.00  0.00    +0.000 C 
ATOM     26  C   UNL     1       5.963   4.448  18.269  0.00  0.00    +0.000 C 
ATOM     27  H   UNL     1       7.985   6.115  16.118  0.00  0.00    +0.000 HD
ENDBRANCH  15  17
ENDBRANCH   1  15
TORSDOF 5
ENDMDL
MODEL 7
REMARK VINA RESULT:      -6.3      2.045      3.508
REMARK  Name = 
REMARK  11 active torsions:
REMARK  status: ('A' for Active; 'I' for Inactive)
REMARK    1  A    between atoms: C_1  and  C_2
REMARK    2  A    between atoms: C_2  and  O_3
REMARK    3  A    between atoms: O_3  and  C_4
REMARK    4  A    between atoms: C_6  and  C_7
REMARK    5  A    between atoms: C_11  and  S_12
REMARK    6  A    between atoms: S_12  and  N_15
REMARK    7  A    between atoms: N_15  and  C_16
REMARK    8  A    between atoms: C_18  and  C_19
REMARK    9  A    between atoms: C_18  and  C_20
REMARK   10  A    between atoms: C_22  and  C_23
REMARK   11  A    between atoms: C_22  and  C_24
REMARK                            x       y       z     vdW  Elec       q    Type
REMARK                         _______ _______ _______ _____ _____    ______ ____
ROOT
ATOM      1  S   UNL     1       2.176   8.141  18.029  0.00  0.00    +0.000 S 
ATOM      2  O   UNL     1       1.331   7.177  17.397  0.00  0.00    +0.000 OA
ATOM      3  O   UNL     1       2.461   9.418  17.370  0.00  0.00    +0.000 OA
ENDROOT
BRANCH   1  11
ATOM      4  C   UNL     1       1.370   7.677  20.665  0.00  0.00    +0.000 A 
ATOM      5  C   UNL     1       0.796   8.163  21.846  0.00  0.00    +0.000 A 
ATOM      6  C   UNL     1       0.293   9.475  21.943  0.00  0.00    +0.000 A 
ATOM      7  C   UNL     1      -0.267   9.961  23.244  0.00  0.00    +0.000 C 
ATOM      8  C   UNL     1       0.353  10.309  20.828  0.00  0.00    +0.000 A 
ATOM      9 CL   UNL     1      -0.221  11.933  20.857  0.00  0.00    +0.000 Cl
ATOM     10  C   UNL     1       0.914   9.844  19.654  0.00  0.00    +0.000 A 
ATOM     11  C   UNL     1       1.441   8.547  19.580  0.00  0.00    +0.000 A 
BRANCH   4  12
ATOM     12  O   UNL     1       1.912   6.425  20.569  0.00  0.00    +0.000 OA
BRANCH  12  14
ATOM     13  C   UNL     1       1.586   4.113  21.072  0.00  0.00    +0.000 C 
ATOM     14  C   UNL     1       0.976   5.347  20.442  0.00  0.00    +0.000 C 
ENDBRANCH  12  14
ENDBRANCH   4  12
ENDBRANCH   1  11
BRANCH   1  15
ATOM     15  N   UNL     1       3.667   7.409  18.344  0.00  0.00    +0.000 NA
ATOM     16  H   UNL     1       3.935   7.532  19.321  0.00  0.00    +0.000 HD
BRANCH  15  17
ATOM     17  C   UNL     1       4.006   6.099  17.720  0.00  0.00    +0.000 C 
ATOM     18  C   UNL     1       3.933   4.999  18.777  0.00  0.00    +0.000 C 
ATOM     19  C   UNL     1       4.414   3.622  18.299  0.00  0.00    +0.000 C 
ATOM     20  C   UNL     1       4.636   2.771  19.574  0.00  0.00    +0.000 C 
ATOM     21  C   UNL     1       3.351   2.894  17.459  0.00  0.00    +0.000 C 
ATOM     22  N   UNL     1       5.713   3.733  17.621  0.00  0.00    +0.000 NA
ATOM     23  C   UNL     1       5.907   4.788  16.619  0.00  0.00    +0.000 C 
ATOM     24  C   UNL     1       7.434   4.931  16.420  0.00  0.00    +0.000 C 
ATOM     25  C   UNL     1       5.312   4.416  15.250  0.00  0.00    +0.000 C 
ATOM     26  C   UNL     1       5.393   6.153  17.100  0.00  0.00    +0.000 C 
ATOM     27  H   UNL     1       6.030   2.828  17.276  0.00  0.00    +0.000 HD
ENDBRANCH  15  17
ENDBRANCH   1  15
TORSDOF 5
ENDMDL
MODEL 8
REMARK VINA RESULT:      -6.3      2.595      4.088
REMARK  Name = 
REMARK  11 active torsions:
REMARK  status: ('A' for Active; 'I' for Inactive)
REMARK    1  A    between atoms: C_1  and  C_2
REMARK    2  A    between atoms: C_2  and  O_3
REMARK    3  A    between atoms: O_3  and  C_4
REMARK    4  A    between atoms: C_6  and  C_7
REMARK    5  A    between atoms: C_11  and  S_12
REMARK    6  A    between atoms: S_12  and  N_15
REMARK    7  A    between atoms: N_15  and  C_16
REMARK    8  A    between atoms: C_18  and  C_19
REMARK    9  A    between atoms: C_18  and  C_20
REMARK   10  A    between atoms: C_22  and  C_23
REMARK   11  A    between atoms: C_22  and  C_24
REMARK                            x       y       z     vdW  Elec       q    Type
REMARK                         _______ _______ _______ _____ _____    ______ ____
ROOT
ATOM      1  S   UNL     1       1.230   9.805  18.897  0.00  0.00    +0.000 S 
ATOM      2  O   UNL     1       2.093  10.934  18.739  0.00  0.00    +0.000 OA
ATOM      3  O   UNL     1       1.165   9.099  20.179  0.00  0.00    +0.000 OA
ENDROOT
BRANCH   1  11
ATOM      4  C   UNL     1      -1.124  11.244  19.349  0.00  0.00    +0.000 A 
ATOM      5  C   UNL     1      -2.404  11.614  18.919  0.00  0.00    +0.000 A 
ATOM      6  C   UNL     1      -2.970  11.097  17.738  0.00  0.00    +0.000 A 
ATOM      7  C   UNL     1      -4.322  11.561  17.297  0.00  0.00    +0.000 C 
ATOM      8  C   UNL     1      -2.242  10.179  16.983  0.00  0.00    +0.000 A 
ATOM      9 CL   UNL     1      -2.843   9.506  15.515  0.00  0.00    +0.000 Cl
ATOM     10  C   UNL     1      -0.978   9.801  17.394  0.00  0.00    +0.000 A 
ATOM     11  C   UNL     1      -0.413  10.348  18.555  0.00  0.00    +0.000 A 
BRANCH   4  12
ATOM     12  O   UNL     1      -0.537  11.777  20.465  0.00  0.00    +0.000 OA
BRANCH  12  14
ATOM     13  C   UNL     1       0.505  13.852  19.907  0.00  0.00    +0.000 C 
ATOM     14  C   UNL     1      -0.660  13.197  20.617  0.00  0.00    +0.000 C 
ENDBRANCH  12  14
ENDBRANCH   4  12
ENDBRANCH   1  11
BRANCH   1  15
ATOM     15  N   UNL     1       1.644   8.658  17.726  0.00  0.00    +0.000 NA
ATOM     16  H   UNL     1       1.784   9.098  16.816  0.00  0.00    +0.000 HD
BRANCH  15  17
ATOM     17  C   UNL     1       2.560   7.534  18.070  0.00  0.00    +0.000 C 
ATOM     18  C   UNL     1       3.638   7.410  16.994  0.00  0.00    +0.000 C 
ATOM     19  C   UNL     1       4.553   6.187  17.146  0.00  0.00    +0.000 C 
ATOM     20  C   UNL     1       5.288   6.023  15.792  0.00  0.00    +0.000 C 
ATOM     21  C   UNL     1       5.638   6.403  18.216  0.00  0.00    +0.000 C 
ATOM     22  N   UNL     1       3.762   4.969  17.360  0.00  0.00    +0.000 NA
ATOM     23  C   UNL     1       2.668   4.992  18.339  0.00  0.00    +0.000 C 
ATOM     24  C   UNL     1       1.776   3.766  18.032  0.00  0.00    +0.000 C 
ATOM     25  C   UNL     1       3.169   4.827  19.785  0.00  0.00    +0.000 C 
ATOM     26  C   UNL     1       1.779   6.235  18.194  0.00  0.00    +0.000 C 
ATOM     27  H   UNL     1       4.361   4.154  17.488  0.00  0.00    +0.000 HD
ENDBRANCH  15  17
ENDBRANCH   1  15
TORSDOF 5
ENDMDL
MODEL 9
REMARK VINA RESULT:      -6.3      4.658      9.190
REMARK  Name = 
REMARK  11 active torsions:
REMARK  status: ('A' for Active; 'I' for Inactive)
REMARK    1  A    between atoms: C_1  and  C_2
REMARK    2  A    between atoms: C_2  and  O_3
REMARK    3  A    between atoms: O_3  and  C_4
REMARK    4  A    between atoms: C_6  and  C_7
REMARK    5  A    between atoms: C_11  and  S_12
REMARK    6  A    between atoms: S_12  and  N_15
REMARK    7  A    between atoms: N_15  and  C_16
REMARK    8  A    between atoms: C_18  and  C_19
REMARK    9  A    between atoms: C_18  and  C_20
REMARK   10  A    between atoms: C_22  and  C_23
REMARK   11  A    between atoms: C_22  and  C_24
REMARK                            x       y       z     vdW  Elec       q    Type
REMARK                         _______ _______ _______ _____ _____    ______ ____
ROOT
ATOM      1  S   UNL     1      -1.129  12.232  20.752  0.00  0.00    +0.000 S 
ATOM      2  O   UNL     1      -1.234  11.240  21.776  0.00  0.00    +0.000 OA
ATOM      3  O   UNL     1       0.148  12.905  20.504  0.00  0.00    +0.000 OA
ENDROOT
BRANCH   1  11
ATOM      4  C   UNL     1      -0.813  10.499  18.581  0.00  0.00    +0.000 A 
ATOM      5  C   UNL     1      -1.328   9.950  17.401  0.00  0.00    +0.000 A 
ATOM      6  C   UNL     1      -2.567  10.358  16.870  0.00  0.00    +0.000 A 
ATOM      7  C   UNL     1      -3.095   9.705  15.631  0.00  0.00    +0.000 C 
ATOM      8  C   UNL     1      -3.294  11.348  17.529  0.00  0.00    +0.000 A 
ATOM      9 CL   UNL     1      -4.826  11.898  16.966  0.00  0.00    +0.000 Cl
ATOM     10  C   UNL     1      -2.799  11.902  18.694  0.00  0.00    +0.000 A 
ATOM     11  C   UNL     1      -1.579  11.464  19.229  0.00  0.00    +0.000 A 
BRANCH   4  12
ATOM     12  O   UNL     1       0.363  10.077  19.140  0.00  0.00    +0.000 OA
BRANCH  12  14
ATOM     13  C   UNL     1       2.031   8.655  18.190  0.00  0.00    +0.000 C 
ATOM     14  C   UNL     1       1.502  10.072  18.269  0.00  0.00    +0.000 C 
ENDBRANCH  12  14
ENDBRANCH   4  12
ENDBRANCH   1  11
BRANCH   1  15
ATOM     15  N   UNL     1      -2.267  13.441  21.072  0.00  0.00    +0.000 NA
ATOM     16  H   UNL     1      -2.921  13.543  20.296  0.00  0.00    +0.000 HD
BRANCH  15  17
ATOM     17  C   UNL     1      -2.832  13.594  22.443  0.00  0.00    +0.000 C 
ATOM     18  C   UNL     1      -4.243  13.010  22.479  0.00  0.00    +0.000 C 
ATOM     19  C   UNL     1      -4.998  13.248  23.794  0.00  0.00    +0.000 C 
ATOM     20  C   UNL     1      -6.489  12.948  23.500  0.00  0.00    +0.000 C 
ATOM     21  C   UNL     1      -4.560  12.272  24.900  0.00  0.00    +0.000 C 
ATOM     22  N   UNL     1      -4.911  14.658  24.196  0.00  0.00    +0.000 NA
ATOM     23  C   UNL     1      -3.607  15.333  24.153  0.00  0.00    +0.000 C 
ATOM     24  C   UNL     1      -3.896  16.851  24.196  0.00  0.00    +0.000 C 
ATOM     25  C   UNL     1      -2.737  15.009  25.380  0.00  0.00    +0.000 C 
ATOM     26  C   UNL     1      -2.851  15.061  22.845  0.00  0.00    +0.000 C 
ATOM     27  H   UNL     1      -5.387  14.822  25.082  0.00  0.00    +0.000 HD
ENDBRANCH  15  17
ENDBRANCH   1  15
TORSDOF 5
ENDMDL
