MODEL 1
REMARK VINA RESULT:      -7.2      0.000      0.000
REMARK  Name = 
REMARK  11 active torsions:
REMARK  status: ('A' for Active; 'I' for Inactive)
REMARK    1  A    between atoms: C_1  and  O_2
REMARK    2  A    between atoms: O_2  and  C_3
REMARK    3  A    between atoms: C_3  and  C_5
REMARK    4  A    between atoms: C_8  and  C_9
REMARK    5  A    between atoms: N_11  and  C_12
REMARK    6  A    between atoms: C_21  and  C_22
REMARK    7  A    between atoms: C_22  and  N_23
REMARK    8  A    between atoms: N_23  and  C_24
REMARK    9  A    between atoms: C_24  and  C_25
REMARK   10  A    between atoms: C_25  and  N_26
REMARK   11  A    between atoms: N_29  and  C_30
REMARK                            x       y       z     vdW  Elec       q    Type
REMARK                         _______ _______ _______ _____ _____    ______ ____
ROOT
ATOM      1  C   UNL     1       0.643  10.944  18.879  0.00  0.00    +0.000 A 
ATOM      2  N   UNL     1       1.335  12.052  19.178  0.00  0.00    +0.000 NA
ATOM      3  N   UNL     1       0.494  13.090  18.939  0.00  0.00    +0.000 N 
ATOM      4  C   UNL     1      -0.715  12.642  18.481  0.00  0.00    +0.000 A 
ATOM      5  C   UNL     1      -0.667  11.265  18.400  0.00  0.00    +0.000 A 
ENDROOT
BRANCH   3   6
ATOM      6  C   UNL     1       0.907  14.434  19.179  0.00  0.00    +0.000 A 
ATOM      7  C   UNL     1       0.196  15.233  20.093  0.00  0.00    +0.000 A 
ATOM      8  C   UNL     1       0.579  16.562  20.311  0.00  0.00    +0.000 A 
ATOM      9  C   UNL     1       1.661  17.092  19.616  0.00  0.00    +0.000 A 
ATOM     10  F   UNL     1       2.014  18.368  19.812  0.00  0.00    +0.000 F 
ATOM     11  C   UNL     1       2.380  16.316  18.722  0.00  0.00    +0.000 A 
ATOM     12  C   UNL     1       2.006  14.992  18.512  0.00  0.00    +0.000 A 
ATOM     13  F   UNL     1       2.741  14.296  17.636  0.00  0.00    +0.000 F 
ENDBRANCH   3   6
BRANCH   1  17
ATOM     14  C   UNL     1       2.390   7.063  19.411  0.00  0.00    +0.000 A 
ATOM     15  C   UNL     1       2.493   7.727  18.184  0.00  0.00    +0.000 A 
ATOM     16  C   UNL     1       1.929   8.999  18.017  0.00  0.00    +0.000 A 
ATOM     17  C   UNL     1       1.235   9.611  19.069  0.00  0.00    +0.000 A 
ATOM     18  C   UNL     1       1.136   8.930  20.288  0.00  0.00    +0.000 A 
ATOM     19  C   UNL     1       1.719   7.672  20.470  0.00  0.00    +0.000 A 
BRANCH  14  20
ATOM     20  C   UNL     1       3.000   5.715  19.533  0.00  0.00    +0.000 C 
ATOM     21  O   UNL     1       4.204   5.520  19.498  0.00  0.00    +0.000 OA
BRANCH  20  23
ATOM     22  C   UNL     1       1.722   4.102  18.460  0.00  0.00    +0.000 C 
ATOM     23  O   UNL     1       2.052   4.761  19.681  0.00  0.00    +0.000 OA
ENDBRANCH  20  23
ENDBRANCH  14  20
ENDBRANCH   1  17
BRANCH   5  24
ATOM     24  C   UNL     1      -1.733  10.316  17.961  0.00  0.00    +0.000 C 
BRANCH  24  25
ATOM     25  N   UNL     1      -2.031  10.479  16.541  0.00  0.00    +0.000 NA
ATOM     26  H   UNL     1      -2.118   9.547  16.135  0.00  0.00    +0.000 HD
BRANCH  25  27
ATOM     27  C   UNL     1      -3.304  11.188  16.322  0.00  0.00    +0.000 C 
BRANCH  27  28
ATOM     28  C   UNL     1      -4.438  10.736  17.273  0.00  0.00    +0.000 C 
BRANCH  28  29
ATOM     29  N   UNL     1      -5.195  11.832  17.902  0.00  0.00    +0.000 NA
ATOM     30  C   UNL     1      -4.650  12.220  19.220  0.00  0.00    +0.000 C 
ATOM     31  C   UNL     1      -5.507  13.311  19.915  0.00  0.00    +0.000 C 
ATOM     32  N   UNL     1      -6.947  13.009  20.034  0.00  0.00    +0.000 NA
ATOM     33  C   UNL     1      -7.212  12.015  21.073  0.00  0.00    +0.000 C 
ATOM     34  C   UNL     1      -7.448  12.557  18.722  0.00  0.00    +0.000 C 
ATOM     35  C   UNL     1      -6.610  11.432  18.074  0.00  0.00    +0.000 C 
ENDBRANCH  28  29
ENDBRANCH  27  28
ENDBRANCH  25  27
ENDBRANCH  24  25
ENDBRANCH   5  24
TORSDOF 9
ENDMDL
MODEL 2
REMARK VINA RESULT:      -7.2      3.022      5.471
REMARK  Name = 
REMARK  11 active torsions:
REMARK  status: ('A' for Active; 'I' for Inactive)
REMARK    1  A    between atoms: C_1  and  O_2
REMARK    2  A    between atoms: O_2  and  C_3
REMARK    3  A    between atoms: C_3  and  C_5
REMARK    4  A    between atoms: C_8  and  C_9
REMARK    5  A    between atoms: N_11  and  C_12
REMARK    6  A    between atoms: C_21  and  C_22
REMARK    7  A    between atoms: C_22  and  N_23
REMARK    8  A    between atoms: N_23  and  C_24
REMARK    9  A    between atoms: C_24  and  C_25
REMARK   10  A    between atoms: C_25  and  N_26
REMARK   11  A    between atoms: N_29  and  C_30
REMARK                            x       y       z     vdW  Elec       q    Type
REMARK                         _______ _______ _______ _____ _____    ______ ____
ROOT
ATOM      1  C   UNL     1       0.122  10.473  18.765  0.00  0.00    +0.000 A 
ATOM      2  N   UNL     1      -1.211  10.336  18.728  0.00  0.00    +0.000 NA
ATOM      3  N   UNL     1      -1.705  11.581  18.514  0.00  0.00    +0.000 N 
ATOM      4  C   UNL     1      -0.693  12.499  18.429  0.00  0.00    +0.000 A 
ATOM      5  C   UNL     1       0.507  11.842  18.608  0.00  0.00    +0.000 A 
ENDROOT
BRANCH   3   6
ATOM      6  C   UNL     1      -3.109  11.799  18.394  0.00  0.00    +0.000 A 
ATOM      7  C   UNL     1      -3.846  12.255  19.503  0.00  0.00    +0.000 A 
ATOM      8  C   UNL     1      -5.229  12.444  19.398  0.00  0.00    +0.000 A 
ATOM      9  C   UNL     1      -5.875  12.173  18.197  0.00  0.00    +0.000 A 
ATOM     10  F   UNL     1      -7.199  12.336  18.104  0.00  0.00    +0.000 F 
ATOM     11  C   UNL     1      -5.164  11.736  17.091  0.00  0.00    +0.000 A 
ATOM     12  C   UNL     1      -3.787  11.558  17.191  0.00  0.00    +0.000 A 
ATOM     13  F   UNL     1      -3.158  11.134  16.087  0.00  0.00    +0.000 F 
ENDBRANCH   3   6
BRANCH   1  17
ATOM     14  C   UNL     1       2.683   7.063  19.229  0.00  0.00    +0.000 A 
ATOM     15  C   UNL     1       2.540   7.680  17.983  0.00  0.00    +0.000 A 
ATOM     16  C   UNL     1       1.710   8.800  17.837  0.00  0.00    +0.000 A 
ATOM     17  C   UNL     1       0.995   9.300  18.933  0.00  0.00    +0.000 A 
ATOM     18  C   UNL     1       1.144   8.666  20.173  0.00  0.00    +0.000 A 
ATOM     19  C   UNL     1       1.991   7.565  20.331  0.00  0.00    +0.000 A 
BRANCH  14  20
ATOM     20  C   UNL     1       3.570   5.877  19.327  0.00  0.00    +0.000 C 
ATOM     21  O   UNL     1       3.369   4.952  20.097  0.00  0.00    +0.000 OA
BRANCH  20  23
ATOM     22  C   UNL     1       5.682   5.085  18.778  0.00  0.00    +0.000 C 
ATOM     23  O   UNL     1       4.609   5.971  18.465  0.00  0.00    +0.000 OA
ENDBRANCH  20  23
ENDBRANCH  14  20
ENDBRANCH   1  17
BRANCH   5  24
ATOM     24  C   UNL     1       1.891  12.402  18.601  0.00  0.00    +0.000 C 
BRANCH  24  25
ATOM     25  N   UNL     1       1.938  13.699  19.269  0.00  0.00    +0.000 NA
ATOM     26  H   UNL     1       1.047  14.166  19.102  0.00  0.00    +0.000 HD
BRANCH  25  27
ATOM     27  C   UNL     1       2.110  13.562  20.726  0.00  0.00    +0.000 C 
BRANCH  27  28
ATOM     28  C   UNL     1       1.364  14.644  21.544  0.00  0.00    +0.000 C 
BRANCH  28  29
ATOM     29  N   UNL     1       0.421  14.122  22.549  0.00  0.00    +0.000 NA
ATOM     30  C   UNL     1      -0.423  13.027  22.027  0.00  0.00    +0.000 C 
ATOM     31  C   UNL     1      -1.473  12.547  23.064  0.00  0.00    +0.000 C 
ATOM     32  N   UNL     1      -2.323  13.605  23.645  0.00  0.00    +0.000 NA
ATOM     33  C   UNL     1      -3.338  14.071  22.702  0.00  0.00    +0.000 C 
ATOM     34  C   UNL     1      -1.460  14.715  24.094  0.00  0.00    +0.000 C 
ATOM     35  C   UNL     1      -0.459  15.213  23.027  0.00  0.00    +0.000 C 
ENDBRANCH  28  29
ENDBRANCH  27  28
ENDBRANCH  25  27
ENDBRANCH  24  25
ENDBRANCH   5  24
TORSDOF 9
ENDMDL
MODEL 3
REMARK VINA RESULT:      -7.2      2.622      5.905
REMARK  Name = 
REMARK  11 active torsions:
REMARK  status: ('A' for Active; 'I' for Inactive)
REMARK    1  A    between atoms: C_1  and  O_2
REMARK    2  A    between atoms: O_2  and  C_3
REMARK    3  A    between atoms: C_3  and  C_5
REMARK    4  A    between atoms: C_8  and  C_9
REMARK    5  A    between atoms: N_11  and  C_12
REMARK    6  A    between atoms: C_21  and  C_22
REMARK    7  A    between atoms: C_22  and  N_23
REMARK    8  A    between atoms: N_23  and  C_24
REMARK    9  A    between atoms: C_24  and  C_25
REMARK   10  A    between atoms: C_25  and  N_26
REMARK   11  A    between atoms: N_29  and  C_30
REMARK                            x       y       z     vdW  Elec       q    Type
REMARK                         _______ _______ _______ _____ _____    ______ ____
ROOT
ATOM      1  C   UNL     1       0.251  10.269  18.798  0.00  0.00    +0.000 A 
ATOM      2  N   UNL     1      -1.066  10.131  18.595  0.00  0.00    +0.000 NA
ATOM      3  N   UNL     1      -1.548  11.386  18.415  0.00  0.00    +0.000 N 
ATOM      4  C   UNL     1      -0.544  12.311  18.515  0.00  0.00    +0.000 A 
ATOM      5  C   UNL     1       0.635  11.647  18.784  0.00  0.00    +0.000 A 
ENDROOT
BRANCH   3   6
ATOM      6  C   UNL     1      -2.931  11.606  18.149  0.00  0.00    +0.000 A 
ATOM      7  C   UNL     1      -3.782  12.048  19.178  0.00  0.00    +0.000 A 
ATOM      8  C   UNL     1      -5.146  12.239  18.929  0.00  0.00    +0.000 A 
ATOM      9  C   UNL     1      -5.660  11.984  17.662  0.00  0.00    +0.000 A 
ATOM     10  F   UNL     1      -6.967  12.149  17.431  0.00  0.00    +0.000 F 
ATOM     11  C   UNL     1      -4.835  11.560  16.633  0.00  0.00    +0.000 A 
ATOM     12  C   UNL     1      -3.476  11.380  16.878  0.00  0.00    +0.000 A 
ATOM     13  F   UNL     1      -2.733  10.970  15.841  0.00  0.00    +0.000 F 
ENDBRANCH   3   6
BRANCH   1  17
ATOM     14  C   UNL     1       2.782   6.843  19.309  0.00  0.00    +0.000 A 
ATOM     15  C   UNL     1       2.682   7.474  18.065  0.00  0.00    +0.000 A 
ATOM     16  C   UNL     1       1.862   8.599  17.904  0.00  0.00    +0.000 A 
ATOM     17  C   UNL     1       1.114   9.091  18.981  0.00  0.00    +0.000 A 
ATOM     18  C   UNL     1       1.220   8.444  20.219  0.00  0.00    +0.000 A 
ATOM     19  C   UNL     1       2.057   7.338  20.393  0.00  0.00    +0.000 A 
BRANCH  14  20
ATOM     20  C   UNL     1       3.661   5.653  19.424  0.00  0.00    +0.000 C 
ATOM     21  O   UNL     1       4.812   5.628  19.019  0.00  0.00    +0.000 OA
BRANCH  20  23
ATOM     22  C   UNL     1       2.299   3.799  19.106  0.00  0.00    +0.000 C 
ATOM     23  O   UNL     1       3.015   4.625  20.023  0.00  0.00    +0.000 OA
ENDBRANCH  20  23
ENDBRANCH  14  20
ENDBRANCH   1  17
BRANCH   5  24
ATOM     24  C   UNL     1       2.004  12.213  18.978  0.00  0.00    +0.000 C 
BRANCH  24  25
ATOM     25  N   UNL     1       2.478  12.872  17.765  0.00  0.00    +0.000 NA
ATOM     26  H   UNL     1       1.736  12.807  17.068  0.00  0.00    +0.000 HD
BRANCH  25  27
ATOM     27  C   UNL     1       2.762  14.301  17.990  0.00  0.00    +0.000 C 
BRANCH  27  28
ATOM     28  C   UNL     1       2.764  14.706  19.483  0.00  0.00    +0.000 C 
BRANCH  28  29
ATOM     29  N   UNL     1       1.951  15.892  19.806  0.00  0.00    +0.000 NA
ATOM     30  C   UNL     1       0.522  15.569  20.004  0.00  0.00    +0.000 C 
ATOM     31  C   UNL     1      -0.340  16.834  20.253  0.00  0.00    +0.000 C 
ATOM     32  N   UNL     1      -0.200  17.907  19.248  0.00  0.00    +0.000 NA
ATOM     33  C   UNL     1      -0.886  17.579  18.000  0.00  0.00    +0.000 C 
ATOM     34  C   UNL     1       1.236  18.160  19.019  0.00  0.00    +0.000 C 
ATOM     35  C   UNL     1       2.065  16.891  18.719  0.00  0.00    +0.000 C 
ENDBRANCH  28  29
ENDBRANCH  27  28
ENDBRANCH  25  27
ENDBRANCH  24  25
ENDBRANCH   5  24
TORSDOF 9
ENDMDL
MODEL 4
REMARK VINA RESULT:      -7.1      2.971      5.186
REMARK  Name = 
REMARK  11 active torsions:
REMARK  status: ('A' for Active; 'I' for Inactive)
REMARK    1  A    between atoms: C_1  and  O_2
REMARK    2  A    between atoms: O_2  and  C_3
REMARK    3  A    between atoms: C_3  and  C_5
REMARK    4  A    between atoms: C_8  and  C_9
REMARK    5  A    between atoms: N_11  and  C_12
REMARK    6  A    between atoms: C_21  and  C_22
REMARK    7  A    between atoms: C_22  and  N_23
REMARK    8  A    between atoms: N_23  and  C_24
REMARK    9  A    between atoms: C_24  and  C_25
REMARK   10  A    between atoms: C_25  and  N_26
REMARK   11  A    between atoms: N_29  and  C_30
REMARK                            x       y       z     vdW  Elec       q    Type
REMARK                         _______ _______ _______ _____ _____    ______ ____
ROOT
ATOM      1  C   UNL     1      -0.028  10.458  19.022  0.00  0.00    +0.000 A 
ATOM      2  N   UNL     1      -1.325  10.290  18.731  0.00  0.00    +0.000 NA
ATOM      3  N   UNL     1      -1.859  11.536  18.685  0.00  0.00    +0.000 N 
ATOM      4  C   UNL     1      -0.909  12.483  18.956  0.00  0.00    +0.000 A 
ATOM      5  C   UNL     1       0.287  11.841  19.205  0.00  0.00    +0.000 A 
ENDROOT
BRANCH   3   6
ATOM      6  C   UNL     1      -3.237  11.729  18.373  0.00  0.00    +0.000 A 
ATOM      7  C   UNL     1      -4.122  12.194  19.363  0.00  0.00    +0.000 A 
ATOM      8  C   UNL     1      -5.481  12.358  19.069  0.00  0.00    +0.000 A 
ATOM      9  C   UNL     1      -5.955  12.054  17.798  0.00  0.00    +0.000 A 
ATOM     10  F   UNL     1      -7.258  12.194  17.525  0.00  0.00    +0.000 F 
ATOM     11  C   UNL     1      -5.096  11.607  16.807  0.00  0.00    +0.000 A 
ATOM     12  C   UNL     1      -3.743  11.453  17.096  0.00  0.00    +0.000 A 
ATOM     13  F   UNL     1      -2.966  11.018  16.095  0.00  0.00    +0.000 F 
ENDBRANCH   3   6
BRANCH   1  17
ATOM     14  C   UNL     1       2.639   7.104  19.231  0.00  0.00    +0.000 A 
ATOM     15  C   UNL     1       2.425   7.768  18.019  0.00  0.00    +0.000 A 
ATOM     16  C   UNL     1       1.561   8.869  17.956  0.00  0.00    +0.000 A 
ATOM     17  C   UNL     1       0.882   9.304  19.102  0.00  0.00    +0.000 A 
ATOM     18  C   UNL     1       1.103   8.624  20.307  0.00  0.00    +0.000 A 
ATOM     19  C   UNL     1       1.985   7.542  20.381  0.00  0.00    +0.000 A 
BRANCH  14  20
ATOM     20  C   UNL     1       3.561   5.941  19.241  0.00  0.00    +0.000 C 
ATOM     21  O   UNL     1       4.607   5.909  18.613  0.00  0.00    +0.000 OA
BRANCH  20  23
ATOM     22  C   UNL     1       2.317   3.982  19.303  0.00  0.00    +0.000 C 
ATOM     23  O   UNL     1       3.083   4.945  20.024  0.00  0.00    +0.000 OA
ENDBRANCH  20  23
ENDBRANCH  14  20
ENDBRANCH   1  17
BRANCH   5  24
ATOM     24  C   UNL     1       1.615  12.435  19.543  0.00  0.00    +0.000 C 
BRANCH  24  25
ATOM     25  N   UNL     1       1.672  12.834  20.946  0.00  0.00    +0.000 NA
ATOM     26  H   UNL     1       2.623  12.670  21.276  0.00  0.00    +0.000 HD
BRANCH  25  27
ATOM     27  C   UNL     1       1.371  14.265  21.126  0.00  0.00    +0.000 C 
BRANCH  27  28
ATOM     28  C   UNL     1       0.372  14.551  22.274  0.00  0.00    +0.000 C 
BRANCH  28  29
ATOM     29  N   UNL     1      -0.980  14.003  22.071  0.00  0.00    +0.000 NA
ATOM     30  C   UNL     1      -2.045  14.980  22.380  0.00  0.00    +0.000 C 
ATOM     31  C   UNL     1      -3.464  14.367  22.251  0.00  0.00    +0.000 C 
ATOM     32  N   UNL     1      -3.689  13.120  23.009  0.00  0.00    +0.000 NA
ATOM     33  C   UNL     1      -3.832  13.369  24.442  0.00  0.00    +0.000 C 
ATOM     34  C   UNL     1      -2.576  12.190  22.736  0.00  0.00    +0.000 C 
ATOM     35  C   UNL     1      -1.172  12.808  22.923  0.00  0.00    +0.000 C 
ENDBRANCH  28  29
ENDBRANCH  27  28
ENDBRANCH  25  27
ENDBRANCH  24  25
ENDBRANCH   5  24
TORSDOF 9
ENDMDL
MODEL 5
REMARK VINA RESULT:      -7.1      1.268      1.804
REMARK  Name = 
REMARK  11 active torsions:
REMARK  status: ('A' for Active; 'I' for Inactive)
REMARK    1  A    between atoms: C_1  and  O_2
REMARK    2  A    between atoms: O_2  and  C_3
REMARK    3  A    between atoms: C_3  and  C_5
REMARK    4  A    between atoms: C_8  and  C_9
REMARK    5  A    between atoms: N_11  and  C_12
REMARK    6  A    between atoms: C_21  and  C_22
REMARK    7  A    between atoms: C_22  and  N_23
REMARK    8  A    between atoms: N_23  and  C_24
REMARK    9  A    between atoms: C_24  and  C_25
REMARK   10  A    between atoms: C_25  and  N_26
REMARK   11  A    between atoms: N_29  and  C_30
REMARK                            x       y       z     vdW  Elec       q    Type
REMARK                         _______ _______ _______ _____ _____    ______ ____
ROOT
ATOM      1  C   UNL     1       0.417  10.908  19.061  0.00  0.00    +0.000 A 
ATOM      2  N   UNL     1       0.900  11.960  19.737  0.00  0.00    +0.000 NA
ATOM      3  N   UNL     1      -0.042  12.930  19.635  0.00  0.00    +0.000 N 
ATOM      4  C   UNL     1      -1.107  12.499  18.892  0.00  0.00    +0.000 A 
ATOM      5  C   UNL     1      -0.853  11.208  18.475  0.00  0.00    +0.000 A 
ENDROOT
BRANCH   3   6
ATOM      6  C   UNL     1       0.140  14.195  20.268  0.00  0.00    +0.000 A 
ATOM      7  C   UNL     1       0.544  14.254  21.615  0.00  0.00    +0.000 A 
ATOM      8  C   UNL     1       0.697  15.492  22.249  0.00  0.00    +0.000 A 
ATOM      9  C   UNL     1       0.442  16.665  21.547  0.00  0.00    +0.000 A 
ATOM     10  F   UNL     1       0.570  17.847  22.160  0.00  0.00    +0.000 F 
ATOM     11  C   UNL     1       0.056  16.627  20.217  0.00  0.00    +0.000 A 
ATOM     12  C   UNL     1      -0.087  15.396  19.583  0.00  0.00    +0.000 A 
ATOM     13  F   UNL     1      -0.462  15.427  18.297  0.00  0.00    +0.000 F 
ENDBRANCH   3   6
BRANCH   1  17
ATOM     14  C   UNL     1       2.580   7.206  18.913  0.00  0.00    +0.000 A 
ATOM     15  C   UNL     1       1.884   7.578  20.068  0.00  0.00    +0.000 A 
ATOM     16  C   UNL     1       1.171   8.783  20.110  0.00  0.00    +0.000 A 
ATOM     17  C   UNL     1       1.165   9.642  19.003  0.00  0.00    +0.000 A 
ATOM     18  C   UNL     1       1.872   9.258  17.856  0.00  0.00    +0.000 A 
ATOM     19  C   UNL     1       2.564   8.045  17.799  0.00  0.00    +0.000 A 
BRANCH  14  20
ATOM     20  C   UNL     1       3.323   5.922  18.924  0.00  0.00    +0.000 C 
ATOM     21  O   UNL     1       4.533   5.847  18.778  0.00  0.00    +0.000 OA
BRANCH  20  23
ATOM     22  C   UNL     1       1.867   4.427  17.908  0.00  0.00    +0.000 C 
ATOM     23  O   UNL     1       2.487   4.874  19.112  0.00  0.00    +0.000 OA
ENDBRANCH  20  23
ENDBRANCH  14  20
ENDBRANCH   1  17
BRANCH   5  24
ATOM     24  C   UNL     1      -1.708  10.307  17.646  0.00  0.00    +0.000 C 
BRANCH  24  25
ATOM     25  N   UNL     1      -2.269  11.019  16.502  0.00  0.00    +0.000 NA
ATOM     26  H   UNL     1      -1.760  10.716  15.671  0.00  0.00    +0.000 HD
BRANCH  25  27
ATOM     27  C   UNL     1      -3.694  10.702  16.299  0.00  0.00    +0.000 C 
BRANCH  27  28
ATOM     28  C   UNL     1      -4.656  11.731  16.941  0.00  0.00    +0.000 C 
BRANCH  28  29
ATOM     29  N   UNL     1      -5.113  11.390  18.300  0.00  0.00    +0.000 NA
ATOM     30  C   UNL     1      -6.538  10.999  18.343  0.00  0.00    +0.000 C 
ATOM     31  C   UNL     1      -7.033  10.731  19.788  0.00  0.00    +0.000 C 
ATOM     32  N   UNL     1      -6.778  11.814  20.759  0.00  0.00    +0.000 NA
ATOM     33  C   UNL     1      -7.683  12.946  20.565  0.00  0.00    +0.000 C 
ATOM     34  C   UNL     1      -5.367  12.232  20.645  0.00  0.00    +0.000 C 
ATOM     35  C   UNL     1      -4.912  12.546  19.203  0.00  0.00    +0.000 C 
ENDBRANCH  28  29
ENDBRANCH  27  28
ENDBRANCH  25  27
ENDBRANCH  24  25
ENDBRANCH   5  24
TORSDOF 9
ENDMDL
MODEL 6
REMARK VINA RESULT:      -7.0      4.990      8.845
REMARK  Name = 
REMARK  11 active torsions:
REMARK  status: ('A' for Active; 'I' for Inactive)
REMARK    1  A    between atoms: C_1  and  O_2
REMARK    2  A    between atoms: O_2  and  C_3
REMARK    3  A    between atoms: C_3  and  C_5
REMARK    4  A    between atoms: C_8  and  C_9
REMARK    5  A    between atoms: N_11  and  C_12
REMARK    6  A    between atoms: C_21  and  C_22
REMARK    7  A    between atoms: C_22  and  N_23
REMARK    8  A    between atoms: N_23  and  C_24
REMARK    9  A    between atoms: C_24  and  C_25
REMARK   10  A    between atoms: C_25  and  N_26
REMARK   11  A    between atoms: N_29  and  C_30
REMARK                            x       y       z     vdW  Elec       q    Type
REMARK                         _______ _______ _______ _____ _____    ______ ____
ROOT
ATOM      1  C   UNL     1       1.256   8.679  19.861  0.00  0.00    +0.000 A 
ATOM      2  N   UNL     1       1.653   7.474  20.293  0.00  0.00    +0.000 NA
ATOM      3  N   UNL     1       2.424   6.960  19.302  0.00  0.00    +0.000 N 
ATOM      4  C   UNL     1       2.503   7.828  18.247  0.00  0.00    +0.000 A 
ATOM      5  C   UNL     1       1.749   8.945  18.544  0.00  0.00    +0.000 A 
ENDROOT
BRANCH   3   6
ATOM      6  C   UNL     1       3.038   5.681  19.443  0.00  0.00    +0.000 A 
ATOM      7  C   UNL     1       2.357   4.646  20.110  0.00  0.00    +0.000 A 
ATOM      8  C   UNL     1       2.967   3.396  20.276  0.00  0.00    +0.000 A 
ATOM      9  C   UNL     1       4.250   3.183  19.785  0.00  0.00    +0.000 A 
ATOM     10  F   UNL     1       4.839   1.994  19.961  0.00  0.00    +0.000 F 
ATOM     11  C   UNL     1       4.931   4.186  19.115  0.00  0.00    +0.000 A 
ATOM     12  C   UNL     1       4.321   5.426  18.941  0.00  0.00    +0.000 A 
ATOM     13  F   UNL     1       5.031   6.352  18.285  0.00  0.00    +0.000 F 
ENDBRANCH   3   6
BRANCH   1  17
ATOM     14  C   UNL     1      -1.119  11.219  22.372  0.00  0.00    +0.000 A 
ATOM     15  C   UNL     1      -0.308  10.226  22.929  0.00  0.00    +0.000 A 
ATOM     16  C   UNL     1       0.475   9.405  22.107  0.00  0.00    +0.000 A 
ATOM     17  C   UNL     1       0.435   9.552  20.714  0.00  0.00    +0.000 A 
ATOM     18  C   UNL     1      -0.388  10.547  20.172  0.00  0.00    +0.000 A 
ATOM     19  C   UNL     1      -1.150  11.387  20.988  0.00  0.00    +0.000 A 
BRANCH  14  20
ATOM     20  C   UNL     1      -1.932  12.058  23.287  0.00  0.00    +0.000 C 
ATOM     21  O   UNL     1      -3.081  11.791  23.599  0.00  0.00    +0.000 OA
BRANCH  20  23
ATOM     22  C   UNL     1      -1.878  14.376  23.421  0.00  0.00    +0.000 C 
ATOM     23  O   UNL     1      -1.232  13.137  23.712  0.00  0.00    +0.000 OA
ENDBRANCH  20  23
ENDBRANCH  14  20
ENDBRANCH   1  17
BRANCH   5  24
ATOM     24  C   UNL     1       1.522  10.168  17.718  0.00  0.00    +0.000 C 
BRANCH  24  25
ATOM     25  N   UNL     1       2.490  11.211  18.045  0.00  0.00    +0.000 NA
ATOM     26  H   UNL     1       3.077  11.356  17.224  0.00  0.00    +0.000 HD
BRANCH  25  27
ATOM     27  C   UNL     1       1.834  12.492  18.363  0.00  0.00    +0.000 C 
BRANCH  27  28
ATOM     28  C   UNL     1       2.334  13.136  19.678  0.00  0.00    +0.000 C 
BRANCH  28  29
ATOM     29  N   UNL     1       2.394  14.608  19.665  0.00  0.00    +0.000 NA
ATOM     30  C   UNL     1       1.290  15.219  18.896  0.00  0.00    +0.000 C 
ATOM     31  C   UNL     1       1.413  16.763  18.812  0.00  0.00    +0.000 C 
ATOM     32  N   UNL     1       2.710  17.272  18.322  0.00  0.00    +0.000 NA
ATOM     33  C   UNL     1       2.857  17.094  16.879  0.00  0.00    +0.000 C 
ATOM     34  C   UNL     1       3.795  16.594  19.058  0.00  0.00    +0.000 C 
ATOM     35  C   UNL     1       3.680  15.053  19.082  0.00  0.00    +0.000 C 
ENDBRANCH  28  29
ENDBRANCH  27  28
ENDBRANCH  25  27
ENDBRANCH  24  25
ENDBRANCH   5  24
TORSDOF 9
ENDMDL
MODEL 7
REMARK VINA RESULT:      -7.0      2.803      3.401
REMARK  Name = 
REMARK  11 active torsions:
REMARK  status: ('A' for Active; 'I' for Inactive)
REMARK    1  A    between atoms: C_1  and  O_2
REMARK    2  A    between atoms: O_2  and  C_3
REMARK    3  A    between atoms: C_3  and  C_5
REMARK    4  A    between atoms: C_8  and  C_9
REMARK    5  A    between atoms: N_11  and  C_12
REMARK    6  A    between atoms: C_21  and  C_22
REMARK    7  A    between atoms: C_22  and  N_23
REMARK    8  A    between atoms: N_23  and  C_24
REMARK    9  A    between atoms: C_24  and  C_25
REMARK   10  A    between atoms: C_25  and  N_26
REMARK   11  A    between atoms: N_29  and  C_30
REMARK                            x       y       z     vdW  Elec       q    Type
REMARK                         _______ _______ _______ _____ _____    ______ ____
ROOT
ATOM      1  C   UNL     1      -0.468  10.812  19.887  0.00  0.00    +0.000 A 
ATOM      2  N   UNL     1      -0.513  11.293  21.138  0.00  0.00    +0.000 NA
ATOM      3  N   UNL     1      -1.533  12.188  21.154  0.00  0.00    +0.000 N 
ATOM      4  C   UNL     1      -2.119  12.281  19.920  0.00  0.00    +0.000 A 
ATOM      5  C   UNL     1      -1.456  11.431  19.058  0.00  0.00    +0.000 A 
ENDROOT
BRANCH   3   6
ATOM      6  C   UNL     1      -1.879  12.879  22.352  0.00  0.00    +0.000 A 
ATOM      7  C   UNL     1      -3.102  12.607  22.991  0.00  0.00    +0.000 A 
ATOM      8  C   UNL     1      -3.459  13.303  24.151  0.00  0.00    +0.000 A 
ATOM      9  C   UNL     1      -2.604  14.271  24.668  0.00  0.00    +0.000 A 
ATOM     10  F   UNL     1      -2.956  14.949  25.767  0.00  0.00    +0.000 F 
ATOM     11  C   UNL     1      -1.390  14.543  24.059  0.00  0.00    +0.000 A 
ATOM     12  C   UNL     1      -1.030  13.844  22.911  0.00  0.00    +0.000 A 
ATOM     13  F   UNL     1       0.156  14.154  22.371  0.00  0.00    +0.000 F 
ENDBRANCH   3   6
BRANCH   1  17
ATOM     14  C   UNL     1       2.363   7.785  18.783  0.00  0.00    +0.000 A 
ATOM     15  C   UNL     1       1.941   8.738  17.850  0.00  0.00    +0.000 A 
ATOM     16  C   UNL     1       1.024   9.732  18.217  0.00  0.00    +0.000 A 
ATOM     17  C   UNL     1       0.500   9.768  19.516  0.00  0.00    +0.000 A 
ATOM     18  C   UNL     1       0.928   8.802  20.436  0.00  0.00    +0.000 A 
ATOM     19  C   UNL     1       1.863   7.825  20.083  0.00  0.00    +0.000 A 
BRANCH  14  20
ATOM     20  C   UNL     1       3.333   6.752  18.340  0.00  0.00    +0.000 C 
ATOM     21  O   UNL     1       4.008   6.856  17.329  0.00  0.00    +0.000 OA
BRANCH  20  23
ATOM     22  C   UNL     1       3.508   4.446  18.543  0.00  0.00    +0.000 C 
ATOM     23  O   UNL     1       3.355   5.704  19.197  0.00  0.00    +0.000 OA
ENDBRANCH  20  23
ENDBRANCH  14  20
ENDBRANCH   1  17
BRANCH   5  24
ATOM     24  C   UNL     1      -1.720  11.174  17.611  0.00  0.00    +0.000 C 
BRANCH  24  25
ATOM     25  N   UNL     1      -2.361   9.878  17.414  0.00  0.00    +0.000 NA
ATOM     26  H   UNL     1      -1.994   9.241  18.121  0.00  0.00    +0.000 HD
BRANCH  25  27
ATOM     27  C   UNL     1      -3.822   9.953  17.589  0.00  0.00    +0.000 C 
BRANCH  27  28
ATOM     28  C   UNL     1      -4.461  11.208  16.948  0.00  0.00    +0.000 C 
BRANCH  28  29
ATOM     29  N   UNL     1      -5.802  11.550  17.452  0.00  0.00    +0.000 NA
ATOM     30  C   UNL     1      -6.185  12.947  17.159  0.00  0.00    +0.000 C 
ATOM     31  C   UNL     1      -7.559  13.323  17.772  0.00  0.00    +0.000 C 
ATOM     32  N   UNL     1      -7.706  13.053  19.216  0.00  0.00    +0.000 NA
ATOM     33  C   UNL     1      -6.978  14.025  20.031  0.00  0.00    +0.000 C 
ATOM     34  C   UNL     1      -7.251  11.677  19.491  0.00  0.00    +0.000 C 
ATOM     35  C   UNL     1      -5.857  11.342  18.917  0.00  0.00    +0.000 C 
ENDBRANCH  28  29
ENDBRANCH  27  28
ENDBRANCH  25  27
ENDBRANCH  24  25
ENDBRANCH   5  24
TORSDOF 9
ENDMDL
MODEL 8
REMARK VINA RESULT:      -7.0      4.163      8.420
REMARK  Name = 
REMARK  11 active torsions:
REMARK  status: ('A' for Active; 'I' for Inactive)
REMARK    1  A    between atoms: C_1  and  O_2
REMARK    2  A    between atoms: O_2  and  C_3
REMARK    3  A    between atoms: C_3  and  C_5
REMARK    4  A    between atoms: C_8  and  C_9
REMARK    5  A    between atoms: N_11  and  C_12
REMARK    6  A    between atoms: C_21  and  C_22
REMARK    7  A    between atoms: C_22  and  N_23
REMARK    8  A    between atoms: N_23  and  C_24
REMARK    9  A    between atoms: C_24  and  C_25
REMARK   10  A    between atoms: C_25  and  N_26
REMARK   11  A    between atoms: N_29  and  C_30
REMARK                            x       y       z     vdW  Elec       q    Type
REMARK                         _______ _______ _______ _____ _____    ______ ____
ROOT
ATOM      1  C   UNL     1       0.360  11.948  18.798  0.00  0.00    +0.000 A 
ATOM      2  N   UNL     1      -0.855  12.465  18.563  0.00  0.00    +0.000 NA
ATOM      3  N   UNL     1      -1.682  11.404  18.391  0.00  0.00    +0.000 N 
ATOM      4  C   UNL     1      -0.994  10.226  18.503  0.00  0.00    +0.000 A 
ATOM      5  C   UNL     1       0.333  10.518  18.742  0.00  0.00    +0.000 A 
ENDROOT
BRANCH   3   6
ATOM      6  C   UNL     1      -3.073  11.596  18.143  0.00  0.00    +0.000 A 
ATOM      7  C   UNL     1      -3.919  12.021  19.183  0.00  0.00    +0.000 A 
ATOM      8  C   UNL     1      -5.290  12.184  18.953  0.00  0.00    +0.000 A 
ATOM      9  C   UNL     1      -5.816  11.917  17.694  0.00  0.00    +0.000 A 
ATOM     10  F   UNL     1      -7.129  12.054  17.480  0.00  0.00    +0.000 F 
ATOM     11  C   UNL     1      -4.996  11.509  16.654  0.00  0.00    +0.000 A 
ATOM     12  C   UNL     1      -3.631  11.357  16.880  0.00  0.00    +0.000 A 
ATOM     13  F   UNL     1      -2.894  10.961  15.834  0.00  0.00    +0.000 F 
ENDBRANCH   3   6
BRANCH   1  17
ATOM     14  C   UNL     1       3.711  14.483  19.661  0.00  0.00    +0.000 A 
ATOM     15  C   UNL     1       2.933  13.956  20.696  0.00  0.00    +0.000 A 
ATOM     16  C   UNL     1       1.845  13.119  20.411  0.00  0.00    +0.000 A 
ATOM     17  C   UNL     1       1.509  12.821  19.084  0.00  0.00    +0.000 A 
ATOM     18  C   UNL     1       2.294  13.363  18.059  0.00  0.00    +0.000 A 
ATOM     19  C   UNL     1       3.397  14.175  18.338  0.00  0.00    +0.000 A 
BRANCH  14  20
ATOM     20  C   UNL     1       4.849  15.366  20.018  0.00  0.00    +0.000 C 
ATOM     21  O   UNL     1       5.051  16.446  19.486  0.00  0.00    +0.000 OA
BRANCH  20  23
ATOM     22  C   UNL     1       7.001  14.793  20.672  0.00  0.00    +0.000 C 
ATOM     23  O   UNL     1       5.610  14.813  20.991  0.00  0.00    +0.000 OA
ENDBRANCH  20  23
ENDBRANCH  14  20
ENDBRANCH   1  17
BRANCH   5  24
ATOM     24  C   UNL     1       1.477   9.579  18.941  0.00  0.00    +0.000 C 
BRANCH  24  25
ATOM     25  N   UNL     1       1.992   9.097  17.663  0.00  0.00    +0.000 NA
ATOM     26  H   UNL     1       2.573   9.835  17.266  0.00  0.00    +0.000 HD
BRANCH  25  27
ATOM     27  C   UNL     1       2.832   7.897  17.824  0.00  0.00    +0.000 C 
BRANCH  27  28
ATOM     28  C   UNL     1       2.534   7.099  19.116  0.00  0.00    +0.000 C 
BRANCH  28  29
ATOM     29  N   UNL     1       2.933   5.681  19.076  0.00  0.00    +0.000 NA
ATOM     30  C   UNL     1       2.514   5.004  17.831  0.00  0.00    +0.000 C 
ATOM     31  C   UNL     1       2.858   3.491  17.837  0.00  0.00    +0.000 C 
ATOM     32  N   UNL     1       2.375   2.734  19.010  0.00  0.00    +0.000 NA
ATOM     33  C   UNL     1       0.934   2.496  18.950  0.00  0.00    +0.000 C 
ATOM     34  C   UNL     1       2.745   3.468  20.235  0.00  0.00    +0.000 C 
ATOM     35  C   UNL     1       2.344   4.960  20.228  0.00  0.00    +0.000 C 
ENDBRANCH  28  29
ENDBRANCH  27  28
ENDBRANCH  25  27
ENDBRANCH  24  25
ENDBRANCH   5  24
TORSDOF 9
ENDMDL
MODEL 9
REMARK VINA RESULT:      -7.0      5.167      9.123
REMARK  Name = 
REMARK  11 active torsions:
REMARK  status: ('A' for Active; 'I' for Inactive)
REMARK    1  A    between atoms: C_1  and  O_2
REMARK    2  A    between atoms: O_2  and  C_3
REMARK    3  A    between atoms: C_3  and  C_5
REMARK    4  A    between atoms: C_8  and  C_9
REMARK    5  A    between atoms: N_11  and  C_12
REMARK    6  A    between atoms: C_21  and  C_22
REMARK    7  A    between atoms: C_22  and  N_23
REMARK    8  A    between atoms: N_23  and  C_24
REMARK    9  A    between atoms: C_24  and  C_25
REMARK   10  A    between atoms: C_25  and  N_26
REMARK   11  A    between atoms: N_29  and  C_30
REMARK                            x       y       z     vdW  Elec       q    Type
REMARK                         _______ _______ _______ _____ _____    ______ ____
ROOT
ATOM      1  C   UNL     1       1.171   8.772  19.981  0.00  0.00    +0.000 A 
ATOM      2  N   UNL     1       1.558   7.577  20.449  0.00  0.00    +0.000 NA
ATOM      3  N   UNL     1       2.304   7.017  19.464  0.00  0.00    +0.000 N 
ATOM      4  C   UNL     1       2.378   7.847  18.377  0.00  0.00    +0.000 A 
ATOM      5  C   UNL     1       1.645   8.984  18.647  0.00  0.00    +0.000 A 
ENDROOT
BRANCH   3   6
ATOM      6  C   UNL     1       2.902   5.735  19.640  0.00  0.00    +0.000 A 
ATOM      7  C   UNL     1       4.225   5.514  19.217  0.00  0.00    +0.000 A 
ATOM      8  C   UNL     1       4.807   4.249  19.362  0.00  0.00    +0.000 A 
ATOM      9  C   UNL     1       4.071   3.209  19.918  0.00  0.00    +0.000 A 
ATOM     10  F   UNL     1       4.622   1.996  20.039  0.00  0.00    +0.000 F 
ATOM     11  C   UNL     1       2.771   3.411  20.351  0.00  0.00    +0.000 A 
ATOM     12  C   UNL     1       2.195   4.672  20.217  0.00  0.00    +0.000 A 
ATOM     13  F   UNL     1       0.936   4.802  20.655  0.00  0.00    +0.000 F 
ENDBRANCH   3   6
BRANCH   1  17
ATOM     14  C   UNL     1      -1.128  11.431  22.439  0.00  0.00    +0.000 A 
ATOM     15  C   UNL     1      -0.491  10.319  22.998  0.00  0.00    +0.000 A 
ATOM     16  C   UNL     1       0.268   9.458  22.193  0.00  0.00    +0.000 A 
ATOM     17  C   UNL     1       0.377   9.688  20.815  0.00  0.00    +0.000 A 
ATOM     18  C   UNL     1      -0.273  10.802  20.271  0.00  0.00    +0.000 A 
ATOM     19  C   UNL     1      -1.009  11.680  21.072  0.00  0.00    +0.000 A 
BRANCH  14  20
ATOM     20  C   UNL     1      -1.923  12.308  23.335  0.00  0.00    +0.000 C 
ATOM     21  O   UNL     1      -1.533  13.396  23.726  0.00  0.00    +0.000 OA
BRANCH  20  23
ATOM     22  C   UNL     1      -4.189  12.671  23.684  0.00  0.00    +0.000 C 
ATOM     23  O   UNL     1      -3.110  11.738  23.649  0.00  0.00    +0.000 OA
ENDBRANCH  20  23
ENDBRANCH  14  20
ENDBRANCH   1  17
BRANCH   5  24
ATOM     24  C   UNL     1       1.422  10.181  17.782  0.00  0.00    +0.000 C 
BRANCH  24  25
ATOM     25  N   UNL     1       2.493  11.159  17.949  0.00  0.00    +0.000 NA
ATOM     26  H   UNL     1       3.084  11.115  17.119  0.00  0.00    +0.000 HD
BRANCH  25  27
ATOM     27  C   UNL     1       1.972  12.533  18.061  0.00  0.00    +0.000 C 
BRANCH  27  28
ATOM     28  C   UNL     1       2.503  13.300  19.296  0.00  0.00    +0.000 C 
BRANCH  28  29
ATOM     29  N   UNL     1       2.663  14.752  19.104  0.00  0.00    +0.000 NA
ATOM     30  C   UNL     1       3.862  15.095  18.310  0.00  0.00    +0.000 C 
ATOM     31  C   UNL     1       4.071  16.628  18.191  0.00  0.00    +0.000 C 
ATOM     32  N   UNL     1       4.083  17.369  19.468  0.00  0.00    +0.000 NA
ATOM     33  C   UNL     1       5.330  17.167  20.205  0.00  0.00    +0.000 C 
ATOM     34  C   UNL     1       2.915  16.955  20.270  0.00  0.00    +0.000 C 
ATOM     35  C   UNL     1       2.758  15.425  20.419  0.00  0.00    +0.000 C 
ENDBRANCH  28  29
ENDBRANCH  27  28
ENDBRANCH  25  27
ENDBRANCH  24  25
ENDBRANCH   5  24
TORSDOF 9
ENDMDL
