MODEL 1
REMARK VINA RESULT:      -8.5      0.000      0.000
REMARK  Name = 
REMARK  8 active torsions:
REMARK  status: ('A' for Active; 'I' for Inactive)
REMARK    1  A    between atoms: C_1  and  C_2
REMARK    2  A    between atoms: C_2  and  C_3
REMARK    3  A    between atoms: C_3  and  C_4
REMARK    4  A    between atoms: C_4  and  S_5
REMARK    5  A    between atoms: S_5  and  C_6
REMARK    6  A    between atoms: N_12  and  C_13
REMARK    7  A    between atoms: C_13  and  C_14
REMARK    8  A    between atoms: C_14  and  C_15
REMARK                            x       y       z     vdW  Elec       q    Type
REMARK                         _______ _______ _______ _____ _____    ______ ____
ROOT
ATOM      1  C   UNL     1       2.249   8.043  18.745  0.00  0.00    +0.000 A 
ATOM      2  N   UNL     1       3.048   7.476  17.905  0.00  0.00    +0.000 NA
ATOM      3  C   UNL     1       3.261   6.129  18.009  0.00  0.00    +0.000 A 
ATOM      4  C   UNL     1       2.647   5.335  18.904  0.00  0.00    +0.000 A 
ATOM      5  C   UNL     1       1.849   6.032  19.937  0.00  0.00    +0.000 A 
ATOM      6  O   UNL     1       1.396   5.369  20.867  0.00  0.00    +0.000 OA
ATOM      7  N   UNL     1       1.655   7.393  19.815  0.00  0.00    +0.000 N 
ATOM      8  C   UNL     1       2.770   3.803  18.927  0.00  0.00    +0.000 C 
ATOM      9  C   UNL     1       3.840   3.349  19.953  0.00  0.00    +0.000 C 
ATOM     10  C   UNL     1       3.078   2.864  21.177  0.00  0.00    +0.000 C 
ATOM     11  C   UNL     1       1.800   2.266  20.621  0.00  0.00    +0.000 C 
ATOM     12  C   UNL     1       1.476   3.041  19.344  0.00  0.00    +0.000 C 
ATOM     13  C   UNL     1       3.135   3.305  17.503  0.00  0.00    +0.000 C 
ATOM     14  C   UNL     1       4.222   4.121  16.864  0.00  0.00    +0.000 A 
ATOM     15  C   UNL     1       5.160   3.518  16.016  0.00  0.00    +0.000 A 
ATOM     16  C   UNL     1       6.139   4.292  15.398  0.00  0.00    +0.000 A 
ATOM     17  C   UNL     1       6.175   5.667  15.609  0.00  0.00    +0.000 A 
ATOM     18  C   UNL     1       5.228   6.273  16.441  0.00  0.00    +0.000 A 
ATOM     19  C   UNL     1       4.243   5.510  17.083  0.00  0.00    +0.000 A 
ENDROOT
BRANCH   1  20
ATOM     20  S   UNL     1       1.926   9.755  18.520  0.00  0.00    +0.000 S 
BRANCH  20  21
ATOM     21  C   UNL     1       0.316   9.719  17.672  0.00  0.00    +0.000 C 
BRANCH  21  22
ATOM     22  C   UNL     1      -0.689  10.556  18.470  0.00  0.00    +0.000 C 
BRANCH  22  24
ATOM     23  C   UNL     1      -2.323  10.055  16.616  0.00  0.00    +0.000 C 
ATOM     24  C   UNL     1      -2.135  10.195  18.120  0.00  0.00    +0.000 C 
ENDBRANCH  22  24
ENDBRANCH  21  22
ENDBRANCH  20  21
ENDBRANCH   1  20
BRANCH   7  25
ATOM     25  C   UNL     1       0.693   8.040  20.740  0.00  0.00    +0.000 C 
BRANCH  25  26
ATOM     26  C   UNL     1       1.274   8.934  21.853  0.00  0.00    +0.000 C 
BRANCH  26  27
ATOM     27  C   UNL     1       0.398  10.132  22.117  0.00  0.00    +0.000 A 
ATOM     28  C   UNL     1      -0.689  10.023  22.997  0.00  0.00    +0.000 A 
ATOM     29  C   UNL     1      -1.512  11.120  23.240  0.00  0.00    +0.000 A 
ATOM     30  C   UNL     1      -1.256  12.331  22.598  0.00  0.00    +0.000 A 
ATOM     31  C   UNL     1      -0.177  12.448  21.725  0.00  0.00    +0.000 A 
ATOM     32  C   UNL     1       0.652  11.351  21.481  0.00  0.00    +0.000 A 
ENDBRANCH  26  27
ENDBRANCH  25  26
ENDBRANCH   7  25
TORSDOF 7
ENDMDL
MODEL 2
REMARK VINA RESULT:      -8.2      2.650      8.119
REMARK  Name = 
REMARK  8 active torsions:
REMARK  status: ('A' for Active; 'I' for Inactive)
REMARK    1  A    between atoms: C_1  and  C_2
REMARK    2  A    between atoms: C_2  and  C_3
REMARK    3  A    between atoms: C_3  and  C_4
REMARK    4  A    between atoms: C_4  and  S_5
REMARK    5  A    between atoms: S_5  and  C_6
REMARK    6  A    between atoms: N_12  and  C_13
REMARK    7  A    between atoms: C_13  and  C_14
REMARK    8  A    between atoms: C_14  and  C_15
REMARK                            x       y       z     vdW  Elec       q    Type
REMARK                         _______ _______ _______ _____ _____    ______ ____
ROOT
ATOM      1  C   UNL     1       5.028   6.471  17.411  0.00  0.00    +0.000 A 
ATOM      2  N   UNL     1       4.188   7.230  18.030  0.00  0.00    +0.000 NA
ATOM      3  C   UNL     1       3.233   6.648  18.816  0.00  0.00    +0.000 A 
ATOM      4  C   UNL     1       3.139   5.323  19.034  0.00  0.00    +0.000 A 
ATOM      5  C   UNL     1       4.022   4.474  18.203  0.00  0.00    +0.000 A 
ATOM      6  O   UNL     1       3.866   3.256  18.248  0.00  0.00    +0.000 OA
ATOM      7  N   UNL     1       4.972   5.086  17.412  0.00  0.00    +0.000 N 
ATOM      8  C   UNL     1       2.163   4.679  20.031  0.00  0.00    +0.000 C 
ATOM      9  C   UNL     1       0.883   4.183  19.310  0.00  0.00    +0.000 C 
ATOM     10  C   UNL     1       1.034   2.676  19.163  0.00  0.00    +0.000 C 
ATOM     11  C   UNL     1       1.810   2.247  20.393  0.00  0.00    +0.000 C 
ATOM     12  C   UNL     1       2.709   3.422  20.774  0.00  0.00    +0.000 C 
ATOM     13  C   UNL     1       1.803   5.717  21.127  0.00  0.00    +0.000 C 
ATOM     14  C   UNL     1       1.488   7.073  20.561  0.00  0.00    +0.000 A 
ATOM     15  C   UNL     1       0.518   7.887  21.158  0.00  0.00    +0.000 A 
ATOM     16  C   UNL     1       0.263   9.157  20.649  0.00  0.00    +0.000 A 
ATOM     17  C   UNL     1       0.987   9.626  19.555  0.00  0.00    +0.000 A 
ATOM     18  C   UNL     1       1.968   8.822  18.969  0.00  0.00    +0.000 A 
ATOM     19  C   UNL     1       2.230   7.535  19.459  0.00  0.00    +0.000 A 
ENDROOT
BRANCH   1  20
ATOM     20  S   UNL     1       6.299   7.258  16.488  0.00  0.00    +0.000 S 
BRANCH  20  21
ATOM     21  C   UNL     1       7.547   7.576  17.776  0.00  0.00    +0.000 C 
BRANCH  21  22
ATOM     22  C   UNL     1       8.054   9.015  17.635  0.00  0.00    +0.000 C 
BRANCH  22  24
ATOM     23  C   UNL     1       9.455  10.842  18.663  0.00  0.00    +0.000 C 
ATOM     24  C   UNL     1       8.834   9.467  18.872  0.00  0.00    +0.000 C 
ENDBRANCH  22  24
ENDBRANCH  21  22
ENDBRANCH  20  21
ENDBRANCH   1  20
BRANCH   7  25
ATOM     25  C   UNL     1       5.976   4.221  16.744  0.00  0.00    +0.000 C 
BRANCH  25  26
ATOM     26  C   UNL     1       5.518   3.438  15.498  0.00  0.00    +0.000 C 
BRANCH  26  27
ATOM     27  C   UNL     1       6.224   3.911  14.253  0.00  0.00    +0.000 A 
ATOM     28  C   UNL     1       5.870   3.379  13.005  0.00  0.00    +0.000 A 
ATOM     29  C   UNL     1       6.524   3.800  11.848  0.00  0.00    +0.000 A 
ATOM     30  C   UNL     1       7.539   4.751  11.936  0.00  0.00    +0.000 A 
ATOM     31  C   UNL     1       7.894   5.286  13.173  0.00  0.00    +0.000 A 
ATOM     32  C   UNL     1       7.240   4.869  14.334  0.00  0.00    +0.000 A 
ENDBRANCH  26  27
ENDBRANCH  25  26
ENDBRANCH   7  25
TORSDOF 7
ENDMDL
MODEL 3
REMARK VINA RESULT:      -7.7      2.201      8.050
REMARK  Name = 
REMARK  8 active torsions:
REMARK  status: ('A' for Active; 'I' for Inactive)
REMARK    1  A    between atoms: C_1  and  C_2
REMARK    2  A    between atoms: C_2  and  C_3
REMARK    3  A    between atoms: C_3  and  C_4
REMARK    4  A    between atoms: C_4  and  S_5
REMARK    5  A    between atoms: S_5  and  C_6
REMARK    6  A    between atoms: N_12  and  C_13
REMARK    7  A    between atoms: C_13  and  C_14
REMARK    8  A    between atoms: C_14  and  C_15
REMARK                            x       y       z     vdW  Elec       q    Type
REMARK                         _______ _______ _______ _____ _____    ______ ____
ROOT
ATOM      1  C   UNL     1       4.430   6.478  17.205  0.00  0.00    +0.000 A 
ATOM      2  N   UNL     1       3.660   7.299  17.836  0.00  0.00    +0.000 NA
ATOM      3  C   UNL     1       2.833   6.807  18.808  0.00  0.00    +0.000 A 
ATOM      4  C   UNL     1       2.806   5.518  19.194  0.00  0.00    +0.000 A 
ATOM      5  C   UNL     1       3.594   4.583  18.361  0.00  0.00    +0.000 A 
ATOM      6  O   UNL     1       3.479   3.378  18.573  0.00  0.00    +0.000 OA
ATOM      7  N   UNL     1       4.413   5.103  17.380  0.00  0.00    +0.000 N 
ATOM      8  C   UNL     1       1.989   4.991  20.385  0.00  0.00    +0.000 C 
ATOM      9  C   UNL     1       0.639   4.395  19.909  0.00  0.00    +0.000 C 
ATOM     10  C   UNL     1       0.810   2.884  19.926  0.00  0.00    +0.000 C 
ATOM     11  C   UNL     1       1.755   2.618  21.083  0.00  0.00    +0.000 C 
ATOM     12  C   UNL     1       2.663   3.842  21.193  0.00  0.00    +0.000 C 
ATOM     13  C   UNL     1       1.749   6.152  21.386  0.00  0.00    +0.000 C 
ATOM     14  C   UNL     1       1.325   7.424  20.709  0.00  0.00    +0.000 A 
ATOM     15  C   UNL     1       0.421   8.294  21.330  0.00  0.00    +0.000 A 
ATOM     16  C   UNL     1       0.065   9.490  20.710  0.00  0.00    +0.000 A 
ATOM     17  C   UNL     1       0.624   9.828  19.480  0.00  0.00    +0.000 A 
ATOM     18  C   UNL     1       1.540   8.969  18.868  0.00  0.00    +0.000 A 
ATOM     19  C   UNL     1       1.900   7.755  19.469  0.00  0.00    +0.000 A 
ENDROOT
BRANCH   1  20
ATOM     20  S   UNL     1       5.545   7.160  16.030  0.00  0.00    +0.000 S 
BRANCH  20  21
ATOM     21  C   UNL     1       6.880   7.777  17.104  0.00  0.00    +0.000 C 
BRANCH  21  22
ATOM     22  C   UNL     1       7.816   6.616  17.455  0.00  0.00    +0.000 C 
BRANCH  22  24
ATOM     23  C   UNL     1       7.097   5.467  19.581  0.00  0.00    +0.000 C 
ATOM     24  C   UNL     1       8.034   6.498  18.966  0.00  0.00    +0.000 C 
ENDBRANCH  22  24
ENDBRANCH  21  22
ENDBRANCH  20  21
ENDBRANCH   1  20
BRANCH   7  25
ATOM     25  C   UNL     1       5.342   4.175  16.691  0.00  0.00    +0.000 C 
BRANCH  25  26
ATOM     26  C   UNL     1       4.864   3.545  15.369  0.00  0.00    +0.000 C 
BRANCH  26  27
ATOM     27  C   UNL     1       5.777   3.898  14.223  0.00  0.00    +0.000 A 
ATOM     28  C   UNL     1       5.524   3.381  12.944  0.00  0.00    +0.000 A 
ATOM     29  C   UNL     1       6.368   3.690  11.879  0.00  0.00    +0.000 A 
ATOM     30  C   UNL     1       7.474   4.513  12.090  0.00  0.00    +0.000 A 
ATOM     31  C   UNL     1       7.729   5.032  13.358  0.00  0.00    +0.000 A 
ATOM     32  C   UNL     1       6.884   4.727  14.427  0.00  0.00    +0.000 A 
ENDBRANCH  26  27
ENDBRANCH  25  26
ENDBRANCH   7  25
TORSDOF 7
ENDMDL
MODEL 4
REMARK VINA RESULT:      -7.5      2.777      8.197
REMARK  Name = 
REMARK  8 active torsions:
REMARK  status: ('A' for Active; 'I' for Inactive)
REMARK    1  A    between atoms: C_1  and  C_2
REMARK    2  A    between atoms: C_2  and  C_3
REMARK    3  A    between atoms: C_3  and  C_4
REMARK    4  A    between atoms: C_4  and  S_5
REMARK    5  A    between atoms: S_5  and  C_6
REMARK    6  A    between atoms: N_12  and  C_13
REMARK    7  A    between atoms: C_13  and  C_14
REMARK    8  A    between atoms: C_14  and  C_15
REMARK                            x       y       z     vdW  Elec       q    Type
REMARK                         _______ _______ _______ _____ _____    ______ ____
ROOT
ATOM      1  C   UNL     1       5.331   6.270  17.261  0.00  0.00    +0.000 A 
ATOM      2  N   UNL     1       4.482   6.984  17.919  0.00  0.00    +0.000 NA
ATOM      3  C   UNL     1       3.499   6.347  18.625  0.00  0.00    +0.000 A 
ATOM      4  C   UNL     1       3.386   5.010  18.725  0.00  0.00    +0.000 A 
ATOM      5  C   UNL     1       4.285   4.225  17.850  0.00  0.00    +0.000 A 
ATOM      6  O   UNL     1       4.117   3.010  17.786  0.00  0.00    +0.000 OA
ATOM      7  N   UNL     1       5.263   4.892  17.140  0.00  0.00    +0.000 N 
ATOM      8  C   UNL     1       2.376   4.295  19.636  0.00  0.00    +0.000 C 
ATOM      9  C   UNL     1       1.113   3.877  18.840  0.00  0.00    +0.000 C 
ATOM     10  C   UNL     1       1.254   2.386  18.569  0.00  0.00    +0.000 C 
ATOM     11  C   UNL     1       1.990   1.845  19.778  0.00  0.00    +0.000 C 
ATOM     12  C   UNL     1       2.889   2.973  20.283  0.00  0.00    +0.000 C 
ATOM     13  C   UNL     1       1.994   5.239  20.807  0.00  0.00    +0.000 C 
ATOM     14  C   UNL     1       1.709   6.642  20.351  0.00  0.00    +0.000 A 
ATOM     15  C   UNL     1       0.730   7.413  20.989  0.00  0.00    +0.000 A 
ATOM     16  C   UNL     1       0.501   8.725  20.584  0.00  0.00    +0.000 A 
ATOM     17  C   UNL     1       1.260   9.277  19.555  0.00  0.00    +0.000 A 
ATOM     18  C   UNL     1       2.250   8.515  18.929  0.00  0.00    +0.000 A 
ATOM     19  C   UNL     1       2.486   7.188  19.314  0.00  0.00    +0.000 A 
ENDROOT
BRANCH   1  20
ATOM     20  S   UNL     1       6.636   7.119  16.444  0.00  0.00    +0.000 S 
BRANCH  20  21
ATOM     21  C   UNL     1       7.697   7.598  17.844  0.00  0.00    +0.000 C 
BRANCH  21  22
ATOM     22  C   UNL     1       7.861   9.122  17.849  0.00  0.00    +0.000 C 
BRANCH  22  24
ATOM     23  C   UNL     1       9.591  10.886  18.349  0.00  0.00    +0.000 C 
ATOM     24  C   UNL     1       8.968   9.573  18.804  0.00  0.00    +0.000 C 
ENDBRANCH  22  24
ENDBRANCH  21  22
ENDBRANCH  20  21
ENDBRANCH   1  20
BRANCH   7  25
ATOM     25  C   UNL     1       6.277   4.076  16.429  0.00  0.00    +0.000 C 
BRANCH  25  26
ATOM     26  C   UNL     1       6.992   4.725  15.228  0.00  0.00    +0.000 C 
BRANCH  26  27
ATOM     27  C   UNL     1       6.476   4.188  13.917  0.00  0.00    +0.000 A 
ATOM     28  C   UNL     1       7.343   4.069  12.821  0.00  0.00    +0.000 A 
ATOM     29  C   UNL     1       6.875   3.584  11.601  0.00  0.00    +0.000 A 
ATOM     30  C   UNL     1       5.535   3.224  11.470  0.00  0.00    +0.000 A 
ATOM     31  C   UNL     1       4.668   3.338  12.555  0.00  0.00    +0.000 A 
ATOM     32  C   UNL     1       5.134   3.820  13.780  0.00  0.00    +0.000 A 
ENDBRANCH  26  27
ENDBRANCH  25  26
ENDBRANCH   7  25
TORSDOF 7
ENDMDL
MODEL 5
REMARK VINA RESULT:      -7.1      3.810      9.502
REMARK  Name = 
REMARK  8 active torsions:
REMARK  status: ('A' for Active; 'I' for Inactive)
REMARK    1  A    between atoms: C_1  and  C_2
REMARK    2  A    between atoms: C_2  and  C_3
REMARK    3  A    between atoms: C_3  and  C_4
REMARK    4  A    between atoms: C_4  and  S_5
REMARK    5  A    between atoms: S_5  and  C_6
REMARK    6  A    between atoms: N_12  and  C_13
REMARK    7  A    between atoms: C_13  and  C_14
REMARK    8  A    between atoms: C_14  and  C_15
REMARK                            x       y       z     vdW  Elec       q    Type
REMARK                         _______ _______ _______ _____ _____    ______ ____
ROOT
ATOM      1  C   UNL     1      -1.786  12.555  20.996  0.00  0.00    +0.000 A 
ATOM      2  N   UNL     1      -3.034  12.865  20.884  0.00  0.00    +0.000 NA
ATOM      3  C   UNL     1      -3.734  12.388  19.811  0.00  0.00    +0.000 A 
ATOM      4  C   UNL     1      -3.220  11.564  18.880  0.00  0.00    +0.000 A 
ATOM      5  C   UNL     1      -1.758  11.343  18.958  0.00  0.00    +0.000 A 
ATOM      6  O   UNL     1      -1.215  10.728  18.044  0.00  0.00    +0.000 OA
ATOM      7  N   UNL     1      -1.073  11.842  20.047  0.00  0.00    +0.000 N 
ATOM      8  C   UNL     1      -4.041  10.909  17.758  0.00  0.00    +0.000 C 
ATOM      9  C   UNL     1      -3.923  11.718  16.441  0.00  0.00    +0.000 C 
ATOM     10  C   UNL     1      -2.941  10.959  15.561  0.00  0.00    +0.000 C 
ATOM     11  C   UNL     1      -3.162   9.500  15.911  0.00  0.00    +0.000 C 
ATOM     12  C   UNL     1      -3.602   9.464  17.374  0.00  0.00    +0.000 C 
ATOM     13  C   UNL     1      -5.523  10.814  18.208  0.00  0.00    +0.000 C 
ATOM     14  C   UNL     1      -6.021  12.083  18.839  0.00  0.00    +0.000 A 
ATOM     15  C   UNL     1      -7.348  12.493  18.663  0.00  0.00    +0.000 A 
ATOM     16  C   UNL     1      -7.809  13.651  19.285  0.00  0.00    +0.000 A 
ATOM     17  C   UNL     1      -6.954  14.391  20.097  0.00  0.00    +0.000 A 
ATOM     18  C   UNL     1      -5.634  13.973  20.288  0.00  0.00    +0.000 A 
ATOM     19  C   UNL     1      -5.147  12.818  19.660  0.00  0.00    +0.000 A 
ENDROOT
BRANCH   1  20
ATOM     20  S   UNL     1      -0.944  13.106  22.437  0.00  0.00    +0.000 S 
BRANCH  20  21
ATOM     21  C   UNL     1      -2.330  13.614  23.503  0.00  0.00    +0.000 C 
BRANCH  21  22
ATOM     22  C   UNL     1      -2.421  15.144  23.511  0.00  0.00    +0.000 C 
BRANCH  22  24
ATOM     23  C   UNL     1      -4.412  16.249  24.594  0.00  0.00    +0.000 C 
ATOM     24  C   UNL     1      -3.859  15.630  23.316  0.00  0.00    +0.000 C 
ENDBRANCH  22  24
ENDBRANCH  21  22
ENDBRANCH  20  21
ENDBRANCH   1  20
BRANCH   7  25
ATOM     25  C   UNL     1       0.346  11.442  20.212  0.00  0.00    +0.000 C 
BRANCH  25  26
ATOM     26  C   UNL     1       0.626  10.096  20.909  0.00  0.00    +0.000 C 
BRANCH  26  27
ATOM     27  C   UNL     1       1.295   9.117  19.979  0.00  0.00    +0.000 A 
ATOM     28  C   UNL     1       1.703   7.864  20.459  0.00  0.00    +0.000 A 
ATOM     29  C   UNL     1       2.332   6.954  19.612  0.00  0.00    +0.000 A 
ATOM     30  C   UNL     1       2.563   7.297  18.280  0.00  0.00    +0.000 A 
ATOM     31  C   UNL     1       2.158   8.539  17.795  0.00  0.00    +0.000 A 
ATOM     32  C   UNL     1       1.524   9.452  18.640  0.00  0.00    +0.000 A 
ENDBRANCH  26  27
ENDBRANCH  25  26
ENDBRANCH   7  25
TORSDOF 7
ENDMDL
MODEL 6
REMARK VINA RESULT:      -7.1      1.523      1.771
REMARK  Name = 
REMARK  8 active torsions:
REMARK  status: ('A' for Active; 'I' for Inactive)
REMARK    1  A    between atoms: C_1  and  C_2
REMARK    2  A    between atoms: C_2  and  C_3
REMARK    3  A    between atoms: C_3  and  C_4
REMARK    4  A    between atoms: C_4  and  S_5
REMARK    5  A    between atoms: S_5  and  C_6
REMARK    6  A    between atoms: N_12  and  C_13
REMARK    7  A    between atoms: C_13  and  C_14
REMARK    8  A    between atoms: C_14  and  C_15
REMARK                            x       y       z     vdW  Elec       q    Type
REMARK                         _______ _______ _______ _____ _____    ______ ____
ROOT
ATOM      1  C   UNL     1       1.684   8.533  19.142  0.00  0.00    +0.000 A 
ATOM      2  N   UNL     1       2.492   8.014  18.279  0.00  0.00    +0.000 NA
ATOM      3  C   UNL     1       2.760   6.675  18.355  0.00  0.00    +0.000 A 
ATOM      4  C   UNL     1       2.192   5.840  19.243  0.00  0.00    +0.000 A 
ATOM      5  C   UNL     1       1.383   6.486  20.301  0.00  0.00    +0.000 A 
ATOM      6  O   UNL     1       0.972   5.788  21.225  0.00  0.00    +0.000 OA
ATOM      7  N   UNL     1       1.134   7.840  20.208  0.00  0.00    +0.000 N 
ATOM      8  C   UNL     1       2.376   4.315  19.235  0.00  0.00    +0.000 C 
ATOM      9  C   UNL     1       3.479   3.885  20.236  0.00  0.00    +0.000 C 
ATOM     10  C   UNL     1       2.756   3.347  21.462  0.00  0.00    +0.000 C 
ATOM     11  C   UNL     1       1.494   2.709  20.914  0.00  0.00    +0.000 C 
ATOM     12  C   UNL     1       1.120   3.494  19.657  0.00  0.00    +0.000 C 
ATOM     13  C   UNL     1       2.738   3.858  17.797  0.00  0.00    +0.000 C 
ATOM     14  C   UNL     1       3.782   4.728  17.157  0.00  0.00    +0.000 A 
ATOM     15  C   UNL     1       4.730   4.180  16.284  0.00  0.00    +0.000 A 
ATOM     16  C   UNL     1       5.668   5.003  15.666  0.00  0.00    +0.000 A 
ATOM     17  C   UNL     1       5.652   6.375  15.903  0.00  0.00    +0.000 A 
ATOM     18  C   UNL     1       4.695   6.926  16.760  0.00  0.00    +0.000 A 
ATOM     19  C   UNL     1       3.751   6.113  17.402  0.00  0.00    +0.000 A 
ENDROOT
BRANCH   1  20
ATOM     20  S   UNL     1       1.290  10.235  18.955  0.00  0.00    +0.000 S 
BRANCH  20  21
ATOM     21  C   UNL     1       2.592  10.792  17.810  0.00  0.00    +0.000 C 
BRANCH  21  22
ATOM     22  C   UNL     1       2.744  12.312  17.926  0.00  0.00    +0.000 C 
BRANCH  22  24
ATOM     23  C   UNL     1       1.752  14.366  19.002  0.00  0.00    +0.000 C 
ATOM     24  C   UNL     1       1.468  12.973  18.453  0.00  0.00    +0.000 C 
ENDBRANCH  22  24
ENDBRANCH  21  22
ENDBRANCH  20  21
ENDBRANCH   1  20
BRANCH   7  25
ATOM     25  C   UNL     1       0.162   8.431  21.160  0.00  0.00    +0.000 C 
BRANCH  25  26
ATOM     26  C   UNL     1       0.716   9.377  22.242  0.00  0.00    +0.000 C 
BRANCH  26  27
ATOM     27  C   UNL     1      -0.134  10.612  22.391  0.00  0.00    +0.000 A 
ATOM     28  C   UNL     1      -1.277  10.580  23.204  0.00  0.00    +0.000 A 
ATOM     29  C   UNL     1      -2.078  11.712  23.339  0.00  0.00    +0.000 A 
ATOM     30  C   UNL     1      -1.743  12.881  22.656  0.00  0.00    +0.000 A 
ATOM     31  C   UNL     1      -0.608  12.920  21.849  0.00  0.00    +0.000 A 
ATOM     32  C   UNL     1       0.198  11.789  21.712  0.00  0.00    +0.000 A 
ENDBRANCH  26  27
ENDBRANCH  25  26
ENDBRANCH   7  25
TORSDOF 7
ENDMDL
MODEL 7
REMARK VINA RESULT:      -7.1      1.547      4.589
REMARK  Name = 
REMARK  8 active torsions:
REMARK  status: ('A' for Active; 'I' for Inactive)
REMARK    1  A    between atoms: C_1  and  C_2
REMARK    2  A    between atoms: C_2  and  C_3
REMARK    3  A    between atoms: C_3  and  C_4
REMARK    4  A    between atoms: C_4  and  S_5
REMARK    5  A    between atoms: S_5  and  C_6
REMARK    6  A    between atoms: N_12  and  C_13
REMARK    7  A    between atoms: C_13  and  C_14
REMARK    8  A    between atoms: C_14  and  C_15
REMARK                            x       y       z     vdW  Elec       q    Type
REMARK                         _______ _______ _______ _____ _____    ______ ____
ROOT
ATOM      1  C   UNL     1       1.266   7.611  20.202  0.00  0.00    +0.000 A 
ATOM      2  N   UNL     1       1.564   6.430  20.628  0.00  0.00    +0.000 NA
ATOM      3  C   UNL     1       2.564   5.740  20.001  0.00  0.00    +0.000 A 
ATOM      4  C   UNL     1       3.305   6.234  18.992  0.00  0.00    +0.000 A 
ATOM      5  C   UNL     1       2.849   7.528  18.438  0.00  0.00    +0.000 A 
ATOM      6  O   UNL     1       3.393   7.947  17.419  0.00  0.00    +0.000 OA
ATOM      7  N   UNL     1       1.832   8.201  19.083  0.00  0.00    +0.000 N 
ATOM      8  C   UNL     1       4.524   5.521  18.387  0.00  0.00    +0.000 C 
ATOM      9  C   UNL     1       4.131   4.746  17.103  0.00  0.00    +0.000 C 
ATOM     10  C   UNL     1       4.602   5.596  15.932  0.00  0.00    +0.000 C 
ATOM     11  C   UNL     1       5.861   6.277  16.434  0.00  0.00    +0.000 C 
ATOM     12  C   UNL     1       5.686   6.459  17.941  0.00  0.00    +0.000 C 
ATOM     13  C   UNL     1       5.120   4.554  19.445  0.00  0.00    +0.000 C 
ATOM     14  C   UNL     1       4.069   3.744  20.148  0.00  0.00    +0.000 A 
ATOM     15  C   UNL     1       4.331   2.427  20.545  0.00  0.00    +0.000 A 
ATOM     16  C   UNL     1       3.363   1.699  21.232  0.00  0.00    +0.000 A 
ATOM     17  C   UNL     1       2.139   2.288  21.539  0.00  0.00    +0.000 A 
ATOM     18  C   UNL     1       1.882   3.608  21.160  0.00  0.00    +0.000 A 
ATOM     19  C   UNL     1       2.839   4.353  20.456  0.00  0.00    +0.000 A 
ENDROOT
BRANCH   1  20
ATOM     20  S   UNL     1       0.042   8.504  21.092  0.00  0.00    +0.000 S 
BRANCH  20  21
ATOM     21  C   UNL     1       1.035   9.284  22.403  0.00  0.00    +0.000 C 
BRANCH  21  22
ATOM     22  C   UNL     1       0.123   9.621  23.588  0.00  0.00    +0.000 C 
BRANCH  22  24
ATOM     23  C   UNL     1      -0.793  11.798  22.706  0.00  0.00    +0.000 C 
ATOM     24  C   UNL     1      -1.131  10.379  23.144  0.00  0.00    +0.000 C 
ENDBRANCH  22  24
ENDBRANCH  21  22
ENDBRANCH  20  21
ENDBRANCH   1  20
BRANCH   7  25
ATOM     25  C   UNL     1       1.524   9.581  18.636  0.00  0.00    +0.000 C 
BRANCH  25  26
ATOM     26  C   UNL     1       0.491   9.745  17.504  0.00  0.00    +0.000 C 
BRANCH  26  27
ATOM     27  C   UNL     1      -0.737  10.481  17.975  0.00  0.00    +0.000 A 
ATOM     28  C   UNL     1      -0.608  11.564  18.856  0.00  0.00    +0.000 A 
ATOM     29  C   UNL     1      -1.737  12.245  19.308  0.00  0.00    +0.000 A 
ATOM     30  C   UNL     1      -3.003  11.839  18.885  0.00  0.00    +0.000 A 
ATOM     31  C   UNL     1      -3.139  10.765  18.009  0.00  0.00    +0.000 A 
ATOM     32  C   UNL     1      -2.010  10.082  17.552  0.00  0.00    +0.000 A 
ENDBRANCH  26  27
ENDBRANCH  25  26
ENDBRANCH   7  25
TORSDOF 7
ENDMDL
MODEL 8
REMARK VINA RESULT:      -7.0      3.795      9.824
REMARK  Name = 
REMARK  8 active torsions:
REMARK  status: ('A' for Active; 'I' for Inactive)
REMARK    1  A    between atoms: C_1  and  C_2
REMARK    2  A    between atoms: C_2  and  C_3
REMARK    3  A    between atoms: C_3  and  C_4
REMARK    4  A    between atoms: C_4  and  S_5
REMARK    5  A    between atoms: S_5  and  C_6
REMARK    6  A    between atoms: N_12  and  C_13
REMARK    7  A    between atoms: C_13  and  C_14
REMARK    8  A    between atoms: C_14  and  C_15
REMARK                            x       y       z     vdW  Elec       q    Type
REMARK                         _______ _______ _______ _____ _____    ______ ____
ROOT
ATOM      1  C   UNL     1      -2.371  10.997  18.422  0.00  0.00    +0.000 A 
ATOM      2  N   UNL     1      -3.574  11.450  18.531  0.00  0.00    +0.000 NA
ATOM      3  C   UNL     1      -3.851  12.341  19.531  0.00  0.00    +0.000 A 
ATOM      4  C   UNL     1      -2.933  12.826  20.386  0.00  0.00    +0.000 A 
ATOM      5  C   UNL     1      -1.600  12.184  20.325  0.00  0.00    +0.000 A 
ATOM      6  O   UNL     1      -0.774  12.479  21.186  0.00  0.00    +0.000 OA
ATOM      7  N   UNL     1      -1.348  11.282  19.312  0.00  0.00    +0.000 N 
ATOM      8  C   UNL     1      -3.209  13.936  21.412  0.00  0.00    +0.000 C 
ATOM      9  C   UNL     1      -3.517  13.336  22.808  0.00  0.00    +0.000 C 
ATOM     10  C   UNL     1      -2.248  13.502  23.631  0.00  0.00    +0.000 C 
ATOM     11  C   UNL     1      -1.630  14.791  23.128  0.00  0.00    +0.000 C 
ATOM     12  C   UNL     1      -2.026  14.920  21.658  0.00  0.00    +0.000 C 
ATOM     13  C   UNL     1      -4.401  14.797  20.914  0.00  0.00    +0.000 C 
ATOM     14  C   UNL     1      -5.544  13.966  20.404  0.00  0.00    +0.000 A 
ATOM     15  C   UNL     1      -6.867  14.387  20.585  0.00  0.00    +0.000 A 
ATOM     16  C   UNL     1      -7.917  13.628  20.073  0.00  0.00    +0.000 A 
ATOM     17  C   UNL     1      -7.649  12.460  19.365  0.00  0.00    +0.000 A 
ATOM     18  C   UNL     1      -6.328  12.048  19.168  0.00  0.00    +0.000 A 
ATOM     19  C   UNL     1      -5.258  12.791  19.687  0.00  0.00    +0.000 A 
ENDROOT
BRANCH   1  20
ATOM     20  S   UNL     1      -2.031   9.929  17.069  0.00  0.00    +0.000 S 
BRANCH  20  21
ATOM     21  C   UNL     1      -2.684  10.889  15.667  0.00  0.00    +0.000 C 
BRANCH  21  22
ATOM     22  C   UNL     1      -3.659  10.015  14.873  0.00  0.00    +0.000 C 
BRANCH  22  24
ATOM     23  C   UNL     1      -4.496   9.744  12.510  0.00  0.00    +0.000 C 
ATOM     24  C   UNL     1      -3.270   9.924  13.395  0.00  0.00    +0.000 C 
ENDBRANCH  22  24
ENDBRANCH  21  22
ENDBRANCH  20  21
ENDBRANCH   1  20
BRANCH   7  25
ATOM     25  C   UNL     1       0.046  10.803  19.146  0.00  0.00    +0.000 C 
BRANCH  25  26
ATOM     26  C   UNL     1       0.554   9.743  20.143  0.00  0.00    +0.000 C 
BRANCH  26  27
ATOM     27  C   UNL     1       1.425   8.716  19.466  0.00  0.00    +0.000 A 
ATOM     28  C   UNL     1       1.820   7.565  20.164  0.00  0.00    +0.000 A 
ATOM     29  C   UNL     1       2.635   6.614  19.553  0.00  0.00    +0.000 A 
ATOM     30  C   UNL     1       3.065   6.814  18.242  0.00  0.00    +0.000 A 
ATOM     31  C   UNL     1       2.676   7.953  17.542  0.00  0.00    +0.000 A 
ATOM     32  C   UNL     1       1.857   8.907  18.149  0.00  0.00    +0.000 A 
ENDBRANCH  26  27
ENDBRANCH  25  26
ENDBRANCH   7  25
TORSDOF 7
ENDMDL
MODEL 9
REMARK VINA RESULT:      -7.0      2.148      4.702
REMARK  Name = 
REMARK  8 active torsions:
REMARK  status: ('A' for Active; 'I' for Inactive)
REMARK    1  A    between atoms: C_1  and  C_2
REMARK    2  A    between atoms: C_2  and  C_3
REMARK    3  A    between atoms: C_3  and  C_4
REMARK    4  A    between atoms: C_4  and  S_5
REMARK    5  A    between atoms: S_5  and  C_6
REMARK    6  A    between atoms: N_12  and  C_13
REMARK    7  A    between atoms: C_13  and  C_14
REMARK    8  A    between atoms: C_14  and  C_15
REMARK                            x       y       z     vdW  Elec       q    Type
REMARK                         _______ _______ _______ _____ _____    ______ ____
ROOT
ATOM      1  C   UNL     1       1.653   8.061  19.725  0.00  0.00    +0.000 A 
ATOM      2  N   UNL     1       1.760   6.890  20.256  0.00  0.00    +0.000 NA
ATOM      3  C   UNL     1       2.659   6.008  19.723  0.00  0.00    +0.000 A 
ATOM      4  C   UNL     1       3.488   6.298  18.704  0.00  0.00    +0.000 A 
ATOM      5  C   UNL     1       3.244   7.592  18.029  0.00  0.00    +0.000 A 
ATOM      6  O   UNL     1       3.866   7.836  16.998  0.00  0.00    +0.000 OA
ATOM      7  N   UNL     1       2.325   8.462  18.581  0.00  0.00    +0.000 N 
ATOM      8  C   UNL     1       4.599   5.362  18.202  0.00  0.00    +0.000 C 
ATOM      9  C   UNL     1       4.121   4.546  16.973  0.00  0.00    +0.000 C 
ATOM     10  C   UNL     1       4.741   5.212  15.753  0.00  0.00    +0.000 C 
ATOM     11  C   UNL     1       6.076   5.740  16.240  0.00  0.00    +0.000 C 
ATOM     12  C   UNL     1       5.898   6.076  17.720  0.00  0.00    +0.000 C 
ATOM     13  C   UNL     1       5.019   4.414  19.356  0.00  0.00    +0.000 C 
ATOM     14  C   UNL     1       3.843   3.832  20.087  0.00  0.00    +0.000 A 
ATOM     15  C   UNL     1       3.895   2.530  20.600  0.00  0.00    +0.000 A 
ATOM     16  C   UNL     1       2.814   2.016  21.310  0.00  0.00    +0.000 A 
ATOM     17  C   UNL     1       1.686   2.804  21.526  0.00  0.00    +0.000 A 
ATOM     18  C   UNL     1       1.639   4.110  21.030  0.00  0.00    +0.000 A 
ATOM     19  C   UNL     1       2.713   4.641  20.301  0.00  0.00    +0.000 A 
ENDROOT
BRANCH   1  20
ATOM     20  S   UNL     1       0.558   9.199  20.495  0.00  0.00    +0.000 S 
BRANCH  20  21
ATOM     21  C   UNL     1       0.952   8.957  22.255  0.00  0.00    +0.000 C 
BRANCH  21  22
ATOM     22  C   UNL     1      -0.088   9.691  23.107  0.00  0.00    +0.000 C 
BRANCH  22  24
ATOM     23  C   UNL     1      -1.815  11.528  23.129  0.00  0.00    +0.000 C 
ATOM     24  C   UNL     1      -0.590  10.965  22.422  0.00  0.00    +0.000 C 
ENDBRANCH  22  24
ENDBRANCH  21  22
ENDBRANCH  20  21
ENDBRANCH   1  20
BRANCH   7  25
ATOM     25  C   UNL     1       2.239   9.828  18.011  0.00  0.00    +0.000 C 
BRANCH  25  26
ATOM     26  C   UNL     1       0.992  10.664  18.362  0.00  0.00    +0.000 C 
BRANCH  26  27
ATOM     27  C   UNL     1       1.317  12.132  18.459  0.00  0.00    +0.000 A 
ATOM     28  C   UNL     1       2.617  12.581  18.182  0.00  0.00    +0.000 A 
ATOM     29  C   UNL     1       2.931  13.935  18.280  0.00  0.00    +0.000 A 
ATOM     30  C   UNL     1       1.948  14.846  18.661  0.00  0.00    +0.000 A 
ATOM     31  C   UNL     1       0.654  14.409  18.935  0.00  0.00    +0.000 A 
ATOM     32  C   UNL     1       0.334  13.054  18.835  0.00  0.00    +0.000 A 
ENDBRANCH  26  27
ENDBRANCH  25  26
ENDBRANCH   7  25
TORSDOF 7
ENDMDL
