MODEL 1
REMARK VINA RESULT:      -6.9      0.000      0.000
REMARK  Name = 
REMARK  4 active torsions:
REMARK  status: ('A' for Active; 'I' for Inactive)
REMARK    1  A    between atoms: C_1  and  C_2
REMARK    2  A    between atoms: C_5  and  C_6
REMARK    3  A    between atoms: N_16  and  C_17
REMARK    4  A    between atoms: N_25  and  C_26
REMARK                            x       y       z     vdW  Elec       q    Type
REMARK                         _______ _______ _______ _____ _____    ______ ____
ROOT
ATOM      1  C   UNL     1      -4.449  11.868  19.208  0.00  0.00    +0.000 A 
ATOM      2  C   UNL     1      -5.792  11.838  19.566  0.00  0.00    +0.000 A 
ATOM      3  C   UNL     1      -6.179  12.389  20.771  0.00  0.00    +0.000 A 
ATOM      4  C   UNL     1      -5.257  12.964  21.614  0.00  0.00    +0.000 A 
ATOM      5  N   UNL     1      -5.770  13.475  22.752  0.00  0.00    +0.000 NA
ATOM      6  C   UNL     1      -4.931  14.059  23.618  0.00  0.00    +0.000 A 
ATOM      7  C   UNL     1      -3.595  14.135  23.346  0.00  0.00    +0.000 A 
ATOM      8  C   UNL     1      -3.062  13.603  22.163  0.00  0.00    +0.000 A 
ATOM      9  C   UNL     1      -3.888  12.973  21.216  0.00  0.00    +0.000 A 
ATOM     10  N   UNL     1      -3.497  12.413  20.023  0.00  0.00    +0.000 NA
ATOM     11  N   UNL     1      -1.658  13.868  22.220  0.00  0.00    +0.000 N 
ATOM     12  C   UNL     1      -1.371  14.554  23.432  0.00  0.00    +0.000 A 
ATOM     13  O   UNL     1      -0.281  14.952  23.829  0.00  0.00    +0.000 OA
ATOM     14  N   UNL     1      -2.578  14.703  24.109  0.00  0.00    +0.000 N 
ATOM     15  C   UNL     1      -2.745  15.343  25.384  0.00  0.00    +0.000 C 
ENDROOT
BRANCH   1  20
ATOM     16  C   UNL     1      -2.788   9.854  14.089  0.00  0.00    +0.000 C 
ATOM     17  C   UNL     1      -3.192  10.352  15.444  0.00  0.00    +0.000 A 
ATOM     18  C   UNL     1      -2.457  10.016  16.572  0.00  0.00    +0.000 A 
ATOM     19  C   UNL     1      -2.886  10.485  17.810  0.00  0.00    +0.000 A 
ATOM     20  C   UNL     1      -4.033  11.290  17.922  0.00  0.00    +0.000 A 
ATOM     21  C   UNL     1      -4.695  11.565  16.733  0.00  0.00    +0.000 A 
ATOM     22  N   UNL     1      -4.303  11.124  15.508  0.00  0.00    +0.000 NA
ENDBRANCH   1  20
BRANCH  11  23
ATOM     23  C   UNL     1      -0.634  13.542  21.238  0.00  0.00    +0.000 C 
ATOM     24  C   UNL     1      -0.916  14.233  19.891  0.00  0.00    +0.000 C 
ATOM     25  C   UNL     1       0.038  13.755  18.808  0.00  0.00    +0.000 C 
ATOM     26  O   UNL     1       0.004  12.336  18.686  0.00  0.00    +0.000 OA
ATOM     27  C   UNL     1       0.412  11.683  19.885  0.00  0.00    +0.000 C 
ATOM     28  C   UNL     1      -0.525  12.020  21.033  0.00  0.00    +0.000 C 
ENDBRANCH  11  23
TORSDOF 2
ENDMDL
MODEL 2
REMARK VINA RESULT:      -6.8      0.867      1.237
REMARK  Name = 
REMARK  4 active torsions:
REMARK  status: ('A' for Active; 'I' for Inactive)
REMARK    1  A    between atoms: C_1  and  C_2
REMARK    2  A    between atoms: C_5  and  C_6
REMARK    3  A    between atoms: N_16  and  C_17
REMARK    4  A    between atoms: N_25  and  C_26
REMARK                            x       y       z     vdW  Elec       q    Type
REMARK                         _______ _______ _______ _____ _____    ______ ____
ROOT
ATOM      1  C   UNL     1      -4.641  11.903  19.202  0.00  0.00    +0.000 A 
ATOM      2  C   UNL     1      -5.998  11.942  19.501  0.00  0.00    +0.000 A 
ATOM      3  C   UNL     1      -6.409  12.501  20.694  0.00  0.00    +0.000 A 
ATOM      4  C   UNL     1      -5.496  13.018  21.584  0.00  0.00    +0.000 A 
ATOM      5  N   UNL     1      -6.031  13.544  22.705  0.00  0.00    +0.000 NA
ATOM      6  C   UNL     1      -5.201  14.075  23.613  0.00  0.00    +0.000 A 
ATOM      7  C   UNL     1      -3.853  14.081  23.402  0.00  0.00    +0.000 A 
ATOM      8  C   UNL     1      -3.297  13.532  22.237  0.00  0.00    +0.000 A 
ATOM      9  C   UNL     1      -4.112  12.957  21.247  0.00  0.00    +0.000 A 
ATOM     10  N   UNL     1      -3.698  12.388  20.066  0.00  0.00    +0.000 NA
ATOM     11  N   UNL     1      -1.885  13.721  22.359  0.00  0.00    +0.000 N 
ATOM     12  C   UNL     1      -1.615  14.379  23.590  0.00  0.00    +0.000 A 
ATOM     13  O   UNL     1      -0.525  14.714  24.039  0.00  0.00    +0.000 OA
ATOM     14  N   UNL     1      -2.842  14.586  24.215  0.00  0.00    +0.000 N 
ATOM     15  C   UNL     1      -3.031  15.221  25.489  0.00  0.00    +0.000 C 
ENDROOT
BRANCH   1  20
ATOM     16  C   UNL     1      -2.839   9.850  14.147  0.00  0.00    +0.000 C 
ATOM     17  C   UNL     1      -3.286  10.353  15.487  0.00  0.00    +0.000 A 
ATOM     18  C   UNL     1      -2.703   9.880  16.654  0.00  0.00    +0.000 A 
ATOM     19  C   UNL     1      -3.168  10.363  17.874  0.00  0.00    +0.000 A 
ATOM     20  C   UNL     1      -4.200  11.316  17.929  0.00  0.00    +0.000 A 
ATOM     21  C   UNL     1      -4.713  11.721  16.705  0.00  0.00    +0.000 A 
ATOM     22  N   UNL     1      -4.282  11.271  15.497  0.00  0.00    +0.000 NA
ENDBRANCH   1  20
BRANCH  11  23
ATOM     23  C   UNL     1      -0.837  13.350  21.419  0.00  0.00    +0.000 C 
ATOM     24  C   UNL     1      -0.227  11.982  21.778  0.00  0.00    +0.000 C 
ATOM     25  C   UNL     1       0.989  11.670  20.919  0.00  0.00    +0.000 C 
ATOM     26  O   UNL     1       1.956  12.714  21.003  0.00  0.00    +0.000 OA
ATOM     27  C   UNL     1       1.448  13.958  20.528  0.00  0.00    +0.000 C 
ATOM     28  C   UNL     1       0.269  14.419  21.369  0.00  0.00    +0.000 C 
ENDBRANCH  11  23
TORSDOF 2
ENDMDL
MODEL 3
REMARK VINA RESULT:      -6.7      3.206      5.596
REMARK  Name = 
REMARK  4 active torsions:
REMARK  status: ('A' for Active; 'I' for Inactive)
REMARK    1  A    between atoms: C_1  and  C_2
REMARK    2  A    between atoms: C_5  and  C_6
REMARK    3  A    between atoms: N_16  and  C_17
REMARK    4  A    between atoms: N_25  and  C_26
REMARK                            x       y       z     vdW  Elec       q    Type
REMARK                         _______ _______ _______ _____ _____    ______ ____
ROOT
ATOM      1  C   UNL     1      -1.568  12.517  22.365  0.00  0.00    +0.000 A 
ATOM      2  C   UNL     1      -0.933  13.449  23.178  0.00  0.00    +0.000 A 
ATOM      3  C   UNL     1      -1.580  14.632  23.477  0.00  0.00    +0.000 A 
ATOM      4  C   UNL     1      -2.837  14.894  22.985  0.00  0.00    +0.000 A 
ATOM      5  N   UNL     1      -3.360  16.078  23.363  0.00  0.00    +0.000 NA
ATOM      6  C   UNL     1      -4.586  16.398  22.928  0.00  0.00    +0.000 A 
ATOM      7  C   UNL     1      -5.283  15.541  22.126  0.00  0.00    +0.000 A 
ATOM      8  C   UNL     1      -4.739  14.309  21.732  0.00  0.00    +0.000 A 
ATOM      9  C   UNL     1      -3.456  13.917  22.151  0.00  0.00    +0.000 A 
ATOM     10  N   UNL     1      -2.809  12.745  21.839  0.00  0.00    +0.000 NA
ATOM     11  N   UNL     1      -5.738  13.691  20.917  0.00  0.00    +0.000 N 
ATOM     12  C   UNL     1      -6.863  14.556  20.836  0.00  0.00    +0.000 A 
ATOM     13  O   UNL     1      -7.914  14.367  20.233  0.00  0.00    +0.000 OA
ATOM     14  N   UNL     1      -6.557  15.689  21.585  0.00  0.00    +0.000 N 
ATOM     15  C   UNL     1      -7.419  16.823  21.771  0.00  0.00    +0.000 C 
ENDROOT
BRANCH   1  20
ATOM     16  C   UNL     1       1.303   7.716  21.052  0.00  0.00    +0.000 C 
ATOM     17  C   UNL     1       0.545   8.951  21.435  0.00  0.00    +0.000 A 
ATOM     18  C   UNL     1       0.157   9.167  22.749  0.00  0.00    +0.000 A 
ATOM     19  C   UNL     1      -0.564  10.319  23.051  0.00  0.00    +0.000 A 
ATOM     20  C   UNL     1      -0.887  11.254  22.051  0.00  0.00    +0.000 A 
ATOM     21  C   UNL     1      -0.451  10.941  20.770  0.00  0.00    +0.000 A 
ATOM     22  N   UNL     1       0.254   9.826  20.442  0.00  0.00    +0.000 NA
ENDBRANCH   1  20
BRANCH  11  23
ATOM     23  C   UNL     1      -5.696  12.390  20.263  0.00  0.00    +0.000 C 
ATOM     24  C   UNL     1      -5.568  12.541  18.736  0.00  0.00    +0.000 C 
ATOM     25  C   UNL     1      -5.710  11.202  18.029  0.00  0.00    +0.000 C 
ATOM     26  O   UNL     1      -6.929  10.559  18.392  0.00  0.00    +0.000 OA
ATOM     27  C   UNL     1      -6.993  10.276  19.787  0.00  0.00    +0.000 C 
ATOM     28  C   UNL     1      -6.944  11.556  20.604  0.00  0.00    +0.000 C 
ENDBRANCH  11  23
TORSDOF 2
ENDMDL
MODEL 4
REMARK VINA RESULT:      -6.7      3.041      5.015
REMARK  Name = 
REMARK  4 active torsions:
REMARK  status: ('A' for Active; 'I' for Inactive)
REMARK    1  A    between atoms: C_1  and  C_2
REMARK    2  A    between atoms: C_5  and  C_6
REMARK    3  A    between atoms: N_16  and  C_17
REMARK    4  A    between atoms: N_25  and  C_26
REMARK                            x       y       z     vdW  Elec       q    Type
REMARK                         _______ _______ _______ _____ _____    ______ ____
ROOT
ATOM      1  C   UNL     1      -1.155  12.146  21.525  0.00  0.00    +0.000 A 
ATOM      2  C   UNL     1      -0.448  12.767  22.547  0.00  0.00    +0.000 A 
ATOM      3  C   UNL     1      -1.113  13.626  23.399  0.00  0.00    +0.000 A 
ATOM      4  C   UNL     1      -2.458  13.871  23.249  0.00  0.00    +0.000 A 
ATOM      5  N   UNL     1      -2.985  14.720  24.155  0.00  0.00    +0.000 NA
ATOM      6  C   UNL     1      -4.293  14.998  24.075  0.00  0.00    +0.000 A 
ATOM      7  C   UNL     1      -5.065  14.432  23.102  0.00  0.00    +0.000 A 
ATOM      8  C   UNL     1      -4.516  13.550  22.159  0.00  0.00    +0.000 A 
ATOM      9  C   UNL     1      -3.150  13.220  22.186  0.00  0.00    +0.000 A 
ATOM     10  N   UNL     1      -2.489  12.375  21.327  0.00  0.00    +0.000 NA
ATOM     11  N   UNL     1      -5.605  13.161  21.318  0.00  0.00    +0.000 N 
ATOM     12  C   UNL     1      -6.786  13.811  21.767  0.00  0.00    +0.000 A 
ATOM     13  O   UNL     1      -7.917  13.720  21.300  0.00  0.00    +0.000 OA
ATOM     14  N   UNL     1      -6.428  14.590  22.863  0.00  0.00    +0.000 N 
ATOM     15  C   UNL     1      -7.321  15.418  23.625  0.00  0.00    +0.000 C 
ENDROOT
BRANCH   1  20
ATOM     16  C   UNL     1       1.753   8.737  17.928  0.00  0.00    +0.000 C 
ATOM     17  C   UNL     1       0.997   9.595  18.898  0.00  0.00    +0.000 A 
ATOM     18  C   UNL     1       0.923   9.252  20.240  0.00  0.00    +0.000 A 
ATOM     19  C   UNL     1       0.190  10.070  21.097  0.00  0.00    +0.000 A 
ATOM     20  C   UNL     1      -0.454  11.225  20.620  0.00  0.00    +0.000 A 
ATOM     21  C   UNL     1      -0.317  11.474  19.261  0.00  0.00    +0.000 A 
ATOM     22  N   UNL     1       0.391  10.698  18.399  0.00  0.00    +0.000 NA
ENDBRANCH   1  20
BRANCH  11  23
ATOM     23  C   UNL     1      -5.592  12.244  20.186  0.00  0.00    +0.000 C 
ATOM     24  C   UNL     1      -5.716  13.005  18.853  0.00  0.00    +0.000 C 
ATOM     25  C   UNL     1      -5.891  12.053  17.681  0.00  0.00    +0.000 C 
ATOM     26  O   UNL     1      -6.997  11.180  17.892  0.00  0.00    +0.000 OA
ATOM     27  C   UNL     1      -6.823  10.358  19.043  0.00  0.00    +0.000 C 
ATOM     28  C   UNL     1      -6.719  11.203  20.302  0.00  0.00    +0.000 C 
ENDBRANCH  11  23
TORSDOF 2
ENDMDL
MODEL 5
REMARK VINA RESULT:      -6.7      2.361      4.067
REMARK  Name = 
REMARK  4 active torsions:
REMARK  status: ('A' for Active; 'I' for Inactive)
REMARK    1  A    between atoms: C_1  and  C_2
REMARK    2  A    between atoms: C_5  and  C_6
REMARK    3  A    between atoms: N_16  and  C_17
REMARK    4  A    between atoms: N_25  and  C_26
REMARK                            x       y       z     vdW  Elec       q    Type
REMARK                         _______ _______ _______ _____ _____    ______ ____
ROOT
ATOM      1  C   UNL     1      -2.110  11.455  19.095  0.00  0.00    +0.000 A 
ATOM      2  C   UNL     1      -0.874  11.011  19.547  0.00  0.00    +0.000 A 
ATOM      3  C   UNL     1      -0.417  11.433  20.780  0.00  0.00    +0.000 A 
ATOM      4  C   UNL     1      -1.168  12.280  21.560  0.00  0.00    +0.000 A 
ATOM      5  N   UNL     1      -0.612  12.605  22.745  0.00  0.00    +0.000 NA
ATOM      6  C   UNL     1      -1.292  13.420  23.561  0.00  0.00    +0.000 A 
ATOM      7  C   UNL     1      -2.516  13.904  23.198  0.00  0.00    +0.000 A 
ATOM      8  C   UNL     1      -3.094  13.567  21.965  0.00  0.00    +0.000 A 
ATOM      9  C   UNL     1      -2.430  12.719  21.062  0.00  0.00    +0.000 A 
ATOM     10  N   UNL     1      -2.882  12.313  19.829  0.00  0.00    +0.000 NA
ATOM     11  N   UNL     1      -4.355  14.241  21.935  0.00  0.00    +0.000 N 
ATOM     12  C   UNL     1      -4.515  14.967  23.146  0.00  0.00    +0.000 A 
ATOM     13  O   UNL     1      -5.468  15.660  23.485  0.00  0.00    +0.000 OA
ATOM     14  N   UNL     1      -3.369  14.747  23.905  0.00  0.00    +0.000 N 
ATOM     15  C   UNL     1      -3.112  15.298  25.206  0.00  0.00    +0.000 C 
ENDROOT
BRANCH   1  20
ATOM     16  C   UNL     1      -4.010   9.929  13.890  0.00  0.00    +0.000 C 
ATOM     17  C   UNL     1      -3.486  10.293  15.247  0.00  0.00    +0.000 A 
ATOM     18  C   UNL     1      -2.349   9.682  15.756  0.00  0.00    +0.000 A 
ATOM     19  C   UNL     1      -1.915  10.038  17.031  0.00  0.00    +0.000 A 
ATOM     20  C   UNL     1      -2.604  11.002  17.787  0.00  0.00    +0.000 A 
ATOM     21  C   UNL     1      -3.729  11.550  17.185  0.00  0.00    +0.000 A 
ATOM     22  N   UNL     1      -4.179  11.225  15.944  0.00  0.00    +0.000 NA
ENDBRANCH   1  20
BRANCH  11  23
ATOM     23  C   UNL     1      -5.368  14.220  20.889  0.00  0.00    +0.000 C 
ATOM     24  C   UNL     1      -5.541  15.614  20.256  0.00  0.00    +0.000 C 
ATOM     25  C   UNL     1      -6.720  15.648  19.297  0.00  0.00    +0.000 C 
ATOM     26  O   UNL     1      -7.915  15.212  19.939  0.00  0.00    +0.000 OA
ATOM     27  C   UNL     1      -7.820  13.866  20.396  0.00  0.00    +0.000 C 
ATOM     28  C   UNL     1      -6.719  13.721  21.433  0.00  0.00    +0.000 C 
ENDBRANCH  11  23
TORSDOF 2
ENDMDL
MODEL 6
REMARK VINA RESULT:      -6.6      1.978      3.881
REMARK  Name = 
REMARK  4 active torsions:
REMARK  status: ('A' for Active; 'I' for Inactive)
REMARK    1  A    between atoms: C_1  and  C_2
REMARK    2  A    between atoms: C_5  and  C_6
REMARK    3  A    between atoms: N_16  and  C_17
REMARK    4  A    between atoms: N_25  and  C_26
REMARK                            x       y       z     vdW  Elec       q    Type
REMARK                         _______ _______ _______ _____ _____    ______ ____
ROOT
ATOM      1  C   UNL     1      -2.127  11.545  18.974  0.00  0.00    +0.000 A 
ATOM      2  C   UNL     1      -0.792  11.325  19.291  0.00  0.00    +0.000 A 
ATOM      3  C   UNL     1      -0.303  11.783  20.499  0.00  0.00    +0.000 A 
ATOM      4  C   UNL     1      -1.118  12.447  21.385  0.00  0.00    +0.000 A 
ATOM      5  N   UNL     1      -0.518  12.829  22.531  0.00  0.00    +0.000 NA
ATOM      6  C   UNL     1      -1.253  13.474  23.446  0.00  0.00    +0.000 A 
ATOM      7  C   UNL     1      -2.574  13.732  23.219  0.00  0.00    +0.000 A 
ATOM      8  C   UNL     1      -3.198  13.336  22.026  0.00  0.00    +0.000 A 
ATOM      9  C   UNL     1      -2.481  12.659  21.025  0.00  0.00    +0.000 A 
ATOM     10  N   UNL     1      -2.967  12.217  19.817  0.00  0.00    +0.000 NA
ATOM     11  N   UNL     1      -4.558  13.762  22.143  0.00  0.00    +0.000 N 
ATOM     12  C   UNL     1      -4.730  14.404  23.400  0.00  0.00    +0.000 A 
ATOM     13  O   UNL     1      -5.756  14.894  23.858  0.00  0.00    +0.000 OA
ATOM     14  N   UNL     1      -3.495  14.376  24.042  0.00  0.00    +0.000 N 
ATOM     15  C   UNL     1      -3.218  14.920  25.342  0.00  0.00    +0.000 C 
ENDROOT
BRANCH   1  20
ATOM     16  C   UNL     1      -4.161   9.864  13.870  0.00  0.00    +0.000 C 
ATOM     17  C   UNL     1      -3.602  10.268  15.201  0.00  0.00    +0.000 A 
ATOM     18  C   UNL     1      -2.444   9.681  15.692  0.00  0.00    +0.000 A 
ATOM     19  C   UNL     1      -1.977  10.075  16.944  0.00  0.00    +0.000 A 
ATOM     20  C   UNL     1      -2.654  11.053  17.694  0.00  0.00    +0.000 A 
ATOM     21  C   UNL     1      -3.801  11.574  17.110  0.00  0.00    +0.000 A 
ATOM     22  N   UNL     1      -4.283  11.213  15.892  0.00  0.00    +0.000 NA
ENDBRANCH   1  20
BRANCH  11  23
ATOM     23  C   UNL     1      -5.646  13.588  21.192  0.00  0.00    +0.000 C 
ATOM     24  C   UNL     1      -5.933  12.096  20.941  0.00  0.00    +0.000 C 
ATOM     25  C   UNL     1      -6.936  11.902  19.815  0.00  0.00    +0.000 C 
ATOM     26  O   UNL     1      -6.505  12.560  18.627  0.00  0.00    +0.000 OA
ATOM     27  C   UNL     1      -6.383  13.968  18.806  0.00  0.00    +0.000 C 
ATOM     28  C   UNL     1      -5.337  14.293  19.859  0.00  0.00    +0.000 C 
ENDBRANCH  11  23
TORSDOF 2
ENDMDL
MODEL 7
REMARK VINA RESULT:      -6.6      2.502      5.688
REMARK  Name = 
REMARK  4 active torsions:
REMARK  status: ('A' for Active; 'I' for Inactive)
REMARK    1  A    between atoms: C_1  and  C_2
REMARK    2  A    between atoms: C_5  and  C_6
REMARK    3  A    between atoms: N_16  and  C_17
REMARK    4  A    between atoms: N_25  and  C_26
REMARK                            x       y       z     vdW  Elec       q    Type
REMARK                         _______ _______ _______ _____ _____    ______ ____
ROOT
ATOM      1  C   UNL     1      -0.877  14.170  20.677  0.00  0.00    +0.000 A 
ATOM      2  C   UNL     1      -1.106  14.787  21.900  0.00  0.00    +0.000 A 
ATOM      3  C   UNL     1      -2.343  14.657  22.499  0.00  0.00    +0.000 A 
ATOM      4  C   UNL     1      -3.343  13.926  21.901  0.00  0.00    +0.000 A 
ATOM      5  N   UNL     1      -4.498  13.868  22.597  0.00  0.00    +0.000 NA
ATOM      6  C   UNL     1      -5.514  13.166  22.079  0.00  0.00    +0.000 A 
ATOM      7  C   UNL     1      -5.377  12.526  20.881  0.00  0.00    +0.000 A 
ATOM      8  C   UNL     1      -4.177  12.587  20.157  0.00  0.00    +0.000 A 
ATOM      9  C   UNL     1      -3.074  13.310  20.644  0.00  0.00    +0.000 A 
ATOM     10  N   UNL     1      -1.848  13.450  20.038  0.00  0.00    +0.000 NA
ATOM     11  N   UNL     1      -4.398  11.808  18.979  0.00  0.00    +0.000 N 
ATOM     12  C   UNL     1      -5.722  11.292  19.014  0.00  0.00    +0.000 A 
ATOM     13  O   UNL     1      -6.271  10.576  18.183  0.00  0.00    +0.000 OA
ATOM     14  N   UNL     1      -6.306  11.750  20.192  0.00  0.00    +0.000 N 
ATOM     15  C   UNL     1      -7.644  11.465  20.625  0.00  0.00    +0.000 C 
ENDROOT
BRANCH   1  20
ATOM     16  C   UNL     1       4.205  14.492  18.013  0.00  0.00    +0.000 C 
ATOM     17  C   UNL     1       2.876  14.452  18.706  0.00  0.00    +0.000 A 
ATOM     18  C   UNL     1       2.071  15.581  18.761  0.00  0.00    +0.000 A 
ATOM     19  C   UNL     1       0.855  15.500  19.435  0.00  0.00    +0.000 A 
ATOM     20  C   UNL     1       0.441  14.300  20.040  0.00  0.00    +0.000 A 
ATOM     21  C   UNL     1       1.322  13.232  19.926  0.00  0.00    +0.000 A 
ATOM     22  N   UNL     1       2.515  13.278  19.275  0.00  0.00    +0.000 NA
ENDBRANCH   1  20
BRANCH  11  23
ATOM     23  C   UNL     1      -3.472  11.526  17.892  0.00  0.00    +0.000 C 
ATOM     24  C   UNL     1      -4.203  11.475  16.538  0.00  0.00    +0.000 C 
ATOM     25  C   UNL     1      -3.283  10.999  15.424  0.00  0.00    +0.000 C 
ATOM     26  O   UNL     1      -2.693   9.743  15.749  0.00  0.00    +0.000 OA
ATOM     27  C   UNL     1      -1.886   9.815  16.922  0.00  0.00    +0.000 C 
ATOM     28  C   UNL     1      -2.720  10.204  18.131  0.00  0.00    +0.000 C 
ENDBRANCH  11  23
TORSDOF 2
ENDMDL
MODEL 8
REMARK VINA RESULT:      -6.5      0.959      1.216
REMARK  Name = 
REMARK  4 active torsions:
REMARK  status: ('A' for Active; 'I' for Inactive)
REMARK    1  A    between atoms: C_1  and  C_2
REMARK    2  A    between atoms: C_5  and  C_6
REMARK    3  A    between atoms: N_16  and  C_17
REMARK    4  A    between atoms: N_25  and  C_26
REMARK                            x       y       z     vdW  Elec       q    Type
REMARK                         _______ _______ _______ _____ _____    ______ ____
ROOT
ATOM      1  C   UNL     1      -4.097  12.325  19.703  0.00  0.00    +0.000 A 
ATOM      2  C   UNL     1      -5.377  12.172  20.223  0.00  0.00    +0.000 A 
ATOM      3  C   UNL     1      -5.656  12.669  21.480  0.00  0.00    +0.000 A 
ATOM      4  C   UNL     1      -4.689  13.311  22.217  0.00  0.00    +0.000 A 
ATOM      5  N   UNL     1      -5.097  13.758  23.423  0.00  0.00    +0.000 NA
ATOM      6  C   UNL     1      -4.210  14.402  24.193  0.00  0.00    +0.000 A 
ATOM      7  C   UNL     1      -2.930  14.599  23.761  0.00  0.00    +0.000 A 
ATOM      8  C   UNL     1      -2.505  14.132  22.508  0.00  0.00    +0.000 A 
ATOM      9  C   UNL     1      -3.387  13.446  21.654  0.00  0.00    +0.000 A 
ATOM     10  N   UNL     1      -3.101  12.940  20.409  0.00  0.00    +0.000 NA
ATOM     11  N   UNL     1      -1.133  14.519  22.398  0.00  0.00    +0.000 N 
ATOM     12  C   UNL     1      -0.756  15.210  23.582  0.00  0.00    +0.000 A 
ATOM     13  O   UNL     1       0.336  15.697  23.851  0.00  0.00    +0.000 OA
ATOM     14  N   UNL     1      -1.878  15.243  24.406  0.00  0.00    +0.000 N 
ATOM     15  C   UNL     1      -1.938  15.847  25.708  0.00  0.00    +0.000 C 
ENDROOT
BRANCH   1  20
ATOM     16  C   UNL     1      -2.873  10.056  14.567  0.00  0.00    +0.000 C 
ATOM     17  C   UNL     1      -3.230  10.664  15.890  0.00  0.00    +0.000 A 
ATOM     18  C   UNL     1      -4.502  11.172  16.118  0.00  0.00    +0.000 A 
ATOM     19  C   UNL     1      -4.778  11.746  17.356  0.00  0.00    +0.000 A 
ATOM     20  C   UNL     1      -3.798  11.805  18.362  0.00  0.00    +0.000 A 
ATOM     21  C   UNL     1      -2.560  11.270  18.030  0.00  0.00    +0.000 A 
ATOM     22  N   UNL     1      -2.258  10.702  16.832  0.00  0.00    +0.000 NA
ENDBRANCH   1  20
BRANCH  11  23
ATOM     23  C   UNL     1      -0.216  14.299  21.289  0.00  0.00    +0.000 C 
ATOM     24  C   UNL     1      -0.722  14.982  20.005  0.00  0.00    +0.000 C 
ATOM     25  C   UNL     1       0.127  14.605  18.801  0.00  0.00    +0.000 C 
ATOM     26  O   UNL     1       0.199  13.191  18.648  0.00  0.00    +0.000 OA
ATOM     27  C   UNL     1       0.808  12.559  19.771  0.00  0.00    +0.000 C 
ATOM     28  C   UNL     1      -0.003  12.796  21.034  0.00  0.00    +0.000 C 
ENDBRANCH  11  23
TORSDOF 2
ENDMDL
MODEL 9
REMARK VINA RESULT:      -6.5      4.230      5.354
REMARK  Name = 
REMARK  4 active torsions:
REMARK  status: ('A' for Active; 'I' for Inactive)
REMARK    1  A    between atoms: C_1  and  C_2
REMARK    2  A    between atoms: C_5  and  C_6
REMARK    3  A    between atoms: N_16  and  C_17
REMARK    4  A    between atoms: N_25  and  C_26
REMARK                            x       y       z     vdW  Elec       q    Type
REMARK                         _______ _______ _______ _____ _____    ______ ____
ROOT
ATOM      1  C   UNL     1       0.904   9.009  20.721  0.00  0.00    +0.000 A 
ATOM      2  C   UNL     1      -0.006   8.340  21.530  0.00  0.00    +0.000 A 
ATOM      3  C   UNL     1      -0.826   9.071  22.367  0.00  0.00    +0.000 A 
ATOM      4  C   UNL     1      -0.754  10.443  22.405  0.00  0.00    +0.000 A 
ATOM      5  N   UNL     1      -1.618  11.034  23.256  0.00  0.00    +0.000 NA
ATOM      6  C   UNL     1      -1.610  12.371  23.340  0.00  0.00    +0.000 A 
ATOM      7  C   UNL     1      -0.750  13.109  22.579  0.00  0.00    +0.000 A 
ATOM      8  C   UNL     1       0.150  12.494  21.695  0.00  0.00    +0.000 A 
ATOM      9  C   UNL     1       0.194  11.096  21.564  0.00  0.00    +0.000 A 
ATOM     10  N   UNL     1       1.022  10.371  20.740  0.00  0.00    +0.000 NA
ATOM     11  N   UNL     1       0.872  13.563  21.078  0.00  0.00    +0.000 N 
ATOM     12  C   UNL     1       0.396  14.798  21.597  0.00  0.00    +0.000 A 
ATOM     13  O   UNL     1       0.769  15.928  21.304  0.00  0.00    +0.000 OA
ATOM     14  N   UNL     1      -0.599  14.492  22.521  0.00  0.00    +0.000 N 
ATOM     15  C   UNL     1      -1.348  15.449  23.286  0.00  0.00    +0.000 C 
ENDROOT
BRANCH   1  20
ATOM     16  C   UNL     1       4.119   5.798  17.203  0.00  0.00    +0.000 C 
ATOM     17  C   UNL     1       3.286   6.671  18.093  0.00  0.00    +0.000 A 
ATOM     18  C   UNL     1       2.875   7.928  17.673  0.00  0.00    +0.000 A 
ATOM     19  C   UNL     1       2.122   8.709  18.545  0.00  0.00    +0.000 A 
ATOM     20  C   UNL     1       1.773   8.236  19.822  0.00  0.00    +0.000 A 
ATOM     21  C   UNL     1       2.236   6.967  20.143  0.00  0.00    +0.000 A 
ATOM     22  N   UNL     1       2.972   6.179  19.315  0.00  0.00    +0.000 NA
ENDBRANCH   1  20
BRANCH  11  23
ATOM     23  C   UNL     1       1.917  13.484  20.066  0.00  0.00    +0.000 C 
ATOM     24  C   UNL     1       3.071  14.453  20.384  0.00  0.00    +0.000 C 
ATOM     25  C   UNL     1       4.076  14.516  19.244  0.00  0.00    +0.000 C 
ATOM     26  O   UNL     1       3.436  14.848  18.015  0.00  0.00    +0.000 OA
ATOM     27  C   UNL     1       2.468  13.874  17.632  0.00  0.00    +0.000 C 
ATOM     28  C   UNL     1       1.356  13.780  18.664  0.00  0.00    +0.000 C 
ENDBRANCH  11  23
TORSDOF 2
ENDMDL
