MODEL 1
REMARK VINA RESULT:      -9.0      0.000      0.000
REMARK  Name = 
REMARK  6 active torsions:
REMARK  status: ('A' for Active; 'I' for Inactive)
REMARK    1  A    between atoms: C_4  and  C_5
REMARK    2  A    between atoms: C_5  and  O_6
REMARK    3  A    between atoms: O_6  and  C_7
REMARK    4  A    between atoms: C_11  and  C_12
REMARK    5  A    between atoms: C_25  and  O_26
REMARK    6  A    between atoms: O_26  and  C_27
REMARK                            x       y       z     vdW  Elec       q    Type
REMARK                         _______ _______ _______ _____ _____    ______ ____
ROOT
ATOM      1  C   UNL     1       0.924  10.180  18.875  0.00  0.00    +0.000 C 
ENDROOT
BRANCH   1   5
ATOM      2  F   UNL     1      -2.737  13.172  20.003  0.00  0.00    +0.000 F 
ATOM      3  C   UNL     1      -2.328  12.126  19.272  0.00  0.00    +0.000 A 
ATOM      4  C   UNL     1      -1.015  11.683  19.455  0.00  0.00    +0.000 A 
ATOM      5  C   UNL     1      -0.507  10.627  18.688  0.00  0.00    +0.000 A 
ATOM      6  C   UNL     1      -1.334  10.059  17.710  0.00  0.00    +0.000 A 
ATOM      7  C   UNL     1      -2.652  10.490  17.561  0.00  0.00    +0.000 A 
ATOM      8  F   UNL     1      -3.410   9.908  16.621  0.00  0.00    +0.000 F 
ATOM      9  C   UNL     1      -3.179  11.503  18.360  0.00  0.00    +0.000 A 
BRANCH   9  10
ATOM     10  O   UNL     1      -4.482  11.859  18.111  0.00  0.00    +0.000 OA
BRANCH  10  11
ATOM     11  C   UNL     1      -5.507  11.364  18.884  0.00  0.00    +0.000 A 
ATOM     12  C   UNL     1      -5.929  12.197  19.924  0.00  0.00    +0.000 A 
ATOM     13  C   UNL     1      -6.954  11.793  20.781  0.00  0.00    +0.000 A 
ATOM     14  C   UNL     1      -7.562  10.552  20.600  0.00  0.00    +0.000 A 
ATOM     15  C   UNL     1      -7.172   9.734  19.540  0.00  0.00    +0.000 A 
ATOM     16  C   UNL     1      -6.167  10.152  18.665  0.00  0.00    +0.000 A 
ENDBRANCH  10  11
ENDBRANCH   9  10
ENDBRANCH   1   5
BRANCH   1  17
ATOM     17  O   UNL     1       0.950   9.006  19.701  0.00  0.00    +0.000 OA
BRANCH  17  18
ATOM     18  C   UNL     1       1.844   8.054  19.343  0.00  0.00    +0.000 A 
ATOM     19  C   UNL     1       2.471   8.454  18.065  0.00  0.00    +0.000 A 
ATOM     20  C   UNL     1       3.391   7.593  17.606  0.00  0.00    +0.000 A 
ATOM     21  N   UNL     1       3.658   6.419  18.311  0.00  0.00    +0.000 N 
ATOM     22  C   UNL     1       4.515   5.357  18.049  0.00  0.00    +0.000 A 
ATOM     23  C   UNL     1       4.372   4.537  19.156  0.00  0.00    +0.000 A 
ATOM     24  N   UNL     1       3.456   5.023  20.044  0.00  0.00    +0.000 NA
ATOM     25  C   UNL     1       3.016   6.148  19.528  0.00  0.00    +0.000 A 
ATOM     26  N   UNL     1       2.078   6.994  20.044  0.00  0.00    +0.000 NA
BRANCH  22  27
ATOM     27  C   UNL     1       5.363   5.161  16.873  0.00  0.00    +0.000 A 
ATOM     28  C   UNL     1       6.552   5.853  16.704  0.00  0.00    +0.000 A 
ATOM     29  N   UNL     1       7.399   5.682  15.663  0.00  0.00    +0.000 NA
ATOM     30  C   UNL     1       7.029   4.770  14.757  0.00  0.00    +0.000 A 
ATOM     31  N   UNL     1       5.913   4.029  14.803  0.00  0.00    +0.000 NA
ATOM     32  C   UNL     1       5.115   4.236  15.875  0.00  0.00    +0.000 A 
ENDBRANCH  22  27
ENDBRANCH  17  18
ENDBRANCH   1  17
TORSDOF 6
ENDMDL
MODEL 2
REMARK VINA RESULT:      -8.7      4.812     10.644
REMARK  Name = 
REMARK  6 active torsions:
REMARK  status: ('A' for Active; 'I' for Inactive)
REMARK    1  A    between atoms: C_4  and  C_5
REMARK    2  A    between atoms: C_5  and  O_6
REMARK    3  A    between atoms: O_6  and  C_7
REMARK    4  A    between atoms: C_11  and  C_12
REMARK    5  A    between atoms: C_25  and  O_26
REMARK    6  A    between atoms: O_26  and  C_27
REMARK                            x       y       z     vdW  Elec       q    Type
REMARK                         _______ _______ _______ _____ _____    ______ ____
ROOT
ATOM      1  C   UNL     1       3.833   5.598  19.662  0.00  0.00    +0.000 C 
ENDROOT
BRANCH   1   5
ATOM      2  F   UNL     1       8.045   4.245  17.648  0.00  0.00    +0.000 F 
ATOM      3  C   UNL     1       6.911   4.946  17.513  0.00  0.00    +0.000 A 
ATOM      4  C   UNL     1       6.023   4.954  18.592  0.00  0.00    +0.000 A 
ATOM      5  C   UNL     1       4.797   5.624  18.499  0.00  0.00    +0.000 A 
ATOM      6  C   UNL     1       4.472   6.249  17.288  0.00  0.00    +0.000 A 
ATOM      7  C   UNL     1       5.382   6.260  16.231  0.00  0.00    +0.000 A 
ATOM      8  F   UNL     1       5.032   6.881  15.095  0.00  0.00    +0.000 F 
ATOM      9  C   UNL     1       6.626   5.641  16.338  0.00  0.00    +0.000 A 
BRANCH   9  10
ATOM     10  O   UNL     1       7.432   5.698  15.228  0.00  0.00    +0.000 OA
BRANCH  10  11
ATOM     11  C   UNL     1       7.138   4.959  14.105  0.00  0.00    +0.000 A 
ATOM     12  C   UNL     1       7.840   5.318  12.951  0.00  0.00    +0.000 A 
ATOM     13  C   UNL     1       7.613   4.645  11.749  0.00  0.00    +0.000 A 
ATOM     14  C   UNL     1       6.684   3.607  11.699  0.00  0.00    +0.000 A 
ATOM     15  C   UNL     1       6.011   3.219  12.856  0.00  0.00    +0.000 A 
ATOM     16  C   UNL     1       6.259   3.873  14.064  0.00  0.00    +0.000 A 
ENDBRANCH  10  11
ENDBRANCH   9  10
ENDBRANCH   1   5
BRANCH   1  17
ATOM     17  O   UNL     1       2.517   5.934  19.195  0.00  0.00    +0.000 OA
BRANCH  17  18
ATOM     18  C   UNL     1       2.021   7.116  19.632  0.00  0.00    +0.000 A 
ATOM     19  C   UNL     1       2.050   8.081  18.513  0.00  0.00    +0.000 A 
ATOM     20  C   UNL     1       1.570   9.296  18.817  0.00  0.00    +0.000 A 
ATOM     21  N   UNL     1       1.128   9.565  20.113  0.00  0.00    +0.000 N 
ATOM     22  C   UNL     1       0.630  10.722  20.699  0.00  0.00    +0.000 A 
ATOM     23  C   UNL     1       0.311  10.328  21.988  0.00  0.00    +0.000 A 
ATOM     24  N   UNL     1       0.622   9.020  22.219  0.00  0.00    +0.000 NA
ATOM     25  C   UNL     1       1.128   8.565  21.096  0.00  0.00    +0.000 A 
ATOM     26  N   UNL     1       1.598   7.310  20.837  0.00  0.00    +0.000 NA
BRANCH  22  27
ATOM     27  C   UNL     1       0.484  12.044  20.088  0.00  0.00    +0.000 A 
ATOM     28  C   UNL     1       1.569  12.885  19.895  0.00  0.00    +0.000 A 
ATOM     29  N   UNL     1       1.504  14.097  19.296  0.00  0.00    +0.000 NA
ATOM     30  C   UNL     1       0.291  14.471  18.872  0.00  0.00    +0.000 A 
ATOM     31  N   UNL     1      -0.835  13.753  18.988  0.00  0.00    +0.000 NA
ATOM     32  C   UNL     1      -0.701  12.546  19.583  0.00  0.00    +0.000 A 
ENDBRANCH  22  27
ENDBRANCH  17  18
ENDBRANCH   1  17
TORSDOF 6
ENDMDL
MODEL 3
REMARK VINA RESULT:      -8.6      4.859     10.665
REMARK  Name = 
REMARK  6 active torsions:
REMARK  status: ('A' for Active; 'I' for Inactive)
REMARK    1  A    between atoms: C_4  and  C_5
REMARK    2  A    between atoms: C_5  and  O_6
REMARK    3  A    between atoms: O_6  and  C_7
REMARK    4  A    between atoms: C_11  and  C_12
REMARK    5  A    between atoms: C_25  and  O_26
REMARK    6  A    between atoms: O_26  and  C_27
REMARK                            x       y       z     vdW  Elec       q    Type
REMARK                         _______ _______ _______ _____ _____    ______ ____
ROOT
ATOM      1  C   UNL     1       3.876   5.577  19.647  0.00  0.00    +0.000 C 
ENDROOT
BRANCH   1   5
ATOM      2  F   UNL     1       8.069   4.177  17.624  0.00  0.00    +0.000 F 
ATOM      3  C   UNL     1       6.948   4.900  17.496  0.00  0.00    +0.000 A 
ATOM      4  C   UNL     1       6.057   4.909  18.573  0.00  0.00    +0.000 A 
ATOM      5  C   UNL     1       4.844   5.602  18.487  0.00  0.00    +0.000 A 
ATOM      6  C   UNL     1       4.532   6.249  17.283  0.00  0.00    +0.000 A 
ATOM      7  C   UNL     1       5.445   6.258  16.228  0.00  0.00    +0.000 A 
ATOM      8  F   UNL     1       5.109   6.900  15.100  0.00  0.00    +0.000 F 
ATOM      9  C   UNL     1       6.678   5.615  16.329  0.00  0.00    +0.000 A 
BRANCH   9  10
ATOM     10  O   UNL     1       7.488   5.673  15.222  0.00  0.00    +0.000 OA
BRANCH  10  11
ATOM     11  C   UNL     1       7.173   4.969  14.083  0.00  0.00    +0.000 A 
ATOM     12  C   UNL     1       6.133   4.045  14.217  0.00  0.00    +0.000 A 
ATOM     13  C   UNL     1       5.737   3.264  13.130  0.00  0.00    +0.000 A 
ATOM     14  C   UNL     1       6.380   3.407  11.902  0.00  0.00    +0.000 A 
ATOM     15  C   UNL     1       7.391   4.355  11.751  0.00  0.00    +0.000 A 
ATOM     16  C   UNL     1       7.767   5.157  12.832  0.00  0.00    +0.000 A 
ENDBRANCH  10  11
ENDBRANCH   9  10
ENDBRANCH   1   5
BRANCH   1  17
ATOM     17  O   UNL     1       2.559   5.893  19.172  0.00  0.00    +0.000 OA
BRANCH  17  18
ATOM     18  C   UNL     1       2.042   7.067  19.607  0.00  0.00    +0.000 A 
ATOM     19  C   UNL     1       2.032   8.023  18.480  0.00  0.00    +0.000 A 
ATOM     20  C   UNL     1       1.528   9.229  18.781  0.00  0.00    +0.000 A 
ATOM     21  N   UNL     1       1.099   9.499  20.081  0.00  0.00    +0.000 N 
ATOM     22  C   UNL     1       0.583  10.649  20.665  0.00  0.00    +0.000 A 
ATOM     23  C   UNL     1       0.292  10.258  21.962  0.00  0.00    +0.000 A 
ATOM     24  N   UNL     1       0.637   8.960  22.199  0.00  0.00    +0.000 NA
ATOM     25  C   UNL     1       1.136   8.507  21.072  0.00  0.00    +0.000 A 
ATOM     26  N   UNL     1       1.631   7.262  20.816  0.00  0.00    +0.000 NA
BRANCH  22  27
ATOM     27  C   UNL     1       0.397  11.961  20.046  0.00  0.00    +0.000 A 
ATOM     28  C   UNL     1      -0.370  12.130  18.903  0.00  0.00    +0.000 A 
ATOM     29  N   UNL     1      -0.614  13.322  18.312  0.00  0.00    +0.000 NA
ATOM     30  C   UNL     1      -0.062  14.388  18.902  0.00  0.00    +0.000 A 
ATOM     31  N   UNL     1       0.693  14.366  20.010  0.00  0.00    +0.000 NA
ATOM     32  C   UNL     1       0.888  13.147  20.562  0.00  0.00    +0.000 A 
ENDBRANCH  22  27
ENDBRANCH  17  18
ENDBRANCH   1  17
TORSDOF 6
ENDMDL
MODEL 4
REMARK VINA RESULT:      -8.6      5.587      8.705
REMARK  Name = 
REMARK  6 active torsions:
REMARK  status: ('A' for Active; 'I' for Inactive)
REMARK    1  A    between atoms: C_4  and  C_5
REMARK    2  A    between atoms: C_5  and  O_6
REMARK    3  A    between atoms: O_6  and  C_7
REMARK    4  A    between atoms: C_11  and  C_12
REMARK    5  A    between atoms: C_25  and  O_26
REMARK    6  A    between atoms: O_26  and  C_27
REMARK                            x       y       z     vdW  Elec       q    Type
REMARK                         _______ _______ _______ _____ _____    ______ ____
ROOT
ATOM      1  C   UNL     1       0.367  11.400  18.483  0.00  0.00    +0.000 C 
ENDROOT
BRANCH   1   5
ATOM      2  F   UNL     1       1.124   7.719  21.567  0.00  0.00    +0.000 F 
ATOM      3  C   UNL     1       1.415   8.264  20.377  0.00  0.00    +0.000 A 
ATOM      4  C   UNL     1       0.821   9.490  20.065  0.00  0.00    +0.000 A 
ATOM      5  C   UNL     1       1.041  10.091  18.819  0.00  0.00    +0.000 A 
ATOM      6  C   UNL     1       1.836   9.412  17.886  0.00  0.00    +0.000 A 
ATOM      7  C   UNL     1       2.448   8.205  18.224  0.00  0.00    +0.000 A 
ATOM      8  F   UNL     1       3.211   7.597  17.303  0.00  0.00    +0.000 F 
ATOM      9  C   UNL     1       2.276   7.631  19.482  0.00  0.00    +0.000 A 
BRANCH   9  10
ATOM     10  O   UNL     1       2.910   6.431  19.696  0.00  0.00    +0.000 OA
BRANCH  10  11
ATOM     11  C   UNL     1       2.247   5.241  19.507  0.00  0.00    +0.000 A 
ATOM     12  C   UNL     1       1.766   4.632  20.669  0.00  0.00    +0.000 A 
ATOM     13  C   UNL     1       1.088   3.414  20.599  0.00  0.00    +0.000 A 
ATOM     14  C   UNL     1       0.888   2.800  19.363  0.00  0.00    +0.000 A 
ATOM     15  C   UNL     1       1.331   3.423  18.197  0.00  0.00    +0.000 A 
ATOM     16  C   UNL     1       1.983   4.656  18.265  0.00  0.00    +0.000 A 
ENDBRANCH  10  11
ENDBRANCH   9  10
ENDBRANCH   1   5
BRANCH   1  17
ATOM     17  O   UNL     1       0.308  12.219  19.661  0.00  0.00    +0.000 OA
BRANCH  17  18
ATOM     18  C   UNL     1       1.432  12.920  19.948  0.00  0.00    +0.000 A 
ATOM     19  C   UNL     1       2.026  13.394  18.680  0.00  0.00    +0.000 A 
ATOM     20  C   UNL     1       3.146  14.117  18.830  0.00  0.00    +0.000 A 
ATOM     21  N   UNL     1       3.667  14.336  20.105  0.00  0.00    +0.000 N 
ATOM     22  C   UNL     1       4.808  15.000  20.537  0.00  0.00    +0.000 A 
ATOM     23  C   UNL     1       4.734  14.922  21.917  0.00  0.00    +0.000 A 
ATOM     24  N   UNL     1       3.641  14.220  22.336  0.00  0.00    +0.000 NA
ATOM     25  C   UNL     1       3.008  13.853  21.245  0.00  0.00    +0.000 A 
ATOM     26  N   UNL     1       1.861  13.120  21.149  0.00  0.00    +0.000 NA
BRANCH  22  27
ATOM     27  C   UNL     1       5.842  15.630  19.714  0.00  0.00    +0.000 A 
ATOM     28  C   UNL     1       5.913  17.006  19.554  0.00  0.00    +0.000 A 
ATOM     29  N   UNL     1       6.870  17.647  18.844  0.00  0.00    +0.000 NA
ATOM     30  C   UNL     1       7.795  16.865  18.276  0.00  0.00    +0.000 A 
ATOM     31  N   UNL     1       7.847  15.529  18.358  0.00  0.00    +0.000 NA
ATOM     32  C   UNL     1       6.871  14.948  19.093  0.00  0.00    +0.000 A 
ENDBRANCH  22  27
ENDBRANCH  17  18
ENDBRANCH   1  17
TORSDOF 6
ENDMDL
MODEL 5
REMARK VINA RESULT:      -8.6      7.575     10.746
REMARK  Name = 
REMARK  6 active torsions:
REMARK  status: ('A' for Active; 'I' for Inactive)
REMARK    1  A    between atoms: C_4  and  C_5
REMARK    2  A    between atoms: C_5  and  O_6
REMARK    3  A    between atoms: O_6  and  C_7
REMARK    4  A    between atoms: C_11  and  C_12
REMARK    5  A    between atoms: C_25  and  O_26
REMARK    6  A    between atoms: O_26  and  C_27
REMARK                            x       y       z     vdW  Elec       q    Type
REMARK                         _______ _______ _______ _____ _____    ______ ____
ROOT
ATOM      1  C   UNL     1       8.347   8.020  18.444  0.00  0.00    +0.000 C 
ENDROOT
BRANCH   1   5
ATOM      2  F   UNL     1       5.376   6.130  15.093  0.00  0.00    +0.000 F 
ATOM      3  C   UNL     1       5.914   6.005  16.314  0.00  0.00    +0.000 A 
ATOM      4  C   UNL     1       6.767   7.021  16.752  0.00  0.00    +0.000 A 
ATOM      5  C   UNL     1       7.402   6.930  17.997  0.00  0.00    +0.000 A 
ATOM      6  C   UNL     1       7.190   5.779  18.767  0.00  0.00    +0.000 A 
ATOM      7  C   UNL     1       6.310   4.788  18.331  0.00  0.00    +0.000 A 
ATOM      8  F   UNL     1       6.129   3.710  19.108  0.00  0.00    +0.000 F 
ATOM      9  C   UNL     1       5.634   4.901  17.118  0.00  0.00    +0.000 A 
BRANCH   9  10
ATOM     10  O   UNL     1       4.808   3.856  16.782  0.00  0.00    +0.000 OA
BRANCH  10  11
ATOM     11  C   UNL     1       3.597   3.685  17.413  0.00  0.00    +0.000 A 
ATOM     12  C   UNL     1       3.317   2.379  17.826  0.00  0.00    +0.000 A 
ATOM     13  C   UNL     1       2.112   2.085  18.466  0.00  0.00    +0.000 A 
ATOM     14  C   UNL     1       1.182   3.097  18.696  0.00  0.00    +0.000 A 
ATOM     15  C   UNL     1       1.474   4.408  18.321  0.00  0.00    +0.000 A 
ATOM     16  C   UNL     1       2.692   4.707  17.708  0.00  0.00    +0.000 A 
ENDBRANCH  10  11
ENDBRANCH   9  10
ENDBRANCH   1   5
BRANCH   1  17
ATOM     17  O   UNL     1       7.876   9.286  17.955  0.00  0.00    +0.000 OA
BRANCH  17  18
ATOM     18  C   UNL     1       8.637  10.360  18.273  0.00  0.00    +0.000 A 
ATOM     19  C   UNL     1       8.176  11.516  17.475  0.00  0.00    +0.000 A 
ATOM     20  C   UNL     1       8.848  12.653  17.709  0.00  0.00    +0.000 A 
ATOM     21  N   UNL     1       9.904  12.663  18.620  0.00  0.00    +0.000 N 
ATOM     22  C   UNL     1      10.775  13.670  19.016  0.00  0.00    +0.000 A 
ATOM     23  C   UNL     1      11.553  13.068  19.991  0.00  0.00    +0.000 A 
ATOM     24  N   UNL     1      11.227  11.756  20.175  0.00  0.00    +0.000 NA
ATOM     25  C   UNL     1      10.245  11.508  19.339  0.00  0.00    +0.000 A 
ATOM     26  N   UNL     1       9.589  10.327  19.146  0.00  0.00    +0.000 NA
BRANCH  22  27
ATOM     27  C   UNL     1      10.846  15.041  18.511  0.00  0.00    +0.000 A 
ATOM     28  C   UNL     1      10.033  16.048  19.008  0.00  0.00    +0.000 A 
ATOM     29  N   UNL     1      10.084  17.341  18.614  0.00  0.00    +0.000 NA
ATOM     30  C   UNL     1      10.998  17.628  17.680  0.00  0.00    +0.000 A 
ATOM     31  N   UNL     1      11.848  16.755  17.122  0.00  0.00    +0.000 NA
ATOM     32  C   UNL     1      11.757  15.482  17.569  0.00  0.00    +0.000 A 
ENDBRANCH  22  27
ENDBRANCH  17  18
ENDBRANCH   1  17
TORSDOF 6
ENDMDL
MODEL 6
REMARK VINA RESULT:      -8.5      4.243     10.778
REMARK  Name = 
REMARK  6 active torsions:
REMARK  status: ('A' for Active; 'I' for Inactive)
REMARK    1  A    between atoms: C_4  and  C_5
REMARK    2  A    between atoms: C_5  and  O_6
REMARK    3  A    between atoms: O_6  and  C_7
REMARK    4  A    between atoms: C_11  and  C_12
REMARK    5  A    between atoms: C_25  and  O_26
REMARK    6  A    between atoms: O_26  and  C_27
REMARK                            x       y       z     vdW  Elec       q    Type
REMARK                         _______ _______ _______ _____ _____    ______ ____
ROOT
ATOM      1  C   UNL     1       0.817   9.605  20.261  0.00  0.00    +0.000 C 
ENDROOT
BRANCH   1   5
ATOM      2  F   UNL     1       3.580   7.239  17.036  0.00  0.00    +0.000 F 
ATOM      3  C   UNL     1       2.906   7.180  18.194  0.00  0.00    +0.000 A 
ATOM      4  C   UNL     1       2.215   8.325  18.598  0.00  0.00    +0.000 A 
ATOM      5  C   UNL     1       1.533   8.349  19.821  0.00  0.00    +0.000 A 
ATOM      6  C   UNL     1       1.596   7.214  20.639  0.00  0.00    +0.000 A 
ATOM      7  C   UNL     1       2.262   6.067  20.207  0.00  0.00    +0.000 A 
ATOM      8  F   UNL     1       2.286   4.999  21.018  0.00  0.00    +0.000 F 
ATOM      9  C   UNL     1       2.897   6.020  18.967  0.00  0.00    +0.000 A 
BRANCH   9  10
ATOM     10  O   UNL     1       3.538   4.846  18.655  0.00  0.00    +0.000 OA
BRANCH  10  11
ATOM     11  C   UNL     1       4.862   4.845  18.283  0.00  0.00    +0.000 A 
ATOM     12  C   UNL     1       5.120   4.388  16.987  0.00  0.00    +0.000 A 
ATOM     13  C   UNL     1       6.429   4.332  16.506  0.00  0.00    +0.000 A 
ATOM     14  C   UNL     1       7.487   4.734  17.320  0.00  0.00    +0.000 A 
ATOM     15  C   UNL     1       7.232   5.228  18.599  0.00  0.00    +0.000 A 
ATOM     16  C   UNL     1       5.919   5.313  19.069  0.00  0.00    +0.000 A 
ENDBRANCH  10  11
ENDBRANCH   9  10
ENDBRANCH   1   5
BRANCH   1  17
ATOM     17  O   UNL     1       0.727  10.512  19.151  0.00  0.00    +0.000 OA
BRANCH  17  18
ATOM     18  C   UNL     1      -0.508  10.665  18.614  0.00  0.00    +0.000 A 
ATOM     19  C   UNL     1      -1.307  11.528  19.510  0.00  0.00    +0.000 A 
ATOM     20  C   UNL     1      -2.554  11.767  19.080  0.00  0.00    +0.000 A 
ATOM     21  N   UNL     1      -3.004  11.188  17.893  0.00  0.00    +0.000 N 
ATOM     22  C   UNL     1      -4.234  11.235  17.249  0.00  0.00    +0.000 A 
ATOM     23  C   UNL     1      -4.026  10.511  16.087  0.00  0.00    +0.000 A 
ATOM     24  N   UNL     1      -2.761  10.004  16.015  0.00  0.00    +0.000 NA
ATOM     25  C   UNL     1      -2.151  10.398  17.109  0.00  0.00    +0.000 A 
ATOM     26  N   UNL     1      -0.870  10.131  17.496  0.00  0.00    +0.000 NA
BRANCH  22  27
ATOM     27  C   UNL     1      -5.458  11.895  17.704  0.00  0.00    +0.000 A 
ATOM     28  C   UNL     1      -6.042  12.930  16.989  0.00  0.00    +0.000 A 
ATOM     29  N   UNL     1      -7.194  13.548  17.335  0.00  0.00    +0.000 NA
ATOM     30  C   UNL     1      -7.783  13.098  18.449  0.00  0.00    +0.000 A 
ATOM     31  N   UNL     1      -7.331  12.105  19.227  0.00  0.00    +0.000 NA
ATOM     32  C   UNL     1      -6.182  11.518  18.820  0.00  0.00    +0.000 A 
ENDBRANCH  22  27
ENDBRANCH  17  18
ENDBRANCH   1  17
TORSDOF 6
ENDMDL
MODEL 7
REMARK VINA RESULT:      -8.5      5.365     10.466
REMARK  Name = 
REMARK  6 active torsions:
REMARK  status: ('A' for Active; 'I' for Inactive)
REMARK    1  A    between atoms: C_4  and  C_5
REMARK    2  A    between atoms: C_5  and  O_6
REMARK    3  A    between atoms: O_6  and  C_7
REMARK    4  A    between atoms: C_11  and  C_12
REMARK    5  A    between atoms: C_25  and  O_26
REMARK    6  A    between atoms: O_26  and  C_27
REMARK                            x       y       z     vdW  Elec       q    Type
REMARK                         _______ _______ _______ _____ _____    ______ ____
ROOT
ATOM      1  C   UNL     1       0.430  11.353  18.796  0.00  0.00    +0.000 C 
ENDROOT
BRANCH   1   5
ATOM      2  F   UNL     1       1.292   7.481  21.607  0.00  0.00    +0.000 F 
ATOM      3  C   UNL     1       1.534   8.098  20.442  0.00  0.00    +0.000 A 
ATOM      4  C   UNL     1       0.937   9.345  20.234  0.00  0.00    +0.000 A 
ATOM      5  C   UNL     1       1.107  10.021  19.019  0.00  0.00    +0.000 A 
ATOM      6  C   UNL     1       1.854   9.397  18.011  0.00  0.00    +0.000 A 
ATOM      7  C   UNL     1       2.470   8.168  18.245  0.00  0.00    +0.000 A 
ATOM      8  F   UNL     1       3.186   7.615  17.254  0.00  0.00    +0.000 F 
ATOM      9  C   UNL     1       2.349   7.517  19.471  0.00  0.00    +0.000 A 
BRANCH   9  10
ATOM     10  O   UNL     1       2.982   6.303  19.581  0.00  0.00    +0.000 OA
BRANCH  10  11
ATOM     11  C   UNL     1       2.281   5.128  19.437  0.00  0.00    +0.000 A 
ATOM     12  C   UNL     1       1.865   4.529  20.629  0.00  0.00    +0.000 A 
ATOM     13  C   UNL     1       1.156   3.326  20.605  0.00  0.00    +0.000 A 
ATOM     14  C   UNL     1       0.860   2.719  19.386  0.00  0.00    +0.000 A 
ATOM     15  C   UNL     1       1.238   3.333  18.192  0.00  0.00    +0.000 A 
ATOM     16  C   UNL     1       1.921   4.551  18.216  0.00  0.00    +0.000 A 
ENDBRANCH  10  11
ENDBRANCH   9  10
ENDBRANCH   1   5
BRANCH   1  17
ATOM     17  O   UNL     1       0.929  12.304  19.749  0.00  0.00    +0.000 OA
BRANCH  17  18
ATOM     18  C   UNL     1       0.052  12.698  20.703  0.00  0.00    +0.000 A 
ATOM     19  C   UNL     1      -1.279  12.144  20.375  0.00  0.00    +0.000 A 
ATOM     20  C   UNL     1      -2.241  12.455  21.257  0.00  0.00    +0.000 A 
ATOM     21  N   UNL     1      -1.945  13.268  22.351  0.00  0.00    +0.000 N 
ATOM     22  C   UNL     1      -2.740  13.767  23.375  0.00  0.00    +0.000 A 
ATOM     23  C   UNL     1      -1.847  14.451  24.183  0.00  0.00    +0.000 A 
ATOM     24  N   UNL     1      -0.577  14.423  23.686  0.00  0.00    +0.000 NA
ATOM     25  C   UNL     1      -0.638  13.725  22.576  0.00  0.00    +0.000 A 
ATOM     26  N   UNL     1       0.379  13.430  21.716  0.00  0.00    +0.000 NA
BRANCH  22  27
ATOM     27  C   UNL     1      -4.184  13.604  23.547  0.00  0.00    +0.000 A 
ATOM     28  C   UNL     1      -4.726  12.501  24.189  0.00  0.00    +0.000 A 
ATOM     29  N   UNL     1      -6.046  12.318  24.417  0.00  0.00    +0.000 NA
ATOM     30  C   UNL     1      -6.853  13.292  23.980  0.00  0.00    +0.000 A 
ATOM     31  N   UNL     1      -6.461  14.409  23.352  0.00  0.00    +0.000 NA
ATOM     32  C   UNL     1      -5.128  14.541  23.166  0.00  0.00    +0.000 A 
ENDBRANCH  22  27
ENDBRANCH  17  18
ENDBRANCH   1  17
TORSDOF 6
ENDMDL
MODEL 8
REMARK VINA RESULT:      -8.5      4.757     10.928
REMARK  Name = 
REMARK  6 active torsions:
REMARK  status: ('A' for Active; 'I' for Inactive)
REMARK    1  A    between atoms: C_4  and  C_5
REMARK    2  A    between atoms: C_5  and  O_6
REMARK    3  A    between atoms: O_6  and  C_7
REMARK    4  A    between atoms: C_11  and  C_12
REMARK    5  A    between atoms: C_25  and  O_26
REMARK    6  A    between atoms: O_26  and  C_27
REMARK                            x       y       z     vdW  Elec       q    Type
REMARK                         _______ _______ _______ _____ _____    ______ ____
ROOT
ATOM      1  C   UNL     1       3.947   5.641  19.745  0.00  0.00    +0.000 C 
ENDROOT
BRANCH   1   5
ATOM      2  F   UNL     1       8.071   4.170  17.634  0.00  0.00    +0.000 F 
ATOM      3  C   UNL     1       6.952   4.900  17.523  0.00  0.00    +0.000 A 
ATOM      4  C   UNL     1       6.092   4.936  18.624  0.00  0.00    +0.000 A 
ATOM      5  C   UNL     1       4.882   5.638  18.559  0.00  0.00    +0.000 A 
ATOM      6  C   UNL     1       4.543   6.266  17.353  0.00  0.00    +0.000 A 
ATOM      7  C   UNL     1       5.427   6.249  16.274  0.00  0.00    +0.000 A 
ATOM      8  F   UNL     1       5.065   6.874  15.144  0.00  0.00    +0.000 F 
ATOM      9  C   UNL     1       6.656   5.598  16.352  0.00  0.00    +0.000 A 
BRANCH   9  10
ATOM     10  O   UNL     1       7.436   5.630  15.222  0.00  0.00    +0.000 OA
BRANCH  10  11
ATOM     11  C   UNL     1       7.092   4.898  14.109  0.00  0.00    +0.000 A 
ATOM     12  C   UNL     1       7.796   5.214  12.944  0.00  0.00    +0.000 A 
ATOM     13  C   UNL     1       7.522   4.545  11.750  0.00  0.00    +0.000 A 
ATOM     14  C   UNL     1       6.542   3.554  11.718  0.00  0.00    +0.000 A 
ATOM     15  C   UNL     1       5.865   3.207  12.886  0.00  0.00    +0.000 A 
ATOM     16  C   UNL     1       6.160   3.857  14.087  0.00  0.00    +0.000 A 
ENDBRANCH  10  11
ENDBRANCH   9  10
ENDBRANCH   1   5
BRANCH   1  17
ATOM     17  O   UNL     1       2.602   5.853  19.288  0.00  0.00    +0.000 OA
BRANCH  17  18
ATOM     18  C   UNL     1       2.124   7.112  19.430  0.00  0.00    +0.000 A 
ATOM     19  C   UNL     1       1.608   7.267  20.806  0.00  0.00    +0.000 A 
ATOM     20  C   UNL     1       1.114   8.484  21.078  0.00  0.00    +0.000 A 
ATOM     21  N   UNL     1       1.090   9.464  20.085  0.00  0.00    +0.000 N 
ATOM     22  C   UNL     1       0.611  10.768  20.083  0.00  0.00    +0.000 A 
ATOM     23  C   UNL     1       0.940  11.237  18.822  0.00  0.00    +0.000 A 
ATOM     24  N   UNL     1       1.550  10.285  18.060  0.00  0.00    +0.000 NA
ATOM     25  C   UNL     1       1.627   9.213  18.814  0.00  0.00    +0.000 A 
ATOM     26  N   UNL     1       2.150   7.996  18.488  0.00  0.00    +0.000 NA
BRANCH  22  27
ATOM     27  C   UNL     1      -0.081  11.469  21.165  0.00  0.00    +0.000 A 
ATOM     28  C   UNL     1      -0.861  10.796  22.093  0.00  0.00    +0.000 A 
ATOM     29  N   UNL     1      -1.487  11.382  23.139  0.00  0.00    +0.000 NA
ATOM     30  C   UNL     1      -1.313  12.704  23.254  0.00  0.00    +0.000 A 
ATOM     31  N   UNL     1      -0.581  13.471  22.434  0.00  0.00    +0.000 NA
ATOM     32  C   UNL     1       0.030  12.824  21.416  0.00  0.00    +0.000 A 
ENDBRANCH  22  27
ENDBRANCH  17  18
ENDBRANCH   1  17
TORSDOF 6
ENDMDL
MODEL 9
REMARK VINA RESULT:      -8.5      1.956      2.741
REMARK  Name = 
REMARK  6 active torsions:
REMARK  status: ('A' for Active; 'I' for Inactive)
REMARK    1  A    between atoms: C_4  and  C_5
REMARK    2  A    between atoms: C_5  and  O_6
REMARK    3  A    between atoms: O_6  and  C_7
REMARK    4  A    between atoms: C_11  and  C_12
REMARK    5  A    between atoms: C_25  and  O_26
REMARK    6  A    between atoms: O_26  and  C_27
REMARK                            x       y       z     vdW  Elec       q    Type
REMARK                         _______ _______ _______ _____ _____    ______ ____
ROOT
ATOM      1  C   UNL     1       1.465   8.471  21.640  0.00  0.00    +0.000 C 
ENDROOT
BRANCH   1   5
ATOM      2  F   UNL     1      -1.733  11.607  23.528  0.00  0.00    +0.000 F 
ATOM      3  C   UNL     1      -1.089  11.187  22.431  0.00  0.00    +0.000 A 
ATOM      4  C   UNL     1      -0.228  10.093  22.566  0.00  0.00    +0.000 A 
ATOM      5  C   UNL     1       0.515   9.634  21.472  0.00  0.00    +0.000 A 
ATOM      6  C   UNL     1       0.402  10.322  20.256  0.00  0.00    +0.000 A 
ATOM      7  C   UNL     1      -0.485  11.391  20.129  0.00  0.00    +0.000 A 
ATOM      8  F   UNL     1      -0.568  12.012  18.943  0.00  0.00    +0.000 F 
ATOM      9  C   UNL     1      -1.267  11.817  21.200  0.00  0.00    +0.000 A 
BRANCH   9  10
ATOM     10  O   UNL     1      -2.090  12.892  20.965  0.00  0.00    +0.000 OA
BRANCH  10  11
ATOM     11  C   UNL     1      -3.451  12.724  20.851  0.00  0.00    +0.000 A 
ATOM     12  C   UNL     1      -3.904  12.350  19.583  0.00  0.00    +0.000 A 
ATOM     13  C   UNL     1      -5.267  12.164  19.347  0.00  0.00    +0.000 A 
ATOM     14  C   UNL     1      -6.183  12.350  20.381  0.00  0.00    +0.000 A 
ATOM     15  C   UNL     1      -5.733  12.685  21.658  0.00  0.00    +0.000 A 
ATOM     16  C   UNL     1      -4.366  12.842  21.900  0.00  0.00    +0.000 A 
ENDBRANCH  10  11
ENDBRANCH   9  10
ENDBRANCH   1   5
BRANCH   1  17
ATOM     17  O   UNL     1       0.910   7.310  21.003  0.00  0.00    +0.000 OA
BRANCH  17  18
ATOM     18  C   UNL     1       1.803   6.478  20.416  0.00  0.00    +0.000 A 
ATOM     19  C   UNL     1       2.483   7.210  19.326  0.00  0.00    +0.000 A 
ATOM     20  C   UNL     1       3.407   6.493  18.670  0.00  0.00    +0.000 A 
ATOM     21  N   UNL     1       3.631   5.161  19.019  0.00  0.00    +0.000 N 
ATOM     22  C   UNL     1       4.482   4.197  18.493  0.00  0.00    +0.000 A 
ATOM     23  C   UNL     1       4.286   3.099  19.315  0.00  0.00    +0.000 A 
ATOM     24  N   UNL     1       3.345   3.335  20.274  0.00  0.00    +0.000 NA
ATOM     25  C   UNL     1       2.940   4.570  20.087  0.00  0.00    +0.000 A 
ATOM     26  N   UNL     1       1.996   5.257  20.793  0.00  0.00    +0.000 NA
BRANCH  22  27
ATOM     27  C   UNL     1       5.371   4.323  17.337  0.00  0.00    +0.000 A 
ATOM     28  C   UNL     1       4.903   4.205  16.037  0.00  0.00    +0.000 A 
ATOM     29  N   UNL     1       5.666   4.356  14.930  0.00  0.00    +0.000 NA
ATOM     30  C   UNL     1       6.955   4.641  15.147  0.00  0.00    +0.000 A 
ATOM     31  N   UNL     1       7.533   4.788  16.347  0.00  0.00    +0.000 NA
ATOM     32  C   UNL     1       6.714   4.639  17.414  0.00  0.00    +0.000 A 
ENDBRANCH  22  27
ENDBRANCH  17  18
ENDBRANCH   1  17
TORSDOF 6
ENDMDL
