MODEL 1
REMARK VINA RESULT:      -8.2      0.000      0.000
REMARK  Name = 
REMARK  6 active torsions:
REMARK  status: ('A' for Active; 'I' for Inactive)
REMARK    1  A    between atoms: C_1  and  C_2
REMARK    2  A    between atoms: C_2  and  C_3
REMARK    3  A    between atoms: C_2  and  N_4
REMARK    4  A    between atoms: C_6  and  C_7
REMARK    5  A    between atoms: C_7  and  N_8
REMARK    6  A    between atoms: C_18  and  C_20
REMARK                            x       y       z     vdW  Elec       q    Type
REMARK                         _______ _______ _______ _____ _____    ______ ____
ROOT
ATOM      1  N   UNL     1       6.212   5.625  18.002  0.00  0.00    +0.000 N 
ATOM      2  N   UNL     1       4.973   5.408  18.543  0.00  0.00    +0.000 NA
ATOM      3  C   UNL     1       4.336   4.629  17.642  0.00  0.00    +0.000 A 
ATOM      4  C   UNL     1       5.198   4.302  16.599  0.00  0.00    +0.000 A 
ATOM      5  C   UNL     1       6.368   4.946  16.845  0.00  0.00    +0.000 A 
ATOM      6  C   UNL     1       7.341   4.847  15.750  0.00  0.00    +0.000 C 
ATOM      7  N   UNL     1       6.494   4.134  14.750  0.00  0.00    +0.000 N 
ATOM      8  C   UNL     1       6.770   4.229  13.395  0.00  0.00    +0.000 C 
ATOM      9  O   UNL     1       7.691   4.926  12.976  0.00  0.00    +0.000 OA
ATOM     10  C   UNL     1       5.196   3.641  15.299  0.00  0.00    +0.000 C 
ENDROOT
BRANCH   8  11
ATOM     11  C   UNL     1       5.890   3.513  12.484  0.00  0.00    +0.000 A 
ATOM     12  C   UNL     1       4.658   3.846  11.942  0.00  0.00    +0.000 A 
ATOM     13  C   UNL     1       4.266   2.819  11.053  0.00  0.00    +0.000 A 
ATOM     14  C   UNL     1       5.230   1.841  11.119  0.00  0.00    +0.000 A 
ATOM     15  N   UNL     1       6.183   2.247  12.014  0.00  0.00    +0.000 N 
ATOM     16  H   UNL     1       7.014   1.728  12.271  0.00  0.00    +0.000 HD
ENDBRANCH   8  11
BRANCH   1  18
ATOM     17  C   UNL     1       8.245   5.868  19.373  0.00  0.00    +0.000 C 
ATOM     18  C   UNL     1       7.119   6.582  18.622  0.00  0.00    +0.000 C 
ATOM     19  C   UNL     1       7.681   7.562  17.593  0.00  0.00    +0.000 C 
ENDBRANCH   1  18
BRANCH   3  20
ATOM     20  C   UNL     1       2.881   4.322  17.733  0.00  0.00    +0.000 C 
BRANCH  20  21
ATOM     21  N   UNL     1       2.514   3.878  19.063  0.00  0.00    +0.000 N 
ATOM     22  C   UNL     1       1.873   4.755  20.005  0.00  0.00    +0.000 C 
ATOM     23  C   UNL     1       1.767   3.905  21.258  0.00  0.00    +0.000 C 
ATOM     24  C   UNL     1       1.644   2.484  20.721  0.00  0.00    +0.000 C 
ATOM     25  C   UNL     1       2.415   2.545  19.425  0.00  0.00    +0.000 C 
ATOM     26  O   UNL     1       2.804   1.584  18.782  0.00  0.00    +0.000 OA
ENDBRANCH  20  21
ENDBRANCH   3  20
TORSDOF 4
ENDMDL
MODEL 2
REMARK VINA RESULT:      -8.0      0.941      1.230
REMARK  Name = 
REMARK  6 active torsions:
REMARK  status: ('A' for Active; 'I' for Inactive)
REMARK    1  A    between atoms: C_1  and  C_2
REMARK    2  A    between atoms: C_2  and  C_3
REMARK    3  A    between atoms: C_2  and  N_4
REMARK    4  A    between atoms: C_6  and  C_7
REMARK    5  A    between atoms: C_7  and  N_8
REMARK    6  A    between atoms: C_18  and  C_20
REMARK                            x       y       z     vdW  Elec       q    Type
REMARK                         _______ _______ _______ _____ _____    ______ ____
ROOT
ATOM      1  N   UNL     1       6.163   5.608  18.036  0.00  0.00    +0.000 N 
ATOM      2  N   UNL     1       4.916   5.409  18.562  0.00  0.00    +0.000 NA
ATOM      3  C   UNL     1       4.279   4.637  17.656  0.00  0.00    +0.000 A 
ATOM      4  C   UNL     1       5.149   4.296  16.624  0.00  0.00    +0.000 A 
ATOM      5  C   UNL     1       6.325   4.924  16.882  0.00  0.00    +0.000 A 
ATOM      6  C   UNL     1       7.309   4.809  15.800  0.00  0.00    +0.000 C 
ATOM      7  N   UNL     1       6.464   4.106  14.791  0.00  0.00    +0.000 N 
ATOM      8  C   UNL     1       6.759   4.193  13.440  0.00  0.00    +0.000 C 
ATOM      9  O   UNL     1       7.693   4.877  13.030  0.00  0.00    +0.000 OA
ATOM     10  C   UNL     1       5.154   3.632  15.325  0.00  0.00    +0.000 C 
ENDROOT
BRANCH   8  11
ATOM     11  C   UNL     1       5.879   3.488  12.519  0.00  0.00    +0.000 A 
ATOM     12  C   UNL     1       4.643   3.820  11.988  0.00  0.00    +0.000 A 
ATOM     13  C   UNL     1       4.254   2.807  11.083  0.00  0.00    +0.000 A 
ATOM     14  C   UNL     1       5.226   1.836  11.127  0.00  0.00    +0.000 A 
ATOM     15  N   UNL     1       6.180   2.232  12.025  0.00  0.00    +0.000 N 
ATOM     16  H   UNL     1       7.016   1.715  12.270  0.00  0.00    +0.000 HD
ENDBRANCH   8  11
BRANCH   1  18
ATOM     17  C   UNL     1       8.212   5.827  19.388  0.00  0.00    +0.000 C 
ATOM     18  C   UNL     1       7.077   6.554  18.665  0.00  0.00    +0.000 C 
ATOM     19  C   UNL     1       7.624   7.556  17.649  0.00  0.00    +0.000 C 
ENDBRANCH   1  18
BRANCH   3  20
ATOM     20  C   UNL     1       2.819   4.350  17.730  0.00  0.00    +0.000 C 
BRANCH  20  21
ATOM     21  N   UNL     1       2.430   3.909  19.054  0.00  0.00    +0.000 N 
ATOM     22  C   UNL     1       2.699   2.576  19.519  0.00  0.00    +0.000 C 
ATOM     23  C   UNL     1       2.047   2.544  20.888  0.00  0.00    +0.000 C 
ATOM     24  C   UNL     1       2.146   3.987  21.370  0.00  0.00    +0.000 C 
ATOM     25  C   UNL     1       2.102   4.775  20.083  0.00  0.00    +0.000 C 
ATOM     26  O   UNL     1       1.893   5.974  19.990  0.00  0.00    +0.000 OA
ENDBRANCH  20  21
ENDBRANCH   3  20
TORSDOF 4
ENDMDL
MODEL 3
REMARK VINA RESULT:      -7.5      1.341      1.647
REMARK  Name = 
REMARK  6 active torsions:
REMARK  status: ('A' for Active; 'I' for Inactive)
REMARK    1  A    between atoms: C_1  and  C_2
REMARK    2  A    between atoms: C_2  and  C_3
REMARK    3  A    between atoms: C_2  and  N_4
REMARK    4  A    between atoms: C_6  and  C_7
REMARK    5  A    between atoms: C_7  and  N_8
REMARK    6  A    between atoms: C_18  and  C_20
REMARK                            x       y       z     vdW  Elec       q    Type
REMARK                         _______ _______ _______ _____ _____    ______ ____
ROOT
ATOM      1  N   UNL     1       6.842   6.252  17.363  0.00  0.00    +0.000 N 
ATOM      2  N   UNL     1       5.649   6.214  18.031  0.00  0.00    +0.000 NA
ATOM      3  C   UNL     1       4.869   5.391  17.298  0.00  0.00    +0.000 A 
ATOM      4  C   UNL     1       5.599   4.862  16.237  0.00  0.00    +0.000 A 
ATOM      5  C   UNL     1       6.834   5.423  16.296  0.00  0.00    +0.000 A 
ATOM      6  C   UNL     1       7.686   5.104  15.145  0.00  0.00    +0.000 C 
ATOM      7  N   UNL     1       6.694   4.352  14.323  0.00  0.00    +0.000 N 
ATOM      8  C   UNL     1       6.845   4.253  12.949  0.00  0.00    +0.000 C 
ATOM      9  O   UNL     1       7.773   4.808  12.365  0.00  0.00    +0.000 OA
ATOM     10  C   UNL     1       5.421   4.047  15.040  0.00  0.00    +0.000 C 
ENDROOT
BRANCH   8  11
ATOM     11  C   UNL     1       5.828   3.512  12.217  0.00  0.00    +0.000 A 
ATOM     12  C   UNL     1       4.555   3.863  11.800  0.00  0.00    +0.000 A 
ATOM     13  C   UNL     1       4.011   2.788  11.060  0.00  0.00    +0.000 A 
ATOM     14  C   UNL     1       4.933   1.769  11.097  0.00  0.00    +0.000 A 
ATOM     15  N   UNL     1       6.006   2.197  11.831  0.00  0.00    +0.000 N 
ATOM     16  H   UNL     1       6.840   1.657  12.032  0.00  0.00    +0.000 HD
ENDBRANCH   8  11
BRANCH   1  18
ATOM     17  C   UNL     1       7.394   8.639  17.634  0.00  0.00    +0.000 C 
ATOM     18  C   UNL     1       7.877   7.193  17.772  0.00  0.00    +0.000 C 
ATOM     19  C   UNL     1       8.357   6.908  19.194  0.00  0.00    +0.000 C 
ENDBRANCH   1  18
BRANCH   3  20
ATOM     20  C   UNL     1       3.411   5.228  17.553  0.00  0.00    +0.000 C 
BRANCH  20  21
ATOM     21  N   UNL     1       3.083   3.864  17.917  0.00  0.00    +0.000 N 
ATOM     22  C   UNL     1       3.992   3.039  18.666  0.00  0.00    +0.000 C 
ATOM     23  C   UNL     1       3.281   1.701  18.728  0.00  0.00    +0.000 C 
ATOM     24  C   UNL     1       1.803   2.076  18.700  0.00  0.00    +0.000 C 
ATOM     25  C   UNL     1       1.796   3.355  17.900  0.00  0.00    +0.000 C 
ATOM     26  O   UNL     1       0.811   3.877  17.403  0.00  0.00    +0.000 OA
ENDBRANCH  20  21
ENDBRANCH   3  20
TORSDOF 4
ENDMDL
MODEL 4
REMARK VINA RESULT:      -7.4      3.378      6.149
REMARK  Name = 
REMARK  6 active torsions:
REMARK  status: ('A' for Active; 'I' for Inactive)
REMARK    1  A    between atoms: C_1  and  C_2
REMARK    2  A    between atoms: C_2  and  C_3
REMARK    3  A    between atoms: C_2  and  N_4
REMARK    4  A    between atoms: C_6  and  C_7
REMARK    5  A    between atoms: C_7  and  N_8
REMARK    6  A    between atoms: C_18  and  C_20
REMARK                            x       y       z     vdW  Elec       q    Type
REMARK                         _______ _______ _______ _____ _____    ______ ____
ROOT
ATOM      1  N   UNL     1       2.526   3.896  18.257  0.00  0.00    +0.000 N 
ATOM      2  N   UNL     1       1.746   4.624  19.114  0.00  0.00    +0.000 NA
ATOM      3  C   UNL     1       2.400   5.795  19.265  0.00  0.00    +0.000 A 
ATOM      4  C   UNL     1       3.526   5.822  18.448  0.00  0.00    +0.000 A 
ATOM      5  C   UNL     1       3.587   4.615  17.829  0.00  0.00    +0.000 A 
ATOM      6  C   UNL     1       4.816   4.406  17.053  0.00  0.00    +0.000 C 
ATOM      7  N   UNL     1       5.538   5.659  17.422  0.00  0.00    +0.000 N 
ATOM      8  C   UNL     1       6.920   5.726  17.346  0.00  0.00    +0.000 C 
ATOM      9  O   UNL     1       7.591   4.752  17.013  0.00  0.00    +0.000 OA
ATOM     10  C   UNL     1       4.701   6.642  18.171  0.00  0.00    +0.000 C 
ENDROOT
BRANCH   8  11
ATOM     11  C   UNL     1       7.550   6.979  17.734  0.00  0.00    +0.000 A 
ATOM     12  C   UNL     1       8.358   7.310  18.810  0.00  0.00    +0.000 A 
ATOM     13  C   UNL     1       8.760   8.658  18.674  0.00  0.00    +0.000 A 
ATOM     14  C   UNL     1       8.134   9.152  17.553  0.00  0.00    +0.000 A 
ATOM     15  N   UNL     1       7.374   8.147  17.017  0.00  0.00    +0.000 N 
ATOM     16  H   UNL     1       6.797   8.219  16.187  0.00  0.00    +0.000 HD
ENDBRANCH   8  11
BRANCH   1  18
ATOM     17  C   UNL     1       3.375   1.589  18.438  0.00  0.00    +0.000 C 
ATOM     18  C   UNL     1       2.219   2.494  18.005  0.00  0.00    +0.000 C 
ATOM     19  C   UNL     1       0.914   2.080  18.682  0.00  0.00    +0.000 C 
ENDBRANCH   1  18
BRANCH   3  20
ATOM     20  C   UNL     1       2.005   6.810  20.282  0.00  0.00    +0.000 C 
BRANCH  20  21
ATOM     21  N   UNL     1       1.704   8.088  19.669  0.00  0.00    +0.000 N 
ATOM     22  C   UNL     1       1.700   8.263  18.242  0.00  0.00    +0.000 C 
ATOM     23  C   UNL     1       1.429   9.746  18.072  0.00  0.00    +0.000 C 
ATOM     24  C   UNL     1       0.585  10.101  19.290  0.00  0.00    +0.000 C 
ATOM     25  C   UNL     1       1.071   9.125  20.333  0.00  0.00    +0.000 C 
ATOM     26  O   UNL     1       0.866   9.206  21.533  0.00  0.00    +0.000 OA
ENDBRANCH  20  21
ENDBRANCH   3  20
TORSDOF 4
ENDMDL
MODEL 5
REMARK VINA RESULT:      -7.3      1.155      1.587
REMARK  Name = 
REMARK  6 active torsions:
REMARK  status: ('A' for Active; 'I' for Inactive)
REMARK    1  A    between atoms: C_1  and  C_2
REMARK    2  A    between atoms: C_2  and  C_3
REMARK    3  A    between atoms: C_2  and  N_4
REMARK    4  A    between atoms: C_6  and  C_7
REMARK    5  A    between atoms: C_7  and  N_8
REMARK    6  A    between atoms: C_18  and  C_20
REMARK                            x       y       z     vdW  Elec       q    Type
REMARK                         _______ _______ _______ _____ _____    ______ ____
ROOT
ATOM      1  N   UNL     1       6.753   6.096  17.373  0.00  0.00    +0.000 N 
ATOM      2  N   UNL     1       5.538   6.138  18.002  0.00  0.00    +0.000 NA
ATOM      3  C   UNL     1       4.729   5.373  17.240  0.00  0.00    +0.000 A 
ATOM      4  C   UNL     1       5.454   4.799  16.199  0.00  0.00    +0.000 A 
ATOM      5  C   UNL     1       6.722   5.275  16.301  0.00  0.00    +0.000 A 
ATOM      6  C   UNL     1       7.588   4.903  15.175  0.00  0.00    +0.000 C 
ATOM      7  N   UNL     1       6.573   4.224  14.317  0.00  0.00    +0.000 N 
ATOM      8  C   UNL     1       6.762   4.120  12.948  0.00  0.00    +0.000 C 
ATOM      9  O   UNL     1       7.744   4.614  12.398  0.00  0.00    +0.000 OA
ATOM     10  C   UNL     1       5.260   4.005  14.991  0.00  0.00    +0.000 C 
ENDROOT
BRANCH   8  11
ATOM     11  C   UNL     1       5.721   3.454  12.179  0.00  0.00    +0.000 A 
ATOM     12  C   UNL     1       4.474   3.882  11.754  0.00  0.00    +0.000 A 
ATOM     13  C   UNL     1       3.888   2.859  10.974  0.00  0.00    +0.000 A 
ATOM     14  C   UNL     1       4.757   1.793  10.994  0.00  0.00    +0.000 A 
ATOM     15  N   UNL     1       5.839   2.144  11.756  0.00  0.00    +0.000 N 
ATOM     16  H   UNL     1       6.641   1.557  11.953  0.00  0.00    +0.000 HD
ENDBRANCH   8  11
BRANCH   1  18
ATOM     17  C   UNL     1       7.454   8.438  17.687  0.00  0.00    +0.000 C 
ATOM     18  C   UNL     1       7.836   6.963  17.821  0.00  0.00    +0.000 C 
ATOM     19  C   UNL     1       8.256   6.632  19.252  0.00  0.00    +0.000 C 
ENDBRANCH   1  18
BRANCH   3  20
ATOM     20  C   UNL     1       3.255   5.309  17.446  0.00  0.00    +0.000 C 
BRANCH  20  21
ATOM     21  N   UNL     1       2.874   4.134  18.204  0.00  0.00    +0.000 N 
ATOM     22  C   UNL     1       2.693   2.853  17.578  0.00  0.00    +0.000 C 
ATOM     23  C   UNL     1       2.219   1.970  18.717  0.00  0.00    +0.000 C 
ATOM     24  C   UNL     1       2.881   2.581  19.947  0.00  0.00    +0.000 C 
ATOM     25  C   UNL     1       2.988   4.042  19.581  0.00  0.00    +0.000 C 
ATOM     26  O   UNL     1       3.216   4.955  20.358  0.00  0.00    +0.000 OA
ENDBRANCH  20  21
ENDBRANCH   3  20
TORSDOF 4
ENDMDL
MODEL 6
REMARK VINA RESULT:      -7.2      3.969      6.567
REMARK  Name = 
REMARK  6 active torsions:
REMARK  status: ('A' for Active; 'I' for Inactive)
REMARK    1  A    between atoms: C_1  and  C_2
REMARK    2  A    between atoms: C_2  and  C_3
REMARK    3  A    between atoms: C_2  and  N_4
REMARK    4  A    between atoms: C_6  and  C_7
REMARK    5  A    between atoms: C_7  and  N_8
REMARK    6  A    between atoms: C_18  and  C_20
REMARK                            x       y       z     vdW  Elec       q    Type
REMARK                         _______ _______ _______ _____ _____    ______ ____
ROOT
ATOM      1  N   UNL     1       1.496   4.643  20.084  0.00  0.00    +0.000 N 
ATOM      2  N   UNL     1       0.963   5.779  20.629  0.00  0.00    +0.000 NA
ATOM      3  C   UNL     1       1.818   6.763  20.279  0.00  0.00    +0.000 A 
ATOM      4  C   UNL     1       2.822   6.254  19.459  0.00  0.00    +0.000 A 
ATOM      5  C   UNL     1       2.601   4.919  19.357  0.00  0.00    +0.000 A 
ATOM      6  C   UNL     1       3.670   4.192  18.662  0.00  0.00    +0.000 C 
ATOM      7  N   UNL     1       4.633   5.316  18.477  0.00  0.00    +0.000 N 
ATOM      8  C   UNL     1       5.987   5.067  18.312  0.00  0.00    +0.000 C 
ATOM      9  O   UNL     1       6.437   3.925  18.350  0.00  0.00    +0.000 OA
ATOM     10  C   UNL     1       4.074   6.655  18.827  0.00  0.00    +0.000 C 
ENDROOT
BRANCH   8  11
ATOM     11  C   UNL     1       6.862   6.218  18.149  0.00  0.00    +0.000 A 
ATOM     12  C   UNL     1       6.918   7.202  17.175  0.00  0.00    +0.000 A 
ATOM     13  C   UNL     1       7.919   8.134  17.533  0.00  0.00    +0.000 A 
ATOM     14  C   UNL     1       8.508   7.667  18.685  0.00  0.00    +0.000 A 
ATOM     15  N   UNL     1       7.894   6.492  19.026  0.00  0.00    +0.000 N 
ATOM     16  H   UNL     1       8.120   5.916  19.829  0.00  0.00    +0.000 HD
ENDBRANCH   8  11
BRANCH   1  18
ATOM     17  C   UNL     1       0.802   2.463  19.166  0.00  0.00    +0.000 C 
ATOM     18  C   UNL     1       0.928   3.341  20.413  0.00  0.00    +0.000 C 
ATOM     19  C   UNL     1       1.741   2.638  21.499  0.00  0.00    +0.000 C 
ENDBRANCH   1  18
BRANCH   3  20
ATOM     20  C   UNL     1       1.731   8.141  20.839  0.00  0.00    +0.000 C 
BRANCH  20  21
ATOM     21  N   UNL     1       0.829   8.973  20.068  0.00  0.00    +0.000 N 
ATOM     22  C   UNL     1      -0.347   9.560  20.650  0.00  0.00    +0.000 C 
ATOM     23  C   UNL     1      -1.012  10.250  19.474  0.00  0.00    +0.000 C 
ATOM     24  C   UNL     1       0.156  10.634  18.572  0.00  0.00    +0.000 C 
ATOM     25  C   UNL     1       1.171   9.554  18.859  0.00  0.00    +0.000 C 
ATOM     26  O   UNL     1       2.154   9.304  18.181  0.00  0.00    +0.000 OA
ENDBRANCH  20  21
ENDBRANCH   3  20
TORSDOF 4
ENDMDL
MODEL 7
REMARK VINA RESULT:      -7.2      3.879      6.450
REMARK  Name = 
REMARK  6 active torsions:
REMARK  status: ('A' for Active; 'I' for Inactive)
REMARK    1  A    between atoms: C_1  and  C_2
REMARK    2  A    between atoms: C_2  and  C_3
REMARK    3  A    between atoms: C_2  and  N_4
REMARK    4  A    between atoms: C_6  and  C_7
REMARK    5  A    between atoms: C_7  and  N_8
REMARK    6  A    between atoms: C_18  and  C_20
REMARK                            x       y       z     vdW  Elec       q    Type
REMARK                         _______ _______ _______ _____ _____    ______ ____
ROOT
ATOM      1  N   UNL     1       2.258   4.097  19.798  0.00  0.00    +0.000 N 
ATOM      2  N   UNL     1       1.539   5.101  20.388  0.00  0.00    +0.000 NA
ATOM      3  C   UNL     1       2.234   6.227  20.120  0.00  0.00    +0.000 A 
ATOM      4  C   UNL     1       3.323   5.933  19.305  0.00  0.00    +0.000 A 
ATOM      5  C   UNL     1       3.320   4.587  19.122  0.00  0.00    +0.000 A 
ATOM      6  C   UNL     1       4.506   4.081  18.420  0.00  0.00    +0.000 C 
ATOM      7  N   UNL     1       5.281   5.353  18.328  0.00  0.00    +0.000 N 
ATOM      8  C   UNL     1       6.660   5.330  18.190  0.00  0.00    +0.000 C 
ATOM      9  O   UNL     1       7.286   4.273  18.179  0.00  0.00    +0.000 OA
ATOM     10  C   UNL     1       4.509   6.563  18.734  0.00  0.00    +0.000 C 
ENDROOT
BRANCH   8  11
ATOM     11  C   UNL     1       7.344   6.613  18.119  0.00  0.00    +0.000 A 
ATOM     12  C   UNL     1       7.273   7.645  17.198  0.00  0.00    +0.000 A 
ATOM     13  C   UNL     1       8.100   8.702  17.641  0.00  0.00    +0.000 A 
ATOM     14  C   UNL     1       8.719   8.272  18.790  0.00  0.00    +0.000 A 
ATOM     15  N   UNL     1       8.292   6.998  19.049  0.00  0.00    +0.000 N 
ATOM     16  H   UNL     1       8.582   6.422  19.831  0.00  0.00    +0.000 HD
ENDBRANCH   8  11
BRANCH   1  18
ATOM     17  C   UNL     1       1.429   2.495  21.477  0.00  0.00    +0.000 C 
ATOM     18  C   UNL     1       1.897   2.705  20.035  0.00  0.00    +0.000 C 
ATOM     19  C   UNL     1       0.842   2.227  19.040  0.00  0.00    +0.000 C 
ENDBRANCH   1  18
BRANCH   3  20
ATOM     20  C   UNL     1       1.916   7.537  20.754  0.00  0.00    +0.000 C 
BRANCH  20  21
ATOM     21  N   UNL     1       1.513   8.520  19.769  0.00  0.00    +0.000 N 
ATOM     22  C   UNL     1       1.804   8.357  18.371  0.00  0.00    +0.000 C 
ATOM     23  C   UNL     1       1.287   9.643  17.754  0.00  0.00    +0.000 C 
ATOM     24  C   UNL     1       0.129  10.040  18.662  0.00  0.00    +0.000 C 
ATOM     25  C   UNL     1       0.547   9.485  20.002  0.00  0.00    +0.000 C 
ATOM     26  O   UNL     1       0.058   9.783  21.079  0.00  0.00    +0.000 OA
ENDBRANCH  20  21
ENDBRANCH   3  20
TORSDOF 4
ENDMDL
MODEL 8
REMARK VINA RESULT:      -7.2      3.968      6.629
REMARK  Name = 
REMARK  6 active torsions:
REMARK  status: ('A' for Active; 'I' for Inactive)
REMARK    1  A    between atoms: C_1  and  C_2
REMARK    2  A    between atoms: C_2  and  C_3
REMARK    3  A    between atoms: C_2  and  N_4
REMARK    4  A    between atoms: C_6  and  C_7
REMARK    5  A    between atoms: C_7  and  N_8
REMARK    6  A    between atoms: C_18  and  C_20
REMARK                            x       y       z     vdW  Elec       q    Type
REMARK                         _______ _______ _______ _____ _____    ______ ____
ROOT
ATOM      1  N   UNL     1       1.532   4.623  20.113  0.00  0.00    +0.000 N 
ATOM      2  N   UNL     1       1.003   5.742  20.698  0.00  0.00    +0.000 NA
ATOM      3  C   UNL     1       1.850   6.739  20.363  0.00  0.00    +0.000 A 
ATOM      4  C   UNL     1       2.843   6.257  19.514  0.00  0.00    +0.000 A 
ATOM      5  C   UNL     1       2.624   4.924  19.378  0.00  0.00    +0.000 A 
ATOM      6  C   UNL     1       3.684   4.221  18.645  0.00  0.00    +0.000 C 
ATOM      7  N   UNL     1       4.641   5.354  18.477  0.00  0.00    +0.000 N 
ATOM      8  C   UNL     1       5.992   5.114  18.284  0.00  0.00    +0.000 C 
ATOM      9  O   UNL     1       6.447   3.973  18.282  0.00  0.00    +0.000 OA
ATOM     10  C   UNL     1       4.083   6.680  18.873  0.00  0.00    +0.000 C 
ENDROOT
BRANCH   8  11
ATOM     11  C   UNL     1       6.861   6.273  18.140  0.00  0.00    +0.000 A 
ATOM     12  C   UNL     1       6.901   7.283  17.192  0.00  0.00    +0.000 A 
ATOM     13  C   UNL     1       7.903   8.208  17.562  0.00  0.00    +0.000 A 
ATOM     14  C   UNL     1       8.509   7.713  18.693  0.00  0.00    +0.000 A 
ATOM     15  N   UNL     1       7.905   6.526  19.010  0.00  0.00    +0.000 N 
ATOM     16  H   UNL     1       8.143   5.930  19.794  0.00  0.00    +0.000 HD
ENDBRANCH   8  11
BRANCH   1  18
ATOM     17  C   UNL     1       0.820   2.473  19.142  0.00  0.00    +0.000 C 
ATOM     18  C   UNL     1       0.973   3.311  20.413  0.00  0.00    +0.000 C 
ATOM     19  C   UNL     1       1.811   2.576  21.458  0.00  0.00    +0.000 C 
ENDBRANCH   1  18
BRANCH   3  20
ATOM     20  C   UNL     1       1.767   8.099  20.964  0.00  0.00    +0.000 C 
BRANCH  20  21
ATOM     21  N   UNL     1       1.057   9.020  20.100  0.00  0.00    +0.000 N 
ATOM     22  C   UNL     1       1.277   9.050  18.679  0.00  0.00    +0.000 C 
ATOM     23  C   UNL     1       0.407  10.203  18.215  0.00  0.00    +0.000 C 
ATOM     24  C   UNL     1      -0.744  10.214  19.215  0.00  0.00    +0.000 C 
ATOM     25  C   UNL     1      -0.101   9.681  20.472  0.00  0.00    +0.000 C 
ATOM     26  O   UNL     1      -0.570   9.756  21.596  0.00  0.00    +0.000 OA
ENDBRANCH  20  21
ENDBRANCH   3  20
TORSDOF 4
ENDMDL
MODEL 9
REMARK VINA RESULT:      -7.1      3.728      6.293
REMARK  Name = 
REMARK  6 active torsions:
REMARK  status: ('A' for Active; 'I' for Inactive)
REMARK    1  A    between atoms: C_1  and  C_2
REMARK    2  A    between atoms: C_2  and  C_3
REMARK    3  A    between atoms: C_2  and  N_4
REMARK    4  A    between atoms: C_6  and  C_7
REMARK    5  A    between atoms: C_7  and  N_8
REMARK    6  A    between atoms: C_18  and  C_20
REMARK                            x       y       z     vdW  Elec       q    Type
REMARK                         _______ _______ _______ _____ _____    ______ ____
ROOT
ATOM      1  N   UNL     1       5.419   6.031  17.847  0.00  0.00    +0.000 N 
ATOM      2  N   UNL     1       5.186   5.023  18.744  0.00  0.00    +0.000 NA
ATOM      3  C   UNL     1       3.945   5.263  19.217  0.00  0.00    +0.000 A 
ATOM      4  C   UNL     1       3.386   6.356  18.560  0.00  0.00    +0.000 A 
ATOM      5  C   UNL     1       4.335   6.825  17.709  0.00  0.00    +0.000 A 
ATOM      6  C   UNL     1       3.973   8.088  17.054  0.00  0.00    +0.000 C 
ATOM      7  N   UNL     1       2.688   8.357  17.763  0.00  0.00    +0.000 N 
ATOM      8  C   UNL     1       2.194   9.648  17.864  0.00  0.00    +0.000 C 
ATOM      9  O   UNL     1       2.812  10.607  17.410  0.00  0.00    +0.000 OA
ATOM     10  C   UNL     1       2.211   7.219  18.603  0.00  0.00    +0.000 C 
ENDROOT
BRANCH   8  11
ATOM     11  C   UNL     1       0.941   9.828  18.581  0.00  0.00    +0.000 A 
ATOM     12  C   UNL     1       0.644   9.820  19.935  0.00  0.00    +0.000 A 
ATOM     13  C   UNL     1      -0.728  10.118  20.097  0.00  0.00    +0.000 A 
ATOM     14  C   UNL     1      -1.265  10.234  18.837  0.00  0.00    +0.000 A 
ATOM     15  N   UNL     1      -0.264  10.016  17.929  0.00  0.00    +0.000 N 
ATOM     16  H   UNL     1      -0.363  10.034  16.921  0.00  0.00    +0.000 HD
ENDBRANCH   8  11
BRANCH   1  18
ATOM     17  C   UNL     1       7.756   6.654  18.321  0.00  0.00    +0.000 C 
ATOM     18  C   UNL     1       6.746   6.197  17.267  0.00  0.00    +0.000 C 
ATOM     19  C   UNL     1       7.214   4.918  16.575  0.00  0.00    +0.000 C 
ENDBRANCH   1  18
BRANCH   3  20
ATOM     20  C   UNL     1       3.369   4.523  20.374  0.00  0.00    +0.000 C 
BRANCH  20  21
ATOM     21  N   UNL     1       2.437   3.502  19.943  0.00  0.00    +0.000 N 
ATOM     22  C   UNL     1       1.038   3.780  19.758  0.00  0.00    +0.000 C 
ATOM     23  C   UNL     1       0.455   2.426  19.402  0.00  0.00    +0.000 C 
ATOM     24  C   UNL     1       1.603   1.713  18.695  0.00  0.00    +0.000 C 
ATOM     25  C   UNL     1       2.825   2.313  19.349  0.00  0.00    +0.000 C 
ATOM     26  O   UNL     1       3.957   1.863  19.287  0.00  0.00    +0.000 OA
ENDBRANCH  20  21
ENDBRANCH   3  20
TORSDOF 4
ENDMDL
