MODEL 1
REMARK VINA RESULT:      -7.6      0.000      0.000
REMARK  Name = 
REMARK  11 active torsions:
REMARK  status: ('A' for Active; 'I' for Inactive)
REMARK    1  A    between atoms: C_1  and  C_2
REMARK    2  A    between atoms: C_2  and  C_3
REMARK    3  A    between atoms: C_2  and  C_4
REMARK    4  A    between atoms: C_9  and  O_10
REMARK    5  A    between atoms: O_10  and  C_11
REMARK    6  A    between atoms: C_11  and  C_12
REMARK    7  A    between atoms: C_12  and  C_13
REMARK    8  A    between atoms: C_12  and  N_14
REMARK    9  A    between atoms: C_17  and  N_18
REMARK   10  A    between atoms: N_18  and  S_19
REMARK   11  A    between atoms: S_19  and  C_22
REMARK                            x       y       z     vdW  Elec       q    Type
REMARK                         _______ _______ _______ _____ _____    ______ ____
ROOT
ATOM      1  N   UNL     1       2.735   3.255  19.797  0.00  0.00    +0.000 NA
ATOM      2  C   UNL     1       1.993   3.554  18.568  0.00  0.00    +0.000 C 
ATOM      3  C   UNL     1       2.546   2.788  17.368  0.00  0.00    +0.000 C 
ATOM      4  C   UNL     1       4.025   3.074  17.147  0.00  0.00    +0.000 C 
ATOM      5  C   UNL     1       4.768   2.753  18.449  0.00  0.00    +0.000 C 
ATOM      6  C   UNL     1       4.173   3.520  19.632  0.00  0.00    +0.000 C 
ENDROOT
BRANCH   1   7
ATOM      7  C   UNL     1       2.194   3.958  20.985  0.00  0.00    +0.000 C 
ATOM      8  C   UNL     1       1.373   2.990  21.858  0.00  0.00    +0.000 C 
BRANCH   7   9
ATOM      9  C   UNL     1       1.318   5.227  20.787  0.00  0.00    +0.000 C 
BRANCH   9  10
ATOM     10  O   UNL     1       2.002   6.456  20.948  0.00  0.00    +0.000 OA
BRANCH  10  16
ATOM     11  C   UNL     1       1.295   8.743  20.104  0.00  0.00    +0.000 A 
ATOM     12  C   UNL     1       1.459   9.606  18.986  0.00  0.00    +0.000 A 
ATOM     13  C   UNL     1       2.098   9.208  17.813  0.00  0.00    +0.000 A 
ATOM     14  C   UNL     1       2.590   7.922  17.709  0.00  0.00    +0.000 A 
ATOM     15  C   UNL     1       2.492   7.064  18.808  0.00  0.00    +0.000 A 
ATOM     16  C   UNL     1       1.877   7.458  20.015  0.00  0.00    +0.000 A 
BRANCH  11  18
ATOM     17  C   UNL     1      -0.143  10.662  20.913  0.00  0.00    +0.000 C 
ATOM     18  C   UNL     1       0.500   9.314  21.276  0.00  0.00    +0.000 C 
ATOM     19  C   UNL     1      -0.583   8.369  21.828  0.00  0.00    +0.000 C 
ENDBRANCH  11  18
ENDBRANCH  10  16
ENDBRANCH   9  10
ENDBRANCH   7   9
ENDBRANCH   1   7
BRANCH   4  20
ATOM     20  N   UNL     1       4.309   4.483  16.768  0.00  0.00    +0.000 NA
ATOM     21  H   UNL     1       4.201   5.170  17.517  0.00  0.00    +0.000 HD
BRANCH  20  22
ATOM     22  S   UNL     1       5.647   4.898  15.832  0.00  0.00    +0.000 S 
ATOM     23  O   UNL     1       6.358   3.663  15.596  0.00  0.00    +0.000 OA
ATOM     24  O   UNL     1       5.185   5.730  14.744  0.00  0.00    +0.000 OA
BRANCH  22  25
ATOM     25  C   UNL     1       6.667   5.876  16.923  0.00  0.00    +0.000 A 
ATOM     26  C   UNL     1       7.261   5.295  18.049  0.00  0.00    +0.000 A 
ATOM     27  C   UNL     1       8.051   6.085  18.894  0.00  0.00    +0.000 A 
ATOM     28  C   UNL     1       8.238   7.430  18.592  0.00  0.00    +0.000 A 
ATOM     29  F   UNL     1       8.989   8.186  19.407  0.00  0.00    +0.000 F 
ATOM     30  C   UNL     1       7.668   8.010  17.463  0.00  0.00    +0.000 A 
ATOM     31  C   UNL     1       6.878   7.223  16.620  0.00  0.00    +0.000 A 
ENDBRANCH  22  25
ENDBRANCH  20  22
ENDBRANCH   4  20
TORSDOF 8
ENDMDL
MODEL 2
REMARK VINA RESULT:      -7.6      3.378      4.715
REMARK  Name = 
REMARK  11 active torsions:
REMARK  status: ('A' for Active; 'I' for Inactive)
REMARK    1  A    between atoms: C_1  and  C_2
REMARK    2  A    between atoms: C_2  and  C_3
REMARK    3  A    between atoms: C_2  and  C_4
REMARK    4  A    between atoms: C_9  and  O_10
REMARK    5  A    between atoms: O_10  and  C_11
REMARK    6  A    between atoms: C_11  and  C_12
REMARK    7  A    between atoms: C_12  and  C_13
REMARK    8  A    between atoms: C_12  and  N_14
REMARK    9  A    between atoms: C_17  and  N_18
REMARK   10  A    between atoms: N_18  and  S_19
REMARK   11  A    between atoms: S_19  and  C_22
REMARK                            x       y       z     vdW  Elec       q    Type
REMARK                         _______ _______ _______ _____ _____    ______ ____
ROOT
ATOM      1  N   UNL     1       1.395   7.854  19.780  0.00  0.00    +0.000 NA
ATOM      2  C   UNL     1       2.307   7.996  18.641  0.00  0.00    +0.000 C 
ATOM      3  C   UNL     1       2.483   6.682  17.883  0.00  0.00    +0.000 C 
ATOM      4  C   UNL     1       2.980   5.567  18.793  0.00  0.00    +0.000 C 
ATOM      5  C   UNL     1       2.006   5.447  19.970  0.00  0.00    +0.000 C 
ATOM      6  C   UNL     1       1.838   6.786  20.691  0.00  0.00    +0.000 C 
ENDROOT
BRANCH   1   7
ATOM      7  C   UNL     1       1.178   9.125  20.511  0.00  0.00    +0.000 C 
ATOM      8  C   UNL     1       1.332   8.910  22.028  0.00  0.00    +0.000 C 
BRANCH   7   9
ATOM      9  C   UNL     1      -0.152   9.904  20.307  0.00  0.00    +0.000 C 
BRANCH   9  10
ATOM     10  O   UNL     1      -0.279  10.553  19.054  0.00  0.00    +0.000 OA
BRANCH  10  16
ATOM     11  C   UNL     1      -2.607  11.535  18.817  0.00  0.00    +0.000 A 
ATOM     12  C   UNL     1      -3.699  11.577  17.907  0.00  0.00    +0.000 A 
ATOM     13  C   UNL     1      -3.749  10.802  16.750  0.00  0.00    +0.000 A 
ATOM     14  C   UNL     1      -2.707   9.942  16.463  0.00  0.00    +0.000 A 
ATOM     15  C   UNL     1      -1.595   9.913  17.308  0.00  0.00    +0.000 A 
ATOM     16  C   UNL     1      -1.511  10.714  18.467  0.00  0.00    +0.000 A 
BRANCH  11  18
ATOM     17  C   UNL     1      -1.719  13.525  20.105  0.00  0.00    +0.000 C 
ATOM     18  C   UNL     1      -2.753  12.388  20.075  0.00  0.00    +0.000 C 
ATOM     19  C   UNL     1      -4.161  12.978  20.280  0.00  0.00    +0.000 C 
ENDBRANCH  11  18
ENDBRANCH  10  16
ENDBRANCH   9  10
ENDBRANCH   7   9
ENDBRANCH   1   7
BRANCH   4  20
ATOM     20  N   UNL     1       4.349   5.799  19.324  0.00  0.00    +0.000 NA
ATOM     21  H   UNL     1       4.394   6.201  20.263  0.00  0.00    +0.000 HD
BRANCH  20  22
ATOM     22  S   UNL     1       5.571   4.650  19.162  0.00  0.00    +0.000 S 
ATOM     23  O   UNL     1       6.737   5.225  19.791  0.00  0.00    +0.000 OA
ATOM     24  O   UNL     1       5.034   3.373  19.576  0.00  0.00    +0.000 OA
BRANCH  22  25
ATOM     25  C   UNL     1       5.906   4.601  17.409  0.00  0.00    +0.000 A 
ATOM     26  C   UNL     1       5.067   3.888  16.545  0.00  0.00    +0.000 A 
ATOM     27  C   UNL     1       5.356   3.858  15.175  0.00  0.00    +0.000 A 
ATOM     28  C   UNL     1       6.466   4.548  14.697  0.00  0.00    +0.000 A 
ATOM     29  F   UNL     1       6.743   4.512  13.385  0.00  0.00    +0.000 F 
ATOM     30  C   UNL     1       7.292   5.277  15.546  0.00  0.00    +0.000 A 
ATOM     31  C   UNL     1       7.007   5.305  16.914  0.00  0.00    +0.000 A 
ENDBRANCH  22  25
ENDBRANCH  20  22
ENDBRANCH   4  20
TORSDOF 8
ENDMDL
MODEL 3
REMARK VINA RESULT:      -7.3      3.675      6.983
REMARK  Name = 
REMARK  11 active torsions:
REMARK  status: ('A' for Active; 'I' for Inactive)
REMARK    1  A    between atoms: C_1  and  C_2
REMARK    2  A    between atoms: C_2  and  C_3
REMARK    3  A    between atoms: C_2  and  C_4
REMARK    4  A    between atoms: C_9  and  O_10
REMARK    5  A    between atoms: O_10  and  C_11
REMARK    6  A    between atoms: C_11  and  C_12
REMARK    7  A    between atoms: C_12  and  C_13
REMARK    8  A    between atoms: C_12  and  N_14
REMARK    9  A    between atoms: C_17  and  N_18
REMARK   10  A    between atoms: N_18  and  S_19
REMARK   11  A    between atoms: S_19  and  C_22
REMARK                            x       y       z     vdW  Elec       q    Type
REMARK                         _______ _______ _______ _____ _____    ______ ____
ROOT
ATOM      1  N   UNL     1       7.192   6.357  16.628  0.00  0.00    +0.000 NA
ATOM      2  C   UNL     1       7.558   4.938  16.654  0.00  0.00    +0.000 C 
ATOM      3  C   UNL     1       6.688   4.107  15.715  0.00  0.00    +0.000 C 
ATOM      4  C   UNL     1       5.207   4.252  16.039  0.00  0.00    +0.000 C 
ATOM      5  C   UNL     1       4.860   5.744  16.004  0.00  0.00    +0.000 C 
ATOM      6  C   UNL     1       5.766   6.548  16.940  0.00  0.00    +0.000 C 
ENDROOT
BRANCH   1   7
ATOM      7  C   UNL     1       8.047   7.193  17.504  0.00  0.00    +0.000 C 
ATOM      8  C   UNL     1       8.072   6.626  18.936  0.00  0.00    +0.000 C 
BRANCH   7   9
ATOM      9  C   UNL     1       7.750   8.713  17.635  0.00  0.00    +0.000 C 
BRANCH   9  10
ATOM     10  O   UNL     1       8.701   9.445  18.388  0.00  0.00    +0.000 OA
BRANCH  10  16
ATOM     11  C   UNL     1       9.492  11.757  19.073  0.00  0.00    +0.000 A 
ATOM     12  C   UNL     1       9.370  13.122  18.694  0.00  0.00    +0.000 A 
ATOM     13  C   UNL     1       8.484  13.557  17.711  0.00  0.00    +0.000 A 
ATOM     14  C   UNL     1       7.674  12.638  17.072  0.00  0.00    +0.000 A 
ATOM     15  C   UNL     1       7.805  11.282  17.382  0.00  0.00    +0.000 A 
ATOM     16  C   UNL     1       8.719  10.819  18.353  0.00  0.00    +0.000 A 
BRANCH  11  18
ATOM     17  C   UNL     1      11.897  11.847  19.860  0.00  0.00    +0.000 C 
ATOM     18  C   UNL     1      10.453  11.468  20.225  0.00  0.00    +0.000 C 
ATOM     19  C   UNL     1      10.070  12.145  21.553  0.00  0.00    +0.000 C 
ENDBRANCH  11  18
ENDBRANCH  10  16
ENDBRANCH   9  10
ENDBRANCH   7   9
ENDBRANCH   1   7
BRANCH   4  20
ATOM     20  N   UNL     1       4.833   3.703  17.369  0.00  0.00    +0.000 NA
ATOM     21  H   UNL     1       5.210   4.207  18.175  0.00  0.00    +0.000 HD
BRANCH  20  22
ATOM     22  S   UNL     1       3.258   3.214  17.715  0.00  0.00    +0.000 S 
ATOM     23  O   UNL     1       2.519   3.371  16.484  0.00  0.00    +0.000 OA
ATOM     24  O   UNL     1       3.330   1.945  18.403  0.00  0.00    +0.000 OA
BRANCH  22  25
ATOM     25  C   UNL     1       2.645   4.455  18.842  0.00  0.00    +0.000 A 
ATOM     26  C   UNL     1       1.982   4.082  20.017  0.00  0.00    +0.000 A 
ATOM     27  C   UNL     1       1.503   5.075  20.882  0.00  0.00    +0.000 A 
ATOM     28  C   UNL     1       1.705   6.413  20.561  0.00  0.00    +0.000 A 
ATOM     29  F   UNL     1       1.240   7.362  21.388  0.00  0.00    +0.000 F 
ATOM     30  C   UNL     1       2.382   6.792  19.405  0.00  0.00    +0.000 A 
ATOM     31  C   UNL     1       2.857   5.803  18.541  0.00  0.00    +0.000 A 
ENDBRANCH  22  25
ENDBRANCH  20  22
ENDBRANCH   4  20
TORSDOF 8
ENDMDL
MODEL 4
REMARK VINA RESULT:      -7.2      3.223      4.891
REMARK  Name = 
REMARK  11 active torsions:
REMARK  status: ('A' for Active; 'I' for Inactive)
REMARK    1  A    between atoms: C_1  and  C_2
REMARK    2  A    between atoms: C_2  and  C_3
REMARK    3  A    between atoms: C_2  and  C_4
REMARK    4  A    between atoms: C_9  and  O_10
REMARK    5  A    between atoms: O_10  and  C_11
REMARK    6  A    between atoms: C_11  and  C_12
REMARK    7  A    between atoms: C_12  and  C_13
REMARK    8  A    between atoms: C_12  and  N_14
REMARK    9  A    between atoms: C_17  and  N_18
REMARK   10  A    between atoms: N_18  and  S_19
REMARK   11  A    between atoms: S_19  and  C_22
REMARK                            x       y       z     vdW  Elec       q    Type
REMARK                         _______ _______ _______ _____ _____    ______ ____
ROOT
ATOM      1  N   UNL     1       1.397   7.698  20.010  0.00  0.00    +0.000 NA
ATOM      2  C   UNL     1       2.314   8.005  18.908  0.00  0.00    +0.000 C 
ATOM      3  C   UNL     1       2.506   6.811  17.976  0.00  0.00    +0.000 C 
ATOM      4  C   UNL     1       3.009   5.584  18.725  0.00  0.00    +0.000 C 
ATOM      5  C   UNL     1       2.030   5.293  19.868  0.00  0.00    +0.000 C 
ATOM      6  C   UNL     1       1.846   6.518  20.767  0.00  0.00    +0.000 C 
ENDROOT
BRANCH   1   7
ATOM      7  C   UNL     1       1.165   8.854  20.908  0.00  0.00    +0.000 C 
ATOM      8  C   UNL     1      -0.103   8.634  21.756  0.00  0.00    +0.000 C 
BRANCH   7   9
ATOM      9  C   UNL     1       1.049  10.281  20.302  0.00  0.00    +0.000 C 
BRANCH   9  10
ATOM     10  O   UNL     1       0.159  10.393  19.205  0.00  0.00    +0.000 OA
BRANCH  10  16
ATOM     11  C   UNL     1      -2.217  11.048  18.602  0.00  0.00    +0.000 A 
ATOM     12  C   UNL     1      -3.283  11.873  19.055  0.00  0.00    +0.000 A 
ATOM     13  C   UNL     1      -3.142  12.783  20.101  0.00  0.00    +0.000 A 
ATOM     14  C   UNL     1      -1.919  12.911  20.730  0.00  0.00    +0.000 A 
ATOM     15  C   UNL     1      -0.864  12.079  20.345  0.00  0.00    +0.000 A 
ATOM     16  C   UNL     1      -0.996  11.129  19.309  0.00  0.00    +0.000 A 
BRANCH  11  18
ATOM     17  C   UNL     1      -3.833   9.386  17.584  0.00  0.00    +0.000 C 
ATOM     18  C   UNL     1      -2.524  10.167  17.392  0.00  0.00    +0.000 C 
ATOM     19  C   UNL     1      -2.578  10.926  16.054  0.00  0.00    +0.000 C 
ENDBRANCH  11  18
ENDBRANCH  10  16
ENDBRANCH   9  10
ENDBRANCH   7   9
ENDBRANCH   1   7
BRANCH   4  20
ATOM     20  N   UNL     1       4.373   5.752  19.292  0.00  0.00    +0.000 NA
ATOM     21  H   UNL     1       4.411   6.128  20.242  0.00  0.00    +0.000 HD
BRANCH  20  22
ATOM     22  S   UNL     1       5.555   4.562  19.126  0.00  0.00    +0.000 S 
ATOM     23  O   UNL     1       6.726   5.077  19.798  0.00  0.00    +0.000 OA
ATOM     24  O   UNL     1       4.963   3.296  19.492  0.00  0.00    +0.000 OA
BRANCH  22  25
ATOM     25  C   UNL     1       5.930   4.549  17.381  0.00  0.00    +0.000 A 
ATOM     26  C   UNL     1       7.145   5.063  16.912  0.00  0.00    +0.000 A 
ATOM     27  C   UNL     1       7.413   5.048  15.537  0.00  0.00    +0.000 A 
ATOM     28  C   UNL     1       6.471   4.514  14.665  0.00  0.00    +0.000 A 
ATOM     29  F   UNL     1       6.728   4.508  13.348  0.00  0.00    +0.000 F 
ATOM     30  C   UNL     1       5.270   3.982  15.125  0.00  0.00    +0.000 A 
ATOM     31  C   UNL     1       5.000   3.999  16.496  0.00  0.00    +0.000 A 
ENDBRANCH  22  25
ENDBRANCH  20  22
ENDBRANCH   4  20
TORSDOF 8
ENDMDL
MODEL 5
REMARK VINA RESULT:      -7.1      3.298      4.771
REMARK  Name = 
REMARK  11 active torsions:
REMARK  status: ('A' for Active; 'I' for Inactive)
REMARK    1  A    between atoms: C_1  and  C_2
REMARK    2  A    between atoms: C_2  and  C_3
REMARK    3  A    between atoms: C_2  and  C_4
REMARK    4  A    between atoms: C_9  and  O_10
REMARK    5  A    between atoms: O_10  and  C_11
REMARK    6  A    between atoms: C_11  and  C_12
REMARK    7  A    between atoms: C_12  and  C_13
REMARK    8  A    between atoms: C_12  and  N_14
REMARK    9  A    between atoms: C_17  and  N_18
REMARK   10  A    between atoms: N_18  and  S_19
REMARK   11  A    between atoms: S_19  and  C_22
REMARK                            x       y       z     vdW  Elec       q    Type
REMARK                         _______ _______ _______ _____ _____    ______ ____
ROOT
ATOM      1  N   UNL     1       1.351   8.027  19.935  0.00  0.00    +0.000 NA
ATOM      2  C   UNL     1       2.168   8.204  18.731  0.00  0.00    +0.000 C 
ATOM      3  C   UNL     1       2.260   6.920  17.910  0.00  0.00    +0.000 C 
ATOM      4  C   UNL     1       2.814   5.763  18.730  0.00  0.00    +0.000 C 
ATOM      5  C   UNL     1       1.939   5.607  19.979  0.00  0.00    +0.000 C 
ATOM      6  C   UNL     1       1.852   6.918  20.763  0.00  0.00    +0.000 C 
ENDROOT
BRANCH   1   7
ATOM      7  C   UNL     1       1.215   9.270  20.731  0.00  0.00    +0.000 C 
ATOM      8  C   UNL     1       1.405   8.975  22.231  0.00  0.00    +0.000 C 
BRANCH   7   9
ATOM      9  C   UNL     1      -0.083  10.117  20.607  0.00  0.00    +0.000 C 
BRANCH   9  10
ATOM     10  O   UNL     1      -0.295  10.702  19.334  0.00  0.00    +0.000 OA
BRANCH  10  16
ATOM     11  C   UNL     1      -2.542  11.860  19.113  0.00  0.00    +0.000 A 
ATOM     12  C   UNL     1      -3.722  11.837  18.319  0.00  0.00    +0.000 A 
ATOM     13  C   UNL     1      -3.967  10.858  17.358  0.00  0.00    +0.000 A 
ATOM     14  C   UNL     1      -3.041   9.852  17.162  0.00  0.00    +0.000 A 
ATOM     15  C   UNL     1      -1.848   9.873  17.888  0.00  0.00    +0.000 A 
ATOM     16  C   UNL     1      -1.567  10.874  18.843  0.00  0.00    +0.000 A 
BRANCH  11  18
ATOM     17  C   UNL     1      -2.644  12.380  21.588  0.00  0.00    +0.000 C 
ATOM     18  C   UNL     1      -2.474  12.957  20.174  0.00  0.00    +0.000 C 
ATOM     19  C   UNL     1      -1.191  13.807  20.124  0.00  0.00    +0.000 C 
ENDBRANCH  11  18
ENDBRANCH  10  16
ENDBRANCH   9  10
ENDBRANCH   7   9
ENDBRANCH   1   7
BRANCH   4  20
ATOM     20  N   UNL     1       4.226   5.956  19.154  0.00  0.00    +0.000 NA
ATOM     21  H   UNL     1       4.356   6.474  20.026  0.00  0.00    +0.000 HD
BRANCH  20  22
ATOM     22  S   UNL     1       5.352   4.705  19.086  0.00  0.00    +0.000 S 
ATOM     23  O   UNL     1       6.504   5.175  19.820  0.00  0.00    +0.000 OA
ATOM     24  O   UNL     1       4.673   3.479  19.438  0.00  0.00    +0.000 OA
BRANCH  22  25
ATOM     25  C   UNL     1       5.834   4.633  17.368  0.00  0.00    +0.000 A 
ATOM     26  C   UNL     1       7.133   4.979  16.980  0.00  0.00    +0.000 A 
ATOM     27  C   UNL     1       7.485   4.923  15.626  0.00  0.00    +0.000 A 
ATOM     28  C   UNL     1       6.538   4.512  14.692  0.00  0.00    +0.000 A 
ATOM     29  F   UNL     1       6.876   4.465  13.395  0.00  0.00    +0.000 F 
ATOM     30  C   UNL     1       5.251   4.146  15.072  0.00  0.00    +0.000 A 
ATOM     31  C   UNL     1       4.898   4.205  16.423  0.00  0.00    +0.000 A 
ENDBRANCH  22  25
ENDBRANCH  20  22
ENDBRANCH   4  20
TORSDOF 8
ENDMDL
MODEL 6
REMARK VINA RESULT:      -7.1      4.871      8.532
REMARK  Name = 
REMARK  11 active torsions:
REMARK  status: ('A' for Active; 'I' for Inactive)
REMARK    1  A    between atoms: C_1  and  C_2
REMARK    2  A    between atoms: C_2  and  C_3
REMARK    3  A    between atoms: C_2  and  C_4
REMARK    4  A    between atoms: C_9  and  O_10
REMARK    5  A    between atoms: O_10  and  C_11
REMARK    6  A    between atoms: C_11  and  C_12
REMARK    7  A    between atoms: C_12  and  C_13
REMARK    8  A    between atoms: C_12  and  N_14
REMARK    9  A    between atoms: C_17  and  N_18
REMARK   10  A    between atoms: N_18  and  S_19
REMARK   11  A    between atoms: S_19  and  C_22
REMARK                            x       y       z     vdW  Elec       q    Type
REMARK                         _______ _______ _______ _____ _____    ______ ____
ROOT
ATOM      1  N   UNL     1       0.647   9.037  20.690  0.00  0.00    +0.000 NA
ATOM      2  C   UNL     1       0.725   9.486  22.083  0.00  0.00    +0.000 C 
ATOM      3  C   UNL     1      -0.429  10.417  22.449  0.00  0.00    +0.000 C 
ATOM      4  C   UNL     1      -0.489  11.630  21.530  0.00  0.00    +0.000 C 
ATOM      5  C   UNL     1      -0.569  11.125  20.085  0.00  0.00    +0.000 C 
ATOM      6  C   UNL     1       0.590  10.178  19.762  0.00  0.00    +0.000 C 
ENDROOT
BRANCH   1   7
ATOM      7  C   UNL     1       1.736   8.101  20.321  0.00  0.00    +0.000 C 
ATOM      8  C   UNL     1       2.038   8.191  18.813  0.00  0.00    +0.000 C 
BRANCH   7   9
ATOM      9  C   UNL     1       1.588   6.590  20.654  0.00  0.00    +0.000 C 
BRANCH   9  10
ATOM     10  O   UNL     1       2.661   5.775  20.217  0.00  0.00    +0.000 OA
BRANCH  10  16
ATOM     11  C   UNL     1       3.159   4.088  18.387  0.00  0.00    +0.000 A 
ATOM     12  C   UNL     1       2.720   2.826  17.900  0.00  0.00    +0.000 A 
ATOM     13  C   UNL     1       1.583   2.183  18.386  0.00  0.00    +0.000 A 
ATOM     14  C   UNL     1       0.831   2.787  19.374  0.00  0.00    +0.000 A 
ATOM     15  C   UNL     1       1.262   4.003  19.912  0.00  0.00    +0.000 A 
ATOM     16  C   UNL     1       2.428   4.654  19.456  0.00  0.00    +0.000 A 
BRANCH  11  18
ATOM     17  C   UNL     1       5.611   4.679  18.603  0.00  0.00    +0.000 C 
ATOM     18  C   UNL     1       4.377   4.686  17.686  0.00  0.00    +0.000 C 
ATOM     19  C   UNL     1       4.735   4.009  16.350  0.00  0.00    +0.000 C 
ENDBRANCH  11  18
ENDBRANCH  10  16
ENDBRANCH   9  10
ENDBRANCH   7   9
ENDBRANCH   1   7
BRANCH   4  20
ATOM     20  N   UNL     1       0.685  12.533  21.659  0.00  0.00    +0.000 NA
ATOM     21  H   UNL     1       1.531  12.226  21.174  0.00  0.00    +0.000 HD
BRANCH  20  22
ATOM     22  S   UNL     1       0.540  14.204  21.503  0.00  0.00    +0.000 S 
ATOM     23  O   UNL     1      -0.840  14.447  21.153  0.00  0.00    +0.000 OA
ATOM     24  O   UNL     1       1.149  14.811  22.664  0.00  0.00    +0.000 OA
BRANCH  22  25
ATOM     25  C   UNL     1       1.511  14.602  20.059  0.00  0.00    +0.000 A 
ATOM     26  C   UNL     1       2.245  13.608  19.400  0.00  0.00    +0.000 A 
ATOM     27  C   UNL     1       3.006  13.947  18.275  0.00  0.00    +0.000 A 
ATOM     28  C   UNL     1       3.009  15.264  17.824  0.00  0.00    +0.000 A 
ATOM     29  F   UNL     1       3.744  15.586  16.750  0.00  0.00    +0.000 F 
ATOM     30  C   UNL     1       2.266  16.253  18.460  0.00  0.00    +0.000 A 
ATOM     31  C   UNL     1       1.508  15.917  19.586  0.00  0.00    +0.000 A 
ENDBRANCH  22  25
ENDBRANCH  20  22
ENDBRANCH   4  20
TORSDOF 8
ENDMDL
MODEL 7
REMARK VINA RESULT:      -7.1      5.139      9.647
REMARK  Name = 
REMARK  11 active torsions:
REMARK  status: ('A' for Active; 'I' for Inactive)
REMARK    1  A    between atoms: C_1  and  C_2
REMARK    2  A    between atoms: C_2  and  C_3
REMARK    3  A    between atoms: C_2  and  C_4
REMARK    4  A    between atoms: C_9  and  O_10
REMARK    5  A    between atoms: O_10  and  C_11
REMARK    6  A    between atoms: C_11  and  C_12
REMARK    7  A    between atoms: C_12  and  C_13
REMARK    8  A    between atoms: C_12  and  N_14
REMARK    9  A    between atoms: C_17  and  N_18
REMARK   10  A    between atoms: N_18  and  S_19
REMARK   11  A    between atoms: S_19  and  C_22
REMARK                            x       y       z     vdW  Elec       q    Type
REMARK                         _______ _______ _______ _____ _____    ______ ____
ROOT
ATOM      1  N   UNL     1       1.033   8.699  19.990  0.00  0.00    +0.000 NA
ATOM      2  C   UNL     1       1.291   8.917  21.417  0.00  0.00    +0.000 C 
ATOM      3  C   UNL     1       0.039   9.376  22.160  0.00  0.00    +0.000 C 
ATOM      4  C   UNL     1      -0.544  10.646  21.553  0.00  0.00    +0.000 C 
ATOM      5  C   UNL     1      -0.800  10.384  20.065  0.00  0.00    +0.000 C 
ATOM      6  C   UNL     1       0.470   9.904  19.358  0.00  0.00    +0.000 C 
ENDROOT
BRANCH   1   7
ATOM      7  C   UNL     1       2.225   8.216  19.253  0.00  0.00    +0.000 C 
ATOM      8  C   UNL     1       2.133   8.602  17.764  0.00  0.00    +0.000 C 
BRANCH   7   9
ATOM      9  C   UNL     1       2.589   6.705  19.297  0.00  0.00    +0.000 C 
BRANCH   9  10
ATOM     10  O   UNL     1       2.311   5.989  18.107  0.00  0.00    +0.000 OA
BRANCH  10  16
ATOM     11  C   UNL     1       3.912   4.059  17.719  0.00  0.00    +0.000 A 
ATOM     12  C   UNL     1       3.970   2.640  17.799  0.00  0.00    +0.000 A 
ATOM     13  C   UNL     1       2.850   1.852  18.055  0.00  0.00    +0.000 A 
ATOM     14  C   UNL     1       1.620   2.455  18.231  0.00  0.00    +0.000 A 
ATOM     15  C   UNL     1       1.536   3.849  18.210  0.00  0.00    +0.000 A 
ATOM     16  C   UNL     1       2.664   4.667  17.984  0.00  0.00    +0.000 A 
BRANCH  11  18
ATOM     17  C   UNL     1       4.997   5.814  16.253  0.00  0.00    +0.000 C 
ATOM     18  C   UNL     1       5.217   4.760  17.350  0.00  0.00    +0.000 C 
ATOM     19  C   UNL     1       5.946   5.411  18.540  0.00  0.00    +0.000 C 
ENDBRANCH  11  18
ENDBRANCH  10  16
ENDBRANCH   9  10
ENDBRANCH   7   9
ENDBRANCH   1   7
BRANCH   4  20
ATOM     20  N   UNL     1       0.343  11.831  21.687  0.00  0.00    +0.000 NA
ATOM     21  H   UNL     1       1.218  11.787  21.160  0.00  0.00    +0.000 HD
BRANCH  20  22
ATOM     22  S   UNL     1      -0.260  13.403  21.616  0.00  0.00    +0.000 S 
ATOM     23  O   UNL     1       0.395  14.122  22.685  0.00  0.00    +0.000 OA
ATOM     24  O   UNL     1      -0.182  13.845  20.243  0.00  0.00    +0.000 OA
BRANCH  22  25
ATOM     25  C   UNL     1      -1.975  13.243  22.083  0.00  0.00    +0.000 A 
ATOM     26  C   UNL     1      -2.980  13.253  21.108  0.00  0.00    +0.000 A 
ATOM     27  C   UNL     1      -4.319  13.134  21.500  0.00  0.00    +0.000 A 
ATOM     28  C   UNL     1      -4.625  12.996  22.850  0.00  0.00    +0.000 A 
ATOM     29  F   UNL     1      -5.909  12.889  23.222  0.00  0.00    +0.000 F 
ATOM     30  C   UNL     1      -3.631  12.963  23.823  0.00  0.00    +0.000 A 
ATOM     31  C   UNL     1      -2.294  13.085  23.434  0.00  0.00    +0.000 A 
ENDBRANCH  22  25
ENDBRANCH  20  22
ENDBRANCH   4  20
TORSDOF 8
ENDMDL
MODEL 8
REMARK VINA RESULT:      -7.1      4.562      8.213
REMARK  Name = 
REMARK  11 active torsions:
REMARK  status: ('A' for Active; 'I' for Inactive)
REMARK    1  A    between atoms: C_1  and  C_2
REMARK    2  A    between atoms: C_2  and  C_3
REMARK    3  A    between atoms: C_2  and  C_4
REMARK    4  A    between atoms: C_9  and  O_10
REMARK    5  A    between atoms: O_10  and  C_11
REMARK    6  A    between atoms: C_11  and  C_12
REMARK    7  A    between atoms: C_12  and  C_13
REMARK    8  A    between atoms: C_12  and  N_14
REMARK    9  A    between atoms: C_17  and  N_18
REMARK   10  A    between atoms: N_18  and  S_19
REMARK   11  A    between atoms: S_19  and  C_22
REMARK                            x       y       z     vdW  Elec       q    Type
REMARK                         _______ _______ _______ _____ _____    ______ ____
ROOT
ATOM      1  N   UNL     1       1.111   8.558  20.144  0.00  0.00    +0.000 NA
ATOM      2  C   UNL     1       1.474   8.858  21.531  0.00  0.00    +0.000 C 
ATOM      3  C   UNL     1       0.305   9.452  22.313  0.00  0.00    +0.000 C 
ATOM      4  C   UNL     1      -0.237  10.711  21.649  0.00  0.00    +0.000 C 
ATOM      5  C   UNL     1      -0.606  10.363  20.203  0.00  0.00    +0.000 C 
ATOM      6  C   UNL     1       0.583   9.750  19.459  0.00  0.00    +0.000 C 
ENDROOT
BRANCH   1   7
ATOM      7  C   UNL     1       2.219   7.946  19.373  0.00  0.00    +0.000 C 
ATOM      8  C   UNL     1       2.185   8.418  17.908  0.00  0.00    +0.000 C 
BRANCH   7   9
ATOM      9  C   UNL     1       2.358   6.398  19.337  0.00  0.00    +0.000 C 
BRANCH   9  10
ATOM     10  O   UNL     1       3.690   5.917  19.320  0.00  0.00    +0.000 OA
BRANCH  10  16
ATOM     11  C   UNL     1       4.143   4.162  17.544  0.00  0.00    +0.000 A 
ATOM     12  C   UNL     1       4.734   4.019  16.259  0.00  0.00    +0.000 A 
ATOM     13  C   UNL     1       5.452   5.040  15.640  0.00  0.00    +0.000 A 
ATOM     14  C   UNL     1       5.616   6.247  16.292  0.00  0.00    +0.000 A 
ATOM     15  C   UNL     1       5.004   6.439  17.533  0.00  0.00    +0.000 A 
ATOM     16  C   UNL     1       4.247   5.428  18.162  0.00  0.00    +0.000 A 
BRANCH  11  18
ATOM     17  C   UNL     1       3.989   2.575  19.511  0.00  0.00    +0.000 C 
ATOM     18  C   UNL     1       3.463   2.916  18.108  0.00  0.00    +0.000 C 
ATOM     19  C   UNL     1       1.926   2.996  18.148  0.00  0.00    +0.000 C 
ENDBRANCH  11  18
ENDBRANCH  10  16
ENDBRANCH   9  10
ENDBRANCH   7   9
ENDBRANCH   1   7
BRANCH   4  20
ATOM     20  N   UNL     1       0.729  11.841  21.639  0.00  0.00    +0.000 NA
ATOM     21  H   UNL     1       1.589  11.680  21.111  0.00  0.00    +0.000 HD
BRANCH  20  22
ATOM     22  S   UNL     1       0.230  13.433  21.400  0.00  0.00    +0.000 S 
ATOM     23  O   UNL     1      -1.108  13.347  20.862  0.00  0.00    +0.000 OA
ATOM     24  O   UNL     1       0.519  14.173  22.607  0.00  0.00    +0.000 OA
BRANCH  22  25
ATOM     25  C   UNL     1       1.274  14.033  20.083  0.00  0.00    +0.000 A 
ATOM     26  C   UNL     1       1.342  15.402  19.797  0.00  0.00    +0.000 A 
ATOM     27  C   UNL     1       2.163  15.847  18.754  0.00  0.00    +0.000 A 
ATOM     28  C   UNL     1       2.904  14.921  18.026  0.00  0.00    +0.000 A 
ATOM     29  F   UNL     1       3.684  15.350  17.023  0.00  0.00    +0.000 F 
ATOM     30  C   UNL     1       2.858  13.561  18.317  0.00  0.00    +0.000 A 
ATOM     31  C   UNL     1       2.037  13.115  19.356  0.00  0.00    +0.000 A 
ENDBRANCH  22  25
ENDBRANCH  20  22
ENDBRANCH   4  20
TORSDOF 8
ENDMDL
MODEL 9
REMARK VINA RESULT:      -7.0      3.096      5.040
REMARK  Name = 
REMARK  11 active torsions:
REMARK  status: ('A' for Active; 'I' for Inactive)
REMARK    1  A    between atoms: C_1  and  C_2
REMARK    2  A    between atoms: C_2  and  C_3
REMARK    3  A    between atoms: C_2  and  C_4
REMARK    4  A    between atoms: C_9  and  O_10
REMARK    5  A    between atoms: O_10  and  C_11
REMARK    6  A    between atoms: C_11  and  C_12
REMARK    7  A    between atoms: C_12  and  C_13
REMARK    8  A    between atoms: C_12  and  N_14
REMARK    9  A    between atoms: C_17  and  N_18
REMARK   10  A    between atoms: N_18  and  S_19
REMARK   11  A    between atoms: S_19  and  C_22
REMARK                            x       y       z     vdW  Elec       q    Type
REMARK                         _______ _______ _______ _____ _____    ______ ____
ROOT
ATOM      1  N   UNL     1       1.365   7.666  20.114  0.00  0.00    +0.000 NA
ATOM      2  C   UNL     1       2.264   8.056  19.024  0.00  0.00    +0.000 C 
ATOM      3  C   UNL     1       2.483   6.917  18.030  0.00  0.00    +0.000 C 
ATOM      4  C   UNL     1       3.028   5.669  18.711  0.00  0.00    +0.000 C 
ATOM      5  C   UNL     1       2.067   5.291  19.844  0.00  0.00    +0.000 C 
ATOM      6  C   UNL     1       1.854   6.462  20.807  0.00  0.00    +0.000 C 
ENDROOT
BRANCH   1   7
ATOM      7  C   UNL     1       1.106   8.767  21.073  0.00  0.00    +0.000 C 
ATOM      8  C   UNL     1      -0.075   8.412  21.996  0.00  0.00    +0.000 C 
BRANCH   7   9
ATOM      9  C   UNL     1       0.832  10.199  20.534  0.00  0.00    +0.000 C 
BRANCH   9  10
ATOM     10  O   UNL     1       0.750  11.205  21.528  0.00  0.00    +0.000 OA
BRANCH  10  16
ATOM     11  C   UNL     1      -0.868  13.013  20.785  0.00  0.00    +0.000 A 
ATOM     12  C   UNL     1      -2.143  13.554  21.109  0.00  0.00    +0.000 A 
ATOM     13  C   UNL     1      -2.859  13.174  22.242  0.00  0.00    +0.000 A 
ATOM     14  C   UNL     1      -2.319  12.241  23.106  0.00  0.00    +0.000 A 
ATOM     15  C   UNL     1      -1.092  11.652  22.792  0.00  0.00    +0.000 A 
ATOM     16  C   UNL     1      -0.366  12.000  21.633  0.00  0.00    +0.000 A 
BRANCH  11  18
ATOM     17  C   UNL     1      -0.627  12.877  18.269  0.00  0.00    +0.000 C 
ATOM     18  C   UNL     1      -0.188  13.602  19.551  0.00  0.00    +0.000 C 
ATOM     19  C   UNL     1      -0.398  15.117  19.374  0.00  0.00    +0.000 C 
ENDBRANCH  11  18
ENDBRANCH  10  16
ENDBRANCH   9  10
ENDBRANCH   7   9
ENDBRANCH   1   7
BRANCH   4  20
ATOM     20  N   UNL     1       4.391   5.848  19.278  0.00  0.00    +0.000 NA
ATOM     21  H   UNL     1       4.427   6.234  20.224  0.00  0.00    +0.000 HD
BRANCH  20  22
ATOM     22  S   UNL     1       5.577   4.661  19.126  0.00  0.00    +0.000 S 
ATOM     23  O   UNL     1       6.757   5.202  19.759  0.00  0.00    +0.000 OA
ATOM     24  O   UNL     1       5.000   3.403  19.541  0.00  0.00    +0.000 OA
BRANCH  22  25
ATOM     25  C   UNL     1       5.920   4.597  17.375  0.00  0.00    +0.000 A 
ATOM     26  C   UNL     1       5.009   4.004  16.494  0.00  0.00    +0.000 A 
ATOM     27  C   UNL     1       5.304   3.959  15.126  0.00  0.00    +0.000 A 
ATOM     28  C   UNL     1       6.494   4.515  14.666  0.00  0.00    +0.000 A 
ATOM     29  F   UNL     1       6.777   4.464  13.356  0.00  0.00    +0.000 F 
ATOM     30  C   UNL     1       7.396   5.124  15.533  0.00  0.00    +0.000 A 
ATOM     31  C   UNL     1       7.103   5.167  16.899  0.00  0.00    +0.000 A 
ENDBRANCH  22  25
ENDBRANCH  20  22
ENDBRANCH   4  20
TORSDOF 8
ENDMDL
