MODEL 1
REMARK VINA RESULT:      -8.2      0.000      0.000
REMARK  Name = 
REMARK  5 active torsions:
REMARK  status: ('A' for Active; 'I' for Inactive)
REMARK    1  A    between atoms: C_2  and  C_3
REMARK    2  A    between atoms: C_3  and  N_4
REMARK    3  A    between atoms: C_6  and  C_7
REMARK    4  A    between atoms: C_9  and  C_10
REMARK    5  A    between atoms: C_21  and  C_22
REMARK                            x       y       z     vdW  Elec       q    Type
REMARK                         _______ _______ _______ _____ _____    ______ ____
ROOT
ATOM      1  C   UNL     1       3.935   4.869  18.468  0.00  0.00    +0.000 A 
ATOM      2  C   UNL     1       3.493   6.148  18.824  0.00  0.00    +0.000 A 
ATOM      3  C   UNL     1       2.363   6.297  19.618  0.00  0.00    +0.000 A 
ATOM      4  N   UNL     1       1.698   5.226  20.113  0.00  0.00    +0.000 NA
ATOM      5  C   UNL     1       2.113   3.986  19.763  0.00  0.00    +0.000 A 
ATOM      6  N   UNL     1       1.305   2.943  20.211  0.00  0.00    +0.000 N 
ATOM      7  C   UNL     1       3.205   3.764  18.922  0.00  0.00    +0.000 A 
ATOM      8  H   UNL     1       0.650   3.290  20.906  0.00  0.00    +0.000 HD
ATOM      9  H   UNL     1       1.792   2.102  20.502  0.00  0.00    +0.000 HD
ENDROOT
BRANCH   3  10
ATOM     10  C   UNL     1       1.816   7.630  19.935  0.00  0.00    +0.000 A 
ATOM     11  C   UNL     1       1.394   7.956  21.239  0.00  0.00    +0.000 A 
ATOM     12  C   UNL     1       0.851   9.204  21.529  0.00  0.00    +0.000 A 
ATOM     13  F   UNL     1       0.447   9.467  22.779  0.00  0.00    +0.000 F 
ATOM     14  C   UNL     1       0.712  10.167  20.546  0.00  0.00    +0.000 A 
ATOM     15  C   UNL     1       1.139   9.867  19.262  0.00  0.00    +0.000 A 
ATOM     16  F   UNL     1       1.008  10.786  18.296  0.00  0.00    +0.000 F 
ATOM     17  C   UNL     1       1.690   8.623  18.951  0.00  0.00    +0.000 A 
ENDBRANCH   3  10
BRANCH   1  20
ATOM     18  N   UNL     1       6.420   4.625  15.859  0.00  0.00    +0.000 N 
ATOM     19  C   UNL     1       5.116   4.737  16.251  0.00  0.00    +0.000 A 
ATOM     20  C   UNL     1       5.123   4.753  17.632  0.00  0.00    +0.000 A 
ATOM     21  C   UNL     1       6.491   4.623  17.964  0.00  0.00    +0.000 A 
ATOM     22  N   UNL     1       7.280   4.543  16.890  0.00  0.00    +0.000 NA
BRANCH  18  23
ATOM     23  C   UNL     1       6.916   4.525  14.493  0.00  0.00    +0.000 C 
BRANCH  23  25
ATOM     24  C   UNL     1       6.231   3.440  12.332  0.00  0.00    +0.000 C 
ATOM     25  C   UNL     1       5.945   3.831  13.581  0.00  0.00    +0.000 C 
ENDBRANCH  23  25
ENDBRANCH  18  23
ENDBRANCH   1  20
BRANCH   7  26
ATOM     26  C   UNL     1       3.563   2.414  18.592  0.00  0.00    +0.000 C 
ATOM     27  N   UNL     1       3.847   1.321  18.338  0.00  0.00    +0.000 NA
ENDBRANCH   7  26
TORSDOF 5
ENDMDL
MODEL 2
REMARK VINA RESULT:      -8.1      0.087      1.640
REMARK  Name = 
REMARK  5 active torsions:
REMARK  status: ('A' for Active; 'I' for Inactive)
REMARK    1  A    between atoms: C_2  and  C_3
REMARK    2  A    between atoms: C_3  and  N_4
REMARK    3  A    between atoms: C_6  and  C_7
REMARK    4  A    between atoms: C_9  and  C_10
REMARK    5  A    between atoms: C_21  and  C_22
REMARK                            x       y       z     vdW  Elec       q    Type
REMARK                         _______ _______ _______ _____ _____    ______ ____
ROOT
ATOM      1  C   UNL     1       3.960   4.867  18.496  0.00  0.00    +0.000 A 
ATOM      2  C   UNL     1       3.500   6.145  18.832  0.00  0.00    +0.000 A 
ATOM      3  C   UNL     1       2.381   6.291  19.643  0.00  0.00    +0.000 A 
ATOM      4  N   UNL     1       1.744   5.219  20.172  0.00  0.00    +0.000 NA
ATOM      5  C   UNL     1       2.177   3.979  19.842  0.00  0.00    +0.000 A 
ATOM      6  N   UNL     1       1.395   2.932  20.326  0.00  0.00    +0.000 N 
ATOM      7  C   UNL     1       3.258   3.758  18.986  0.00  0.00    +0.000 A 
ATOM      8  H   UNL     1       0.746   3.282  21.025  0.00  0.00    +0.000 HD
ATOM      9  H   UNL     1       1.902   2.106  20.626  0.00  0.00    +0.000 HD
ENDROOT
BRANCH   3  10
ATOM     10  C   UNL     1       1.815   7.620  19.941  0.00  0.00    +0.000 A 
ATOM     11  C   UNL     1       1.751   8.625  18.955  0.00  0.00    +0.000 A 
ATOM     12  C   UNL     1       1.243   9.888  19.247  0.00  0.00    +0.000 A 
ATOM     13  F   UNL     1       1.216  10.820  18.285  0.00  0.00    +0.000 F 
ATOM     14  C   UNL     1       0.781  10.195  20.514  0.00  0.00    +0.000 A 
ATOM     15  C   UNL     1       0.821   9.211  21.489  0.00  0.00    +0.000 A 
ATOM     16  F   UNL     1       0.381   9.492  22.722  0.00  0.00    +0.000 F 
ATOM     17  C   UNL     1       1.322   7.937  21.217  0.00  0.00    +0.000 A 
ENDBRANCH   3  10
BRANCH   1  20
ATOM     18  N   UNL     1       6.409   4.659  15.851  0.00  0.00    +0.000 N 
ATOM     19  C   UNL     1       5.112   4.785  16.262  0.00  0.00    +0.000 A 
ATOM     20  C   UNL     1       5.135   4.754  17.643  0.00  0.00    +0.000 A 
ATOM     21  C   UNL     1       6.504   4.584  17.953  0.00  0.00    +0.000 A 
ATOM     22  N   UNL     1       7.278   4.524  16.868  0.00  0.00    +0.000 NA
BRANCH  18  23
ATOM     23  C   UNL     1       6.886   4.595  14.476  0.00  0.00    +0.000 C 
BRANCH  23  25
ATOM     24  C   UNL     1       6.237   3.507  12.305  0.00  0.00    +0.000 C 
ATOM     25  C   UNL     1       6.004   3.749  13.602  0.00  0.00    +0.000 C 
ENDBRANCH  23  25
ENDBRANCH  18  23
ENDBRANCH   1  20
BRANCH   7  26
ATOM     26  C   UNL     1       3.635   2.409  18.680  0.00  0.00    +0.000 C 
ATOM     27  N   UNL     1       3.950   1.324  18.427  0.00  0.00    +0.000 NA
ENDBRANCH   7  26
TORSDOF 5
ENDMDL
MODEL 3
REMARK VINA RESULT:      -7.6      3.946      5.888
REMARK  Name = 
REMARK  5 active torsions:
REMARK  status: ('A' for Active; 'I' for Inactive)
REMARK    1  A    between atoms: C_2  and  C_3
REMARK    2  A    between atoms: C_3  and  N_4
REMARK    3  A    between atoms: C_6  and  C_7
REMARK    4  A    between atoms: C_9  and  C_10
REMARK    5  A    between atoms: C_21  and  C_22
REMARK                            x       y       z     vdW  Elec       q    Type
REMARK                         _______ _______ _______ _____ _____    ______ ____
ROOT
ATOM      1  C   UNL     1       6.197   5.535  17.356  0.00  0.00    +0.000 A 
ATOM      2  C   UNL     1       5.191   5.111  18.232  0.00  0.00    +0.000 A 
ATOM      3  C   UNL     1       4.344   4.072  17.867  0.00  0.00    +0.000 A 
ATOM      4  N   UNL     1       4.500   3.408  16.697  0.00  0.00    +0.000 NA
ATOM      5  C   UNL     1       5.464   3.819  15.840  0.00  0.00    +0.000 A 
ATOM      6  N   UNL     1       5.479   3.167  14.609  0.00  0.00    +0.000 N 
ATOM      7  C   UNL     1       6.312   4.894  16.116  0.00  0.00    +0.000 A 
ATOM      8  H   UNL     1       4.888   2.342  14.650  0.00  0.00    +0.000 HD
ATOM      9  H   UNL     1       6.398   2.983  14.220  0.00  0.00    +0.000 HD
ENDROOT
BRANCH   3  10
ATOM     10  C   UNL     1       3.215   3.662  18.724  0.00  0.00    +0.000 A 
ATOM     11  C   UNL     1       3.229   3.898  20.113  0.00  0.00    +0.000 A 
ATOM     12  C   UNL     1       2.176   3.483  20.924  0.00  0.00    +0.000 A 
ATOM     13  F   UNL     1       2.237   3.712  22.242  0.00  0.00    +0.000 F 
ATOM     14  C   UNL     1       1.079   2.831  20.390  0.00  0.00    +0.000 A 
ATOM     15  C   UNL     1       1.043   2.609  19.023  0.00  0.00    +0.000 A 
ATOM     16  F   UNL     1      -0.009   1.976  18.489  0.00  0.00    +0.000 F 
ATOM     17  C   UNL     1       2.086   3.019  18.191  0.00  0.00    +0.000 A 
ENDBRANCH   3  10
BRANCH   1  20
ATOM     18  N   UNL     1       7.971   8.628  17.925  0.00  0.00    +0.000 N 
ATOM     19  C   UNL     1       7.005   7.914  17.272  0.00  0.00    +0.000 A 
ATOM     20  C   UNL     1       7.064   6.629  17.773  0.00  0.00    +0.000 A 
ATOM     21  C   UNL     1       8.121   6.680  18.711  0.00  0.00    +0.000 A 
ATOM     22  N   UNL     1       8.674   7.891  18.803  0.00  0.00    +0.000 NA
BRANCH  18  23
ATOM     23  C   UNL     1       8.322  10.025  17.707  0.00  0.00    +0.000 C 
BRANCH  23  25
ATOM     24  C   UNL     1      10.313  11.362  18.459  0.00  0.00    +0.000 C 
ATOM     25  C   UNL     1       9.292  10.538  18.732  0.00  0.00    +0.000 C 
ENDBRANCH  23  25
ENDBRANCH  18  23
ENDBRANCH   1  20
BRANCH   7  26
ATOM     26  C   UNL     1       7.295   5.269  15.141  0.00  0.00    +0.000 C 
ATOM     27  N   UNL     1       8.079   5.574  14.345  0.00  0.00    +0.000 NA
ENDBRANCH   7  26
TORSDOF 5
ENDMDL
MODEL 4
REMARK VINA RESULT:      -7.5      3.978      6.048
REMARK  Name = 
REMARK  5 active torsions:
REMARK  status: ('A' for Active; 'I' for Inactive)
REMARK    1  A    between atoms: C_2  and  C_3
REMARK    2  A    between atoms: C_3  and  N_4
REMARK    3  A    between atoms: C_6  and  C_7
REMARK    4  A    between atoms: C_9  and  C_10
REMARK    5  A    between atoms: C_21  and  C_22
REMARK                            x       y       z     vdW  Elec       q    Type
REMARK                         _______ _______ _______ _____ _____    ______ ____
ROOT
ATOM      1  C   UNL     1       6.207   5.482  17.356  0.00  0.00    +0.000 A 
ATOM      2  C   UNL     1       5.213   5.042  18.237  0.00  0.00    +0.000 A 
ATOM      3  C   UNL     1       4.369   4.002  17.868  0.00  0.00    +0.000 A 
ATOM      4  N   UNL     1       4.515   3.354  16.688  0.00  0.00    +0.000 NA
ATOM      5  C   UNL     1       5.468   3.781  15.826  0.00  0.00    +0.000 A 
ATOM      6  N   UNL     1       5.474   3.145  14.587  0.00  0.00    +0.000 N 
ATOM      7  C   UNL     1       6.313   4.858  16.107  0.00  0.00    +0.000 A 
ATOM      8  H   UNL     1       4.887   2.316  14.623  0.00  0.00    +0.000 HD
ATOM      9  H   UNL     1       6.389   2.972  14.185  0.00  0.00    +0.000 HD
ENDROOT
BRANCH   3  10
ATOM     10  C   UNL     1       3.251   3.575  18.732  0.00  0.00    +0.000 A 
ATOM     11  C   UNL     1       2.123   2.921  18.198  0.00  0.00    +0.000 A 
ATOM     12  C   UNL     1       1.057   2.546  19.012  0.00  0.00    +0.000 A 
ATOM     13  F   UNL     1      -0.004   1.942  18.461  0.00  0.00    +0.000 F 
ATOM     14  C   UNL     1       1.075   2.798  20.372  0.00  0.00    +0.000 A 
ATOM     15  C   UNL     1       2.187   3.424  20.913  0.00  0.00    +0.000 A 
ATOM     16  F   UNL     1       2.219   3.679  22.228  0.00  0.00    +0.000 F 
ATOM     17  C   UNL     1       3.267   3.805  20.117  0.00  0.00    +0.000 A 
ENDBRANCH   3  10
BRANCH   1  20
ATOM     18  N   UNL     1       7.987   8.572  17.924  0.00  0.00    +0.000 N 
ATOM     19  C   UNL     1       7.030   7.857  17.261  0.00  0.00    +0.000 A 
ATOM     20  C   UNL     1       7.072   6.576  17.777  0.00  0.00    +0.000 A 
ATOM     21  C   UNL     1       8.112   6.632  18.734  0.00  0.00    +0.000 A 
ATOM     22  N   UNL     1       8.670   7.841  18.823  0.00  0.00    +0.000 NA
BRANCH  18  23
ATOM     23  C   UNL     1       8.349   9.965  17.698  0.00  0.00    +0.000 C 
BRANCH  23  25
ATOM     24  C   UNL     1      10.041  11.602  18.579  0.00  0.00    +0.000 C 
ATOM     25  C   UNL     1       9.331  10.473  18.714  0.00  0.00    +0.000 C 
ENDBRANCH  23  25
ENDBRANCH  18  23
ENDBRANCH   1  20
BRANCH   7  26
ATOM     26  C   UNL     1       7.282   5.251  15.126  0.00  0.00    +0.000 C 
ATOM     27  N   UNL     1       8.075   5.564  14.342  0.00  0.00    +0.000 NA
ENDBRANCH   7  26
TORSDOF 5
ENDMDL
MODEL 5
REMARK VINA RESULT:      -7.5      1.697      2.034
REMARK  Name = 
REMARK  5 active torsions:
REMARK  status: ('A' for Active; 'I' for Inactive)
REMARK    1  A    between atoms: C_2  and  C_3
REMARK    2  A    between atoms: C_3  and  N_4
REMARK    3  A    between atoms: C_6  and  C_7
REMARK    4  A    between atoms: C_9  and  C_10
REMARK    5  A    between atoms: C_21  and  C_22
REMARK                            x       y       z     vdW  Elec       q    Type
REMARK                         _______ _______ _______ _____ _____    ______ ____
ROOT
ATOM      1  C   UNL     1       4.105   6.411  18.189  0.00  0.00    +0.000 A 
ATOM      2  C   UNL     1       3.324   7.566  18.075  0.00  0.00    +0.000 A 
ATOM      3  C   UNL     1       2.257   7.772  18.940  0.00  0.00    +0.000 A 
ATOM      4  N   UNL     1       1.979   6.903  19.942  0.00  0.00    +0.000 NA
ATOM      5  C   UNL     1       2.723   5.778  20.051  0.00  0.00    +0.000 A 
ATOM      6  N   UNL     1       2.296   4.878  21.026  0.00  0.00    +0.000 N 
ATOM      7  C   UNL     1       3.773   5.479  19.180  0.00  0.00    +0.000 A 
ATOM      8  H   UNL     1       1.616   5.326  21.632  0.00  0.00    +0.000 HD
ATOM      9  H   UNL     1       3.032   4.397  21.533  0.00  0.00    +0.000 HD
ENDROOT
BRANCH   3  10
ATOM     10  C   UNL     1       1.357   8.931  18.790  0.00  0.00    +0.000 A 
ATOM     11  C   UNL     1       1.485  10.068  19.613  0.00  0.00    +0.000 A 
ATOM     12  C   UNL     1       0.616  11.148  19.489  0.00  0.00    +0.000 A 
ATOM     13  F   UNL     1       0.762  12.201  20.303  0.00  0.00    +0.000 F 
ATOM     14  C   UNL     1      -0.400  11.141  18.550  0.00  0.00    +0.000 A 
ATOM     15  C   UNL     1      -0.526  10.038  17.721  0.00  0.00    +0.000 A 
ATOM     16  F   UNL     1      -1.506  10.014  16.808  0.00  0.00    +0.000 F 
ATOM     17  C   UNL     1       0.337   8.947  17.826  0.00  0.00    +0.000 A 
ENDBRANCH   3  10
BRANCH   1  20
ATOM     18  N   UNL     1       6.423   5.499  15.574  0.00  0.00    +0.000 N 
ATOM     19  C   UNL     1       5.209   5.363  16.187  0.00  0.00    +0.000 A 
ATOM     20  C   UNL     1       5.215   6.229  17.262  0.00  0.00    +0.000 A 
ATOM     21  C   UNL     1       6.497   6.823  17.211  0.00  0.00    +0.000 A 
ATOM     22  N   UNL     1       7.233   6.380  16.189  0.00  0.00    +0.000 NA
BRANCH  18  23
ATOM     23  C   UNL     1       6.904   4.758  14.415  0.00  0.00    +0.000 C 
BRANCH  23  25
ATOM     24  C   UNL     1       5.819   3.471  12.549  0.00  0.00    +0.000 C 
ATOM     25  C   UNL     1       5.851   3.862  13.831  0.00  0.00    +0.000 C 
ENDBRANCH  23  25
ENDBRANCH  18  23
ENDBRANCH   1  20
BRANCH   7  26
ATOM     26  C   UNL     1       4.497   4.254  19.362  0.00  0.00    +0.000 C 
ATOM     27  N   UNL     1       5.075   3.260  19.498  0.00  0.00    +0.000 NA
ENDBRANCH   7  26
TORSDOF 5
ENDMDL
MODEL 6
REMARK VINA RESULT:      -7.4      0.998      1.103
REMARK  Name = 
REMARK  5 active torsions:
REMARK  status: ('A' for Active; 'I' for Inactive)
REMARK    1  A    between atoms: C_2  and  C_3
REMARK    2  A    between atoms: C_3  and  N_4
REMARK    3  A    between atoms: C_6  and  C_7
REMARK    4  A    between atoms: C_9  and  C_10
REMARK    5  A    between atoms: C_21  and  C_22
REMARK                            x       y       z     vdW  Elec       q    Type
REMARK                         _______ _______ _______ _____ _____    ______ ____
ROOT
ATOM      1  C   UNL     1       3.394   5.573  18.352  0.00  0.00    +0.000 A 
ATOM      2  C   UNL     1       2.940   6.822  18.788  0.00  0.00    +0.000 A 
ATOM      3  C   UNL     1       2.089   6.909  19.883  0.00  0.00    +0.000 A 
ATOM      4  N   UNL     1       1.725   5.810  20.587  0.00  0.00    +0.000 NA
ATOM      5  C   UNL     1       2.153   4.597  20.164  0.00  0.00    +0.000 A 
ATOM      6  N   UNL     1       1.636   3.510  20.866  0.00  0.00    +0.000 N 
ATOM      7  C   UNL     1       2.961   4.431  19.037  0.00  0.00    +0.000 A 
ATOM      8  H   UNL     1       1.185   3.834  21.717  0.00  0.00    +0.000 HD
ATOM      9  H   UNL     1       2.278   2.740  21.019  0.00  0.00    +0.000 HD
ENDROOT
BRANCH   3  10
ATOM     10  C   UNL     1       1.517   8.199  20.313  0.00  0.00    +0.000 A 
ATOM     11  C   UNL     1       1.166   8.432  21.658  0.00  0.00    +0.000 A 
ATOM     12  C   UNL     1       0.599   9.640  22.054  0.00  0.00    +0.000 A 
ATOM     13  F   UNL     1       0.265   9.813  23.340  0.00  0.00    +0.000 F 
ATOM     14  C   UNL     1       0.366  10.652  21.141  0.00  0.00    +0.000 A 
ATOM     15  C   UNL     1       0.723  10.444  19.819  0.00  0.00    +0.000 A 
ATOM     16  F   UNL     1       0.501  11.413  18.920  0.00  0.00    +0.000 F 
ATOM     17  C   UNL     1       1.296   9.243  19.400  0.00  0.00    +0.000 A 
ENDBRANCH   3  10
BRANCH   1  20
ATOM     18  N   UNL     1       5.495   4.747  15.533  0.00  0.00    +0.000 N 
ATOM     19  C   UNL     1       4.678   4.363  16.559  0.00  0.00    +0.000 A 
ATOM     20  C   UNL     1       4.283   5.522  17.198  0.00  0.00    +0.000 A 
ATOM     21  C   UNL     1       4.944   6.545  16.480  0.00  0.00    +0.000 A 
ATOM     22  N   UNL     1       5.681   6.077  15.471  0.00  0.00    +0.000 NA
BRANCH  18  23
ATOM     23  C   UNL     1       6.192   3.873  14.598  0.00  0.00    +0.000 C 
BRANCH  23  25
ATOM     24  C   UNL     1       6.016   3.173  12.191  0.00  0.00    +0.000 C 
ATOM     25  C   UNL     1       5.624   3.950  13.211  0.00  0.00    +0.000 C 
ENDBRANCH  23  25
ENDBRANCH  18  23
ENDBRANCH   1  20
BRANCH   7  26
ATOM     26  C   UNL     1       3.351   3.106  18.654  0.00  0.00    +0.000 C 
ATOM     27  N   UNL     1       3.668   2.032  18.358  0.00  0.00    +0.000 NA
ENDBRANCH   7  26
TORSDOF 5
ENDMDL
MODEL 7
REMARK VINA RESULT:      -7.3      1.038      2.043
REMARK  Name = 
REMARK  5 active torsions:
REMARK  status: ('A' for Active; 'I' for Inactive)
REMARK    1  A    between atoms: C_2  and  C_3
REMARK    2  A    between atoms: C_3  and  N_4
REMARK    3  A    between atoms: C_6  and  C_7
REMARK    4  A    between atoms: C_9  and  C_10
REMARK    5  A    between atoms: C_21  and  C_22
REMARK                            x       y       z     vdW  Elec       q    Type
REMARK                         _______ _______ _______ _____ _____    ______ ____
ROOT
ATOM      1  C   UNL     1       3.434   5.753  18.471  0.00  0.00    +0.000 A 
ATOM      2  C   UNL     1       2.900   7.005  18.796  0.00  0.00    +0.000 A 
ATOM      3  C   UNL     1       2.061   7.138  19.895  0.00  0.00    +0.000 A 
ATOM      4  N   UNL     1       1.784   6.090  20.707  0.00  0.00    +0.000 NA
ATOM      5  C   UNL     1       2.288   4.874  20.392  0.00  0.00    +0.000 A 
ATOM      6  N   UNL     1       1.857   3.827  21.205  0.00  0.00    +0.000 N 
ATOM      7  C   UNL     1       3.089   4.656  19.270  0.00  0.00    +0.000 A 
ATOM      8  H   UNL     1       1.397   4.199  22.030  0.00  0.00    +0.000 HD
ATOM      9  H   UNL     1       2.553   3.120  21.417  0.00  0.00    +0.000 HD
ENDROOT
BRANCH   3  10
ATOM     10  C   UNL     1       1.407   8.423  20.212  0.00  0.00    +0.000 A 
ATOM     11  C   UNL     1       1.192   9.399  19.219  0.00  0.00    +0.000 A 
ATOM     12  C   UNL     1       0.602  10.621  19.527  0.00  0.00    +0.000 A 
ATOM     13  F   UNL     1       0.432  11.528  18.556  0.00  0.00    +0.000 F 
ATOM     14  C   UNL     1       0.203  10.915  20.819  0.00  0.00    +0.000 A 
ATOM     15  C   UNL     1       0.392   9.957  21.803  0.00  0.00    +0.000 A 
ATOM     16  F   UNL     1       0.015  10.226  23.060  0.00  0.00    +0.000 F 
ATOM     17  C   UNL     1       0.978   8.724  21.515  0.00  0.00    +0.000 A 
ENDBRANCH   3  10
BRANCH   1  20
ATOM     18  N   UNL     1       5.520   4.803  15.681  0.00  0.00    +0.000 N 
ATOM     19  C   UNL     1       4.730   4.465  16.743  0.00  0.00    +0.000 A 
ATOM     20  C   UNL     1       4.308   5.651  17.309  0.00  0.00    +0.000 A 
ATOM     21  C   UNL     1       4.925   6.644  16.514  0.00  0.00    +0.000 A 
ATOM     22  N   UNL     1       5.663   6.132  15.527  0.00  0.00    +0.000 NA
BRANCH  18  23
ATOM     23  C   UNL     1       6.233   3.891  14.796  0.00  0.00    +0.000 C 
BRANCH  23  25
ATOM     24  C   UNL     1       6.300   3.513  12.312  0.00  0.00    +0.000 C 
ATOM     25  C   UNL     1       5.623   3.831  13.425  0.00  0.00    +0.000 C 
ENDBRANCH  23  25
ENDBRANCH  18  23
ENDBRANCH   1  20
BRANCH   7  26
ATOM     26  C   UNL     1       3.565   3.328  19.006  0.00  0.00    +0.000 C 
ATOM     27  N   UNL     1       3.955   2.257  18.805  0.00  0.00    +0.000 NA
ENDBRANCH   7  26
TORSDOF 5
ENDMDL
MODEL 8
REMARK VINA RESULT:      -7.3      1.551      1.883
REMARK  Name = 
REMARK  5 active torsions:
REMARK  status: ('A' for Active; 'I' for Inactive)
REMARK    1  A    between atoms: C_2  and  C_3
REMARK    2  A    between atoms: C_3  and  N_4
REMARK    3  A    between atoms: C_6  and  C_7
REMARK    4  A    between atoms: C_9  and  C_10
REMARK    5  A    between atoms: C_21  and  C_22
REMARK                            x       y       z     vdW  Elec       q    Type
REMARK                         _______ _______ _______ _____ _____    ______ ____
ROOT
ATOM      1  C   UNL     1       3.987   6.335  17.901  0.00  0.00    +0.000 A 
ATOM      2  C   UNL     1       3.461   7.631  17.957  0.00  0.00    +0.000 A 
ATOM      3  C   UNL     1       2.361   7.900  18.762  0.00  0.00    +0.000 A 
ATOM      4  N   UNL     1       1.809   6.947  19.551  0.00  0.00    +0.000 NA
ATOM      5  C   UNL     1       2.306   5.689  19.493  0.00  0.00    +0.000 A 
ATOM      6  N   UNL     1       1.606   4.742  20.239  0.00  0.00    +0.000 N 
ATOM      7  C   UNL     1       3.371   5.335  18.663  0.00  0.00    +0.000 A 
ATOM      8  H   UNL     1       0.960   5.209  20.868  0.00  0.00    +0.000 HD
ATOM      9  H   UNL     1       2.173   4.036  20.696  0.00  0.00    +0.000 HD
ENDROOT
BRANCH   3  10
ATOM     10  C   UNL     1       1.724   9.231  18.774  0.00  0.00    +0.000 A 
ATOM     11  C   UNL     1       0.455   9.429  19.355  0.00  0.00    +0.000 A 
ATOM     12  C   UNL     1      -0.157  10.679  19.338  0.00  0.00    +0.000 A 
ATOM     13  F   UNL     1      -1.371  10.820  19.886  0.00  0.00    +0.000 F 
ATOM     14  C   UNL     1       0.464  11.769  18.755  0.00  0.00    +0.000 A 
ATOM     15  C   UNL     1       1.720  11.593  18.196  0.00  0.00    +0.000 A 
ATOM     16  F   UNL     1       2.334  12.637  17.624  0.00  0.00    +0.000 F 
ATOM     17  C   UNL     1       2.353  10.350  18.205  0.00  0.00    +0.000 A 
ENDBRANCH   3  10
BRANCH   1  20
ATOM     18  N   UNL     1       6.380   5.375  15.373  0.00  0.00    +0.000 N 
ATOM     19  C   UNL     1       5.108   5.358  15.874  0.00  0.00    +0.000 A 
ATOM     20  C   UNL     1       5.139   6.091  17.043  0.00  0.00    +0.000 A 
ATOM     21  C   UNL     1       6.492   6.486  17.159  0.00  0.00    +0.000 A 
ATOM     22  N   UNL     1       7.247   6.051  16.148  0.00  0.00    +0.000 NA
BRANCH  18  23
ATOM     23  C   UNL     1       6.855   4.702  14.171  0.00  0.00    +0.000 C 
BRANCH  23  25
ATOM     24  C   UNL     1       5.913   3.298  12.312  0.00  0.00    +0.000 C 
ATOM     25  C   UNL     1       5.777   3.899  13.502  0.00  0.00    +0.000 C 
ENDBRANCH  23  25
ENDBRANCH  18  23
ENDBRANCH   1  20
BRANCH   7  26
ATOM     26  C   UNL     1       3.820   3.972  18.656  0.00  0.00    +0.000 C 
ATOM     27  N   UNL     1       4.183   2.873  18.664  0.00  0.00    +0.000 NA
ENDBRANCH   7  26
TORSDOF 5
ENDMDL
MODEL 9
REMARK VINA RESULT:      -7.1      3.199      5.663
REMARK  Name = 
REMARK  5 active torsions:
REMARK  status: ('A' for Active; 'I' for Inactive)
REMARK    1  A    between atoms: C_2  and  C_3
REMARK    2  A    between atoms: C_3  and  N_4
REMARK    3  A    between atoms: C_6  and  C_7
REMARK    4  A    between atoms: C_9  and  C_10
REMARK    5  A    between atoms: C_21  and  C_22
REMARK                            x       y       z     vdW  Elec       q    Type
REMARK                         _______ _______ _______ _____ _____    ______ ____
ROOT
ATOM      1  C   UNL     1       5.507   4.367  14.742  0.00  0.00    +0.000 A 
ATOM      2  C   UNL     1       4.528   4.110  15.709  0.00  0.00    +0.000 A 
ATOM      3  C   UNL     1       4.628   4.683  16.970  0.00  0.00    +0.000 A 
ATOM      4  N   UNL     1       5.629   5.541  17.281  0.00  0.00    +0.000 NA
ATOM      5  C   UNL     1       6.586   5.786  16.355  0.00  0.00    +0.000 A 
ATOM      6  N   UNL     1       7.644   6.579  16.793  0.00  0.00    +0.000 N 
ATOM      7  C   UNL     1       6.579   5.198  15.088  0.00  0.00    +0.000 A 
ATOM      8  H   UNL     1       7.405   7.012  17.680  0.00  0.00    +0.000 HD
ATOM      9  H   UNL     1       8.013   7.235  16.113  0.00  0.00    +0.000 HD
ENDROOT
BRANCH   3  10
ATOM     10  C   UNL     1       3.666   4.360  18.041  0.00  0.00    +0.000 A 
ATOM     11  C   UNL     1       3.237   5.341  18.958  0.00  0.00    +0.000 A 
ATOM     12  C   UNL     1       2.352   5.026  19.985  0.00  0.00    +0.000 A 
ATOM     13  F   UNL     1       1.983   5.984  20.845  0.00  0.00    +0.000 F 
ATOM     14  C   UNL     1       1.861   3.742  20.136  0.00  0.00    +0.000 A 
ATOM     15  C   UNL     1       2.260   2.772  19.230  0.00  0.00    +0.000 A 
ATOM     16  F   UNL     1       1.798   1.521  19.363  0.00  0.00    +0.000 F 
ATOM     17  C   UNL     1       3.143   3.066  18.191  0.00  0.00    +0.000 A 
ENDBRANCH   3  10
BRANCH   1  20
ATOM     18  N   UNL     1       4.542   3.168  11.476  0.00  0.00    +0.000 N 
ATOM     19  C   UNL     1       4.276   3.898  12.600  0.00  0.00    +0.000 A 
ATOM     20  C   UNL     1       5.368   3.746  13.432  0.00  0.00    +0.000 A 
ATOM     21  C   UNL     1       6.224   2.882  12.711  0.00  0.00    +0.000 A 
ATOM     22  N   UNL     1       5.724   2.528  11.525  0.00  0.00    +0.000 NA
BRANCH  18  23
ATOM     23  C   UNL     1       3.666   2.985  10.326  0.00  0.00    +0.000 C 
BRANCH  23  25
ATOM     24  C   UNL     1       2.745   4.647   8.681  0.00  0.00    +0.000 C 
ATOM     25  C   UNL     1       2.951   4.249   9.944  0.00  0.00    +0.000 C 
ENDBRANCH  23  25
ENDBRANCH  18  23
ENDBRANCH   1  20
BRANCH   7  26
ATOM     26  C   UNL     1       7.644   5.504  14.177  0.00  0.00    +0.000 C 
ATOM     27  N   UNL     1       8.507   5.761  13.449  0.00  0.00    +0.000 NA
ENDBRANCH   7  26
TORSDOF 5
ENDMDL
