MODEL 1
REMARK VINA RESULT:      -8.0      0.000      0.000
REMARK  Name = 
REMARK  5 active torsions:
REMARK  status: ('A' for Active; 'I' for Inactive)
REMARK    1  A    between atoms: C_1  and  O_2
REMARK    2  A    between atoms: O_2  and  C_3
REMARK    3  A    between atoms: C_6  and  N_7
REMARK    4  A    between atoms: C_10  and  N_11
REMARK    5  A    between atoms: C_17  and  C_18
REMARK                            x       y       z     vdW  Elec       q    Type
REMARK                         _______ _______ _______ _____ _____    ______ ____
ROOT
ATOM      1  N   UNL     1       2.408   5.731  19.171  0.00  0.00    +0.000 N 
ATOM      2  C   UNL     1       2.591   6.541  17.983  0.00  0.00    +0.000 C 
ATOM      3  C   UNL     1       2.104   7.883  18.411  0.00  0.00    +0.000 A 
ATOM      4  C   UNL     1       2.092   9.058  17.674  0.00  0.00    +0.000 A 
ATOM      5  C   UNL     1       1.636  10.218  18.295  0.00  0.00    +0.000 A 
ATOM      6  C   UNL     1       1.192  10.183  19.628  0.00  0.00    +0.000 A 
ATOM      7  C   UNL     1       1.176   8.984  20.369  0.00  0.00    +0.000 A 
ATOM      8  C   UNL     1       1.639   7.841  19.731  0.00  0.00    +0.000 A 
ATOM      9  C   UNL     1       1.801   6.449  20.193  0.00  0.00    +0.000 C 
ATOM     10  O   UNL     1       1.441   6.018  21.272  0.00  0.00    +0.000 OA
ENDROOT
BRANCH   1  14
ATOM     11  N   UNL     1       4.834   3.654  17.305  0.00  0.00    +0.000 NA
ATOM     12  C   UNL     1       5.169   4.096  18.661  0.00  0.00    +0.000 C 
ATOM     13  C   UNL     1       4.089   3.904  19.729  0.00  0.00    +0.000 C 
ATOM     14  C   UNL     1       2.687   4.290  19.264  0.00  0.00    +0.000 C 
ATOM     15  C   UNL     1       2.387   3.525  17.980  0.00  0.00    +0.000 C 
ATOM     16  C   UNL     1       3.436   3.758  16.900  0.00  0.00    +0.000 C 
BRANCH  11  20
ATOM     17  C   UNL     1       7.000   6.841  16.743  0.00  0.00    +0.000 C 
ATOM     18  C   UNL     1       7.509   5.623  17.519  0.00  0.00    +0.000 C 
ATOM     19  C   UNL     1       7.297   4.299  16.800  0.00  0.00    +0.000 C 
ATOM     20  C   UNL     1       5.855   4.052  16.298  0.00  0.00    +0.000 C 
ATOM     21  C   UNL     1       5.472   5.246  15.398  0.00  0.00    +0.000 C 
ATOM     22  C   UNL     1       5.660   6.624  16.030  0.00  0.00    +0.000 C 
BRANCH  17  24
ATOM     23  C   UNL     1       7.968   8.737  17.866  0.00  0.00    +0.000 C 
ATOM     24  O   UNL     1       6.803   7.966  17.612  0.00  0.00    +0.000 OA
ENDBRANCH  17  24
ENDBRANCH  11  20
ENDBRANCH   1  14
BRANCH   7  25
ATOM     25  C   UNL     1       0.682   9.073  21.764  0.00  0.00    +0.000 C 
ATOM     26  N   UNL     1      -0.539   8.548  22.064  0.00  0.00    +0.000 N 
ATOM     27  O   UNL     1       1.342   9.646  22.623  0.00  0.00    +0.000 OA
ATOM     28  H   UNL     1      -0.960   7.823  21.486  0.00  0.00    +0.000 HD
ATOM     29  H   UNL     1      -0.778   8.516  23.044  0.00  0.00    +0.000 HD
ENDBRANCH   7  25
TORSDOF 4
ENDMDL
MODEL 2
REMARK VINA RESULT:      -7.1      1.732      2.551
REMARK  Name = 
REMARK  5 active torsions:
REMARK  status: ('A' for Active; 'I' for Inactive)
REMARK    1  A    between atoms: C_1  and  O_2
REMARK    2  A    between atoms: O_2  and  C_3
REMARK    3  A    between atoms: C_6  and  N_7
REMARK    4  A    between atoms: C_10  and  N_11
REMARK    5  A    between atoms: C_17  and  C_18
REMARK                            x       y       z     vdW  Elec       q    Type
REMARK                         _______ _______ _______ _____ _____    ______ ____
ROOT
ATOM      1  N   UNL     1       2.012   6.906  19.417  0.00  0.00    +0.000 N 
ATOM      2  C   UNL     1       2.237   7.772  18.278  0.00  0.00    +0.000 C 
ATOM      3  C   UNL     1       1.771   9.101  18.766  0.00  0.00    +0.000 A 
ATOM      4  C   UNL     1       1.800  10.313  18.093  0.00  0.00    +0.000 A 
ATOM      5  C   UNL     1       1.357  11.449  18.766  0.00  0.00    +0.000 A 
ATOM      6  C   UNL     1       0.885  11.354  20.087  0.00  0.00    +0.000 A 
ATOM      7  C   UNL     1       0.828  10.118  20.762  0.00  0.00    +0.000 A 
ATOM      8  C   UNL     1       1.278   9.000  20.073  0.00  0.00    +0.000 A 
ATOM      9  C   UNL     1       1.401   7.582  20.464  0.00  0.00    +0.000 C 
ATOM     10  O   UNL     1       1.009   7.104  21.511  0.00  0.00    +0.000 OA
ENDROOT
BRANCH   1  14
ATOM     11  N   UNL     1       4.842   4.953  18.053  0.00  0.00    +0.000 NA
ATOM     12  C   UNL     1       4.810   5.257  19.485  0.00  0.00    +0.000 C 
ATOM     13  C   UNL     1       3.490   4.992  20.212  0.00  0.00    +0.000 C 
ATOM     14  C   UNL     1       2.258   5.455  19.438  0.00  0.00    +0.000 C 
ATOM     15  C   UNL     1       2.304   4.822  18.053  0.00  0.00    +0.000 C 
ATOM     16  C   UNL     1       3.598   5.130  17.310  0.00  0.00    +0.000 C 
BRANCH  11  20
ATOM     17  C   UNL     1       6.205   4.789  14.409  0.00  0.00    +0.000 C 
ATOM     18  C   UNL     1       5.444   6.001  14.952  0.00  0.00    +0.000 C 
ATOM     19  C   UNL     1       5.956   6.503  16.294  0.00  0.00    +0.000 C 
ATOM     20  C   UNL     1       6.090   5.417  17.389  0.00  0.00    +0.000 C 
ATOM     21  C   UNL     1       6.996   4.304  16.823  0.00  0.00    +0.000 C 
ATOM     22  C   UNL     1       6.569   3.742  15.469  0.00  0.00    +0.000 C 
BRANCH  17  24
ATOM     23  C   UNL     1       6.198   3.356  12.475  0.00  0.00    +0.000 C 
ATOM     24  O   UNL     1       5.434   4.092  13.419  0.00  0.00    +0.000 OA
ENDBRANCH  17  24
ENDBRANCH  11  20
ENDBRANCH   1  14
BRANCH   7  25
ATOM     25  C   UNL     1       0.308  10.145  22.150  0.00  0.00    +0.000 C 
ATOM     26  N   UNL     1      -0.973  10.557  22.365  0.00  0.00    +0.000 N 
ATOM     27  O   UNL     1       1.031   9.842  23.092  0.00  0.00    +0.000 OA
ATOM     28  H   UNL     1      -1.673  10.518  21.626  0.00  0.00    +0.000 HD
ATOM     29  H   UNL     1      -1.325  10.438  23.304  0.00  0.00    +0.000 HD
ENDBRANCH   7  25
TORSDOF 4
ENDMDL
MODEL 3
REMARK VINA RESULT:      -7.0      2.878      7.876
REMARK  Name = 
REMARK  5 active torsions:
REMARK  status: ('A' for Active; 'I' for Inactive)
REMARK    1  A    between atoms: C_1  and  O_2
REMARK    2  A    between atoms: O_2  and  C_3
REMARK    3  A    between atoms: C_6  and  N_7
REMARK    4  A    between atoms: C_10  and  N_11
REMARK    5  A    between atoms: C_17  and  C_18
REMARK                            x       y       z     vdW  Elec       q    Type
REMARK                         _______ _______ _______ _____ _____    ______ ____
ROOT
ATOM      1  N   UNL     1       6.579   4.634  16.428  0.00  0.00    +0.000 N 
ATOM      2  C   UNL     1       5.679   3.640  15.878  0.00  0.00    +0.000 C 
ATOM      3  C   UNL     1       5.936   3.726  14.413  0.00  0.00    +0.000 A 
ATOM      4  C   UNL     1       5.373   2.959  13.404  0.00  0.00    +0.000 A 
ATOM      5  C   UNL     1       5.801   3.177  12.097  0.00  0.00    +0.000 A 
ATOM      6  C   UNL     1       6.769   4.157  11.819  0.00  0.00    +0.000 A 
ATOM      7  C   UNL     1       7.321   4.957  12.840  0.00  0.00    +0.000 A 
ATOM      8  C   UNL     1       6.882   4.720  14.135  0.00  0.00    +0.000 A 
ATOM      9  C   UNL     1       7.257   5.322  15.430  0.00  0.00    +0.000 C 
ATOM     10  O   UNL     1       8.008   6.267  15.578  0.00  0.00    +0.000 OA
ENDROOT
BRANCH   1  14
ATOM     11  N   UNL     1       3.954   5.735  18.790  0.00  0.00    +0.000 NA
ATOM     12  C   UNL     1       4.396   4.339  18.816  0.00  0.00    +0.000 C 
ATOM     13  C   UNL     1       5.907   4.099  18.825  0.00  0.00    +0.000 C 
ATOM     14  C   UNL     1       6.677   4.990  17.852  0.00  0.00    +0.000 C 
ATOM     15  C   UNL     1       6.310   6.439  18.147  0.00  0.00    +0.000 C 
ATOM     16  C   UNL     1       4.807   6.687  18.087  0.00  0.00    +0.000 C 
BRANCH  11  20
ATOM     17  C   UNL     1       0.835   3.811  20.104  0.00  0.00    +0.000 C 
ATOM     18  C   UNL     1       1.370   5.074  20.782  0.00  0.00    +0.000 C 
ATOM     19  C   UNL     1       1.625   6.229  19.825  0.00  0.00    +0.000 C 
ATOM     20  C   UNL     1       2.486   5.875  18.589  0.00  0.00    +0.000 C 
ATOM     21  C   UNL     1       1.798   4.694  17.873  0.00  0.00    +0.000 C 
ATOM     22  C   UNL     1       1.490   3.487  18.756  0.00  0.00    +0.000 C 
BRANCH  17  24
ATOM     23  C   UNL     1       2.253   2.648  21.662  0.00  0.00    +0.000 C 
ATOM     24  O   UNL     1       1.039   2.652  20.927  0.00  0.00    +0.000 OA
ENDBRANCH  17  24
ENDBRANCH  11  20
ENDBRANCH   1  14
BRANCH   7  25
ATOM     25  C   UNL     1       8.331   5.960  12.424  0.00  0.00    +0.000 C 
ATOM     26  N   UNL     1       9.486   6.066  13.138  0.00  0.00    +0.000 N 
ATOM     27  O   UNL     1       8.111   6.710  11.479  0.00  0.00    +0.000 OA
ATOM     28  H   UNL     1       9.830   5.293  13.705  0.00  0.00    +0.000 HD
ATOM     29  H   UNL     1      10.196   6.667  12.746  0.00  0.00    +0.000 HD
ENDBRANCH   7  25
TORSDOF 4
ENDMDL
MODEL 4
REMARK VINA RESULT:      -6.9      3.858      5.715
REMARK  Name = 
REMARK  5 active torsions:
REMARK  status: ('A' for Active; 'I' for Inactive)
REMARK    1  A    between atoms: C_1  and  O_2
REMARK    2  A    between atoms: O_2  and  C_3
REMARK    3  A    between atoms: C_6  and  N_7
REMARK    4  A    between atoms: C_10  and  N_11
REMARK    5  A    between atoms: C_17  and  C_18
REMARK                            x       y       z     vdW  Elec       q    Type
REMARK                         _______ _______ _______ _____ _____    ______ ____
ROOT
ATOM      1  N   UNL     1      -0.469  10.903  18.886  0.00  0.00    +0.000 N 
ATOM      2  C   UNL     1      -0.776  10.201  17.657  0.00  0.00    +0.000 C 
ATOM      3  C   UNL     1      -2.232  10.466  17.471  0.00  0.00    +0.000 A 
ATOM      4  C   UNL     1      -3.042  10.063  16.421  0.00  0.00    +0.000 A 
ATOM      5  C   UNL     1      -4.374  10.471  16.426  0.00  0.00    +0.000 A 
ATOM      6  C   UNL     1      -4.873  11.258  17.479  0.00  0.00    +0.000 A 
ATOM      7  C   UNL     1      -4.057  11.643  18.562  0.00  0.00    +0.000 A 
ATOM      8  C   UNL     1      -2.733  11.229  18.533  0.00  0.00    +0.000 A 
ATOM      9  C   UNL     1      -1.603  11.469  19.453  0.00  0.00    +0.000 C 
ATOM     10  O   UNL     1      -1.675  12.041  20.523  0.00  0.00    +0.000 OA
ENDROOT
BRANCH   1  14
ATOM     11  N   UNL     1       2.226   8.369  18.857  0.00  0.00    +0.000 NA
ATOM     12  C   UNL     1       2.340   9.541  17.986  0.00  0.00    +0.000 C 
ATOM     13  C   UNL     1       2.064  10.902  18.630  0.00  0.00    +0.000 C 
ATOM     14  C   UNL     1       0.845  10.911  19.549  0.00  0.00    +0.000 C 
ATOM     15  C   UNL     1       1.018   9.799  20.576  0.00  0.00    +0.000 C 
ATOM     16  C   UNL     1       1.242   8.436  19.933  0.00  0.00    +0.000 C 
BRANCH  11  20
ATOM     17  C   UNL     1       4.770   5.422  18.835  0.00  0.00    +0.000 C 
ATOM     18  C   UNL     1       3.504   5.412  19.696  0.00  0.00    +0.000 C 
ATOM     19  C   UNL     1       2.237   5.775  18.936  0.00  0.00    +0.000 C 
ATOM     20  C   UNL     1       2.319   7.083  18.114  0.00  0.00    +0.000 C 
ATOM     21  C   UNL     1       3.526   6.952  17.161  0.00  0.00    +0.000 C 
ATOM     22  C   UNL     1       4.847   6.579  17.832  0.00  0.00    +0.000 C 
BRANCH  17  24
ATOM     23  C   UNL     1       7.171   5.567  18.922  0.00  0.00    +0.000 C 
ATOM     24  O   UNL     1       5.950   5.527  19.646  0.00  0.00    +0.000 OA
ENDBRANCH  17  24
ENDBRANCH  11  20
ENDBRANCH   1  14
BRANCH   7  25
ATOM     25  C   UNL     1      -4.697  12.470  19.613  0.00  0.00    +0.000 C 
ATOM     26  N   UNL     1      -4.223  13.727  19.840  0.00  0.00    +0.000 N 
ATOM     27  O   UNL     1      -5.609  12.015  20.294  0.00  0.00    +0.000 OA
ATOM     28  H   UNL     1      -3.705  14.235  19.125  0.00  0.00    +0.000 HD
ATOM     29  H   UNL     1      -4.767  14.299  20.470  0.00  0.00    +0.000 HD
ENDBRANCH   7  25
TORSDOF 4
ENDMDL
MODEL 5
REMARK VINA RESULT:      -6.8      2.352      4.607
REMARK  Name = 
REMARK  5 active torsions:
REMARK  status: ('A' for Active; 'I' for Inactive)
REMARK    1  A    between atoms: C_1  and  O_2
REMARK    2  A    between atoms: O_2  and  C_3
REMARK    3  A    between atoms: C_6  and  N_7
REMARK    4  A    between atoms: C_10  and  N_11
REMARK    5  A    between atoms: C_17  and  C_18
REMARK                            x       y       z     vdW  Elec       q    Type
REMARK                         _______ _______ _______ _____ _____    ______ ____
ROOT
ATOM      1  N   UNL     1       3.406   7.037  18.353  0.00  0.00    +0.000 N 
ATOM      2  C   UNL     1       3.112   6.556  19.688  0.00  0.00    +0.000 C 
ATOM      3  C   UNL     1       2.030   7.473  20.146  0.00  0.00    +0.000 A 
ATOM      4  C   UNL     1       1.339   7.440  21.347  0.00  0.00    +0.000 A 
ATOM      5  C   UNL     1       0.322   8.370  21.546  0.00  0.00    +0.000 A 
ATOM      6  C   UNL     1       0.022   9.318  20.553  0.00  0.00    +0.000 A 
ATOM      7  C   UNL     1       0.743   9.372  19.343  0.00  0.00    +0.000 A 
ATOM      8  C   UNL     1       1.749   8.433  19.165  0.00  0.00    +0.000 A 
ATOM      9  C   UNL     1       2.665   8.168  18.038  0.00  0.00    +0.000 C 
ATOM     10  O   UNL     1       2.757   8.843  17.032  0.00  0.00    +0.000 OA
ENDROOT
BRANCH   1  14
ATOM     11  N   UNL     1       4.949   3.675  18.266  0.00  0.00    +0.000 NA
ATOM     12  C   UNL     1       3.905   4.006  17.293  0.00  0.00    +0.000 C 
ATOM     13  C   UNL     1       4.049   5.344  16.563  0.00  0.00    +0.000 C 
ATOM     14  C   UNL     1       4.457   6.500  17.473  0.00  0.00    +0.000 C 
ATOM     15  C   UNL     1       5.726   6.095  18.213  0.00  0.00    +0.000 C 
ATOM     16  C   UNL     1       5.565   4.788  18.981  0.00  0.00    +0.000 C 
BRANCH  11  20
ATOM     17  C   UNL     1       1.687   2.203  19.800  0.00  0.00    +0.000 C 
ATOM     18  C   UNL     1       2.218   1.779  18.428  0.00  0.00    +0.000 C 
ATOM     19  C   UNL     1       3.694   1.409  18.424  0.00  0.00    +0.000 C 
ATOM     20  C   UNL     1       4.633   2.459  19.064  0.00  0.00    +0.000 C 
ATOM     21  C   UNL     1       4.123   2.719  20.497  0.00  0.00    +0.000 C 
ATOM     22  C   UNL     1       2.645   3.088  20.606  0.00  0.00    +0.000 C 
BRANCH  17  24
ATOM     23  C   UNL     1       0.502   4.246  20.265  0.00  0.00    +0.000 C 
ATOM     24  O   UNL     1       0.470   2.955  19.676  0.00  0.00    +0.000 OA
ENDBRANCH  17  24
ENDBRANCH  11  20
ENDBRANCH   1  14
BRANCH   7  25
ATOM     25  C   UNL     1       0.336  10.418  18.375  0.00  0.00    +0.000 C 
ATOM     26  N   UNL     1       1.209  11.425  18.089  0.00  0.00    +0.000 N 
ATOM     27  O   UNL     1      -0.782  10.402  17.873  0.00  0.00    +0.000 OA
ATOM     28  H   UNL     1       2.211  11.313  18.232  0.00  0.00    +0.000 HD
ATOM     29  H   UNL     1       0.944  12.040  17.334  0.00  0.00    +0.000 HD
ENDBRANCH   7  25
TORSDOF 4
ENDMDL
MODEL 6
REMARK VINA RESULT:      -6.7      7.978     12.346
REMARK  Name = 
REMARK  5 active torsions:
REMARK  status: ('A' for Active; 'I' for Inactive)
REMARK    1  A    between atoms: C_1  and  O_2
REMARK    2  A    between atoms: O_2  and  C_3
REMARK    3  A    between atoms: C_6  and  N_7
REMARK    4  A    between atoms: C_10  and  N_11
REMARK    5  A    between atoms: C_17  and  C_18
REMARK                            x       y       z     vdW  Elec       q    Type
REMARK                         _______ _______ _______ _____ _____    ______ ____
ROOT
ATOM      1  N   UNL     1      -5.585  12.367  19.367  0.00  0.00    +0.000 N 
ATOM      2  C   UNL     1      -4.730  12.917  20.399  0.00  0.00    +0.000 C 
ATOM      3  C   UNL     1      -3.361  12.575  19.921  0.00  0.00    +0.000 A 
ATOM      4  C   UNL     1      -2.148  12.903  20.508  0.00  0.00    +0.000 A 
ATOM      5  C   UNL     1      -0.978  12.522  19.855  0.00  0.00    +0.000 A 
ATOM      6  C   UNL     1      -1.039  11.815  18.642  0.00  0.00    +0.000 A 
ATOM      7  C   UNL     1      -2.271  11.455  18.060  0.00  0.00    +0.000 A 
ATOM      8  C   UNL     1      -3.423  11.849  18.725  0.00  0.00    +0.000 A 
ATOM      9  C   UNL     1      -4.854  11.687  18.402  0.00  0.00    +0.000 C 
ATOM     10  O   UNL     1      -5.298  11.049  17.467  0.00  0.00    +0.000 OA
ENDROOT
BRANCH   1  14
ATOM     11  N   UNL     1      -7.915  13.050  22.158  0.00  0.00    +0.000 NA
ATOM     12  C   UNL     1      -7.631  14.112  21.191  0.00  0.00    +0.000 C 
ATOM     13  C   UNL     1      -7.708  13.729  19.711  0.00  0.00    +0.000 C 
ATOM     14  C   UNL     1      -7.056  12.386  19.388  0.00  0.00    +0.000 C 
ATOM     15  C   UNL     1      -7.669  11.331  20.302  0.00  0.00    +0.000 C 
ATOM     16  C   UNL     1      -7.545  11.690  21.778  0.00  0.00    +0.000 C 
BRANCH  11  20
ATOM     17  C   UNL     1      -4.778  14.431  24.006  0.00  0.00    +0.000 C 
ATOM     18  C   UNL     1      -5.867  15.343  23.433  0.00  0.00    +0.000 C 
ATOM     19  C   UNL     1      -7.281  14.937  23.823  0.00  0.00    +0.000 C 
ATOM     20  C   UNL     1      -7.630  13.453  23.562  0.00  0.00    +0.000 C 
ATOM     21  C   UNL     1      -6.578  12.597  24.299  0.00  0.00    +0.000 C 
ATOM     22  C   UNL     1      -5.123  12.937  23.980  0.00  0.00    +0.000 C 
BRANCH  17  24
ATOM     23  C   UNL     1      -2.372  14.419  24.048  0.00  0.00    +0.000 C 
ATOM     24  O   UNL     1      -3.551  14.562  23.271  0.00  0.00    +0.000 OA
ENDBRANCH  17  24
ENDBRANCH  11  20
ENDBRANCH   1  14
BRANCH   7  25
ATOM     25  C   UNL     1      -2.206  10.707  16.781  0.00  0.00    +0.000 C 
ATOM     26  N   UNL     1      -2.626  11.319  15.639  0.00  0.00    +0.000 N 
ATOM     27  O   UNL     1      -1.822   9.544  16.759  0.00  0.00    +0.000 OA
ATOM     28  H   UNL     1      -2.654  12.335  15.562  0.00  0.00    +0.000 HD
ATOM     29  H   UNL     1      -2.445  10.824  14.778  0.00  0.00    +0.000 HD
ENDBRANCH   7  25
TORSDOF 4
ENDMDL
MODEL 7
REMARK VINA RESULT:      -6.7      6.478     11.483
REMARK  Name = 
REMARK  5 active torsions:
REMARK  status: ('A' for Active; 'I' for Inactive)
REMARK    1  A    between atoms: C_1  and  O_2
REMARK    2  A    between atoms: O_2  and  C_3
REMARK    3  A    between atoms: C_6  and  N_7
REMARK    4  A    between atoms: C_10  and  N_11
REMARK    5  A    between atoms: C_17  and  C_18
REMARK                            x       y       z     vdW  Elec       q    Type
REMARK                         _______ _______ _______ _____ _____    ______ ____
ROOT
ATOM      1  N   UNL     1      -2.640  12.696  20.645  0.00  0.00    +0.000 N 
ATOM      2  C   UNL     1      -3.612  12.448  19.600  0.00  0.00    +0.000 C 
ATOM      3  C   UNL     1      -2.897  11.509  18.690  0.00  0.00    +0.000 A 
ATOM      4  C   UNL     1      -3.381  10.907  17.538  0.00  0.00    +0.000 A 
ATOM      5  C   UNL     1      -2.550  10.015  16.864  0.00  0.00    +0.000 A 
ATOM      6  C   UNL     1      -1.254   9.751  17.343  0.00  0.00    +0.000 A 
ATOM      7  C   UNL     1      -0.751  10.384  18.497  0.00  0.00    +0.000 A 
ATOM      8  C   UNL     1      -1.598  11.266  19.153  0.00  0.00    +0.000 A 
ATOM      9  C   UNL     1      -1.432  12.063  20.385  0.00  0.00    +0.000 C 
ATOM     10  O   UNL     1      -0.406  12.156  21.030  0.00  0.00    +0.000 OA
ENDROOT
BRANCH   1  14
ATOM     11  N   UNL     1      -5.759  13.906  22.223  0.00  0.00    +0.000 NA
ATOM     12  C   UNL     1      -5.012  12.820  22.862  0.00  0.00    +0.000 C 
ATOM     13  C   UNL     1      -3.503  13.026  23.017  0.00  0.00    +0.000 C 
ATOM     14  C   UNL     1      -2.832  13.615  21.778  0.00  0.00    +0.000 C 
ATOM     15  C   UNL     1      -3.566  14.898  21.407  0.00  0.00    +0.000 C 
ATOM     16  C   UNL     1      -5.060  14.681  21.203  0.00  0.00    +0.000 C 
BRANCH  11  20
ATOM     17  C   UNL     1      -7.579  12.192  19.239  0.00  0.00    +0.000 C 
ATOM     18  C   UNL     1      -7.103  11.417  20.470  0.00  0.00    +0.000 C 
ATOM     19  C   UNL     1      -7.515  12.044  21.794  0.00  0.00    +0.000 C 
ATOM     20  C   UNL     1      -7.175  13.547  21.938  0.00  0.00    +0.000 C 
ATOM     21  C   UNL     1      -7.819  14.281  20.744  0.00  0.00    +0.000 C 
ATOM     22  C   UNL     1      -7.472  13.716  19.368  0.00  0.00    +0.000 C 
BRANCH  17  24
ATOM     23  C   UNL     1      -6.712  12.865  17.097  0.00  0.00    +0.000 C 
ATOM     24  O   UNL     1      -6.812  11.843  18.076  0.00  0.00    +0.000 OA
ENDBRANCH  17  24
ENDBRANCH  11  20
ENDBRANCH   1  14
BRANCH   7  25
ATOM     25  C   UNL     1       0.630  10.026  18.900  0.00  0.00    +0.000 C 
ATOM     26  N   UNL     1       0.821   9.365  20.076  0.00  0.00    +0.000 N 
ATOM     27  O   UNL     1       1.586  10.357  18.209  0.00  0.00    +0.000 OA
ATOM     28  H   UNL     1       0.074   8.821  20.505  0.00  0.00    +0.000 HD
ATOM     29  H   UNL     1       1.757   9.029  20.249  0.00  0.00    +0.000 HD
ENDBRANCH   7  25
TORSDOF 4
ENDMDL
MODEL 8
REMARK VINA RESULT:      -6.7      3.472      5.429
REMARK  Name = 
REMARK  5 active torsions:
REMARK  status: ('A' for Active; 'I' for Inactive)
REMARK    1  A    between atoms: C_1  and  O_2
REMARK    2  A    between atoms: O_2  and  C_3
REMARK    3  A    between atoms: C_6  and  N_7
REMARK    4  A    between atoms: C_10  and  N_11
REMARK    5  A    between atoms: C_17  and  C_18
REMARK                            x       y       z     vdW  Elec       q    Type
REMARK                         _______ _______ _______ _____ _____    ______ ____
ROOT
ATOM      1  N   UNL     1       0.175  10.389  18.739  0.00  0.00    +0.000 N 
ATOM      2  C   UNL     1      -0.464   9.699  17.637  0.00  0.00    +0.000 C 
ATOM      3  C   UNL     1      -1.859  10.226  17.672  0.00  0.00    +0.000 A 
ATOM      4  C   UNL     1      -2.900   9.934  16.804  0.00  0.00    +0.000 A 
ATOM      5  C   UNL     1      -4.116  10.585  16.995  0.00  0.00    +0.000 A 
ATOM      6  C   UNL     1      -4.274  11.503  18.049  0.00  0.00    +0.000 A 
ATOM      7  C   UNL     1      -3.225  11.778  18.949  0.00  0.00    +0.000 A 
ATOM      8  C   UNL     1      -2.021  11.120  18.737  0.00  0.00    +0.000 A 
ATOM      9  C   UNL     1      -0.723  11.186  19.437  0.00  0.00    +0.000 C 
ATOM     10  O   UNL     1      -0.503  11.812  20.456  0.00  0.00    +0.000 OA
ENDROOT
BRANCH   1  14
ATOM     11  N   UNL     1       2.033   7.248  19.342  0.00  0.00    +0.000 NA
ATOM     12  C   UNL     1       2.235   7.965  18.081  0.00  0.00    +0.000 C 
ATOM     13  C   UNL     1       2.483   9.472  18.183  0.00  0.00    +0.000 C 
ATOM     14  C   UNL     1       1.564  10.181  19.175  0.00  0.00    +0.000 C 
ATOM     15  C   UNL     1       1.684   9.473  20.519  0.00  0.00    +0.000 C 
ATOM     16  C   UNL     1       1.387   7.982  20.425  0.00  0.00    +0.000 C 
BRANCH  11  20
ATOM     17  C   UNL     1       3.902   3.834  19.276  0.00  0.00    +0.000 C 
ATOM     18  C   UNL     1       3.236   4.385  20.539  0.00  0.00    +0.000 C 
ATOM     19  C   UNL     1       1.805   4.857  20.327  0.00  0.00    +0.000 C 
ATOM     20  C   UNL     1       1.608   5.835  19.144  0.00  0.00    +0.000 C 
ATOM     21  C   UNL     1       2.165   5.145  17.881  0.00  0.00    +0.000 C 
ATOM     22  C   UNL     1       3.596   4.625  17.999  0.00  0.00    +0.000 C 
BRANCH  17  24
ATOM     23  C   UNL     1       5.984   4.962  18.842  0.00  0.00    +0.000 C 
ATOM     24  O   UNL     1       5.333   3.832  19.402  0.00  0.00    +0.000 OA
ENDBRANCH  17  24
ENDBRANCH  11  20
ENDBRANCH   1  14
BRANCH   7  25
ATOM     25  C   UNL     1      -3.512  12.761  20.021  0.00  0.00    +0.000 C 
ATOM     26  N   UNL     1      -2.719  13.863  20.134  0.00  0.00    +0.000 N 
ATOM     27  O   UNL     1      -4.422  12.564  20.819  0.00  0.00    +0.000 OA
ATOM     28  H   UNL     1      -2.178  14.209  19.343  0.00  0.00    +0.000 HD
ATOM     29  H   UNL     1      -3.026  14.565  20.790  0.00  0.00    +0.000 HD
ENDBRANCH   7  25
TORSDOF 4
ENDMDL
MODEL 9
REMARK VINA RESULT:      -6.6      3.300      7.662
REMARK  Name = 
REMARK  5 active torsions:
REMARK  status: ('A' for Active; 'I' for Inactive)
REMARK    1  A    between atoms: C_1  and  O_2
REMARK    2  A    between atoms: O_2  and  C_3
REMARK    3  A    between atoms: C_6  and  N_7
REMARK    4  A    between atoms: C_10  and  N_11
REMARK    5  A    between atoms: C_17  and  C_18
REMARK                            x       y       z     vdW  Elec       q    Type
REMARK                         _______ _______ _______ _____ _____    ______ ____
ROOT
ATOM      1  N   UNL     1       6.223   5.235  16.658  0.00  0.00    +0.000 N 
ATOM      2  C   UNL     1       5.284   4.238  16.186  0.00  0.00    +0.000 C 
ATOM      3  C   UNL     1       5.648   4.087  14.748  0.00  0.00    +0.000 A 
ATOM      4  C   UNL     1       5.093   3.222  13.817  0.00  0.00    +0.000 A 
ATOM      5  C   UNL     1       5.627   3.212  12.530  0.00  0.00    +0.000 A 
ATOM      6  C   UNL     1       6.689   4.069  12.195  0.00  0.00    +0.000 A 
ATOM      7  C   UNL     1       7.234   4.970  13.132  0.00  0.00    +0.000 A 
ATOM      8  C   UNL     1       6.689   4.959  14.408  0.00  0.00    +0.000 A 
ATOM      9  C   UNL     1       7.022   5.717  15.630  0.00  0.00    +0.000 C 
ATOM     10  O   UNL     1       7.837   6.617  15.701  0.00  0.00    +0.000 OA
ENDROOT
BRANCH   1  14
ATOM     11  N   UNL     1       3.474   5.731  19.084  0.00  0.00    +0.000 NA
ATOM     12  C   UNL     1       4.355   4.570  19.232  0.00  0.00    +0.000 C 
ATOM     13  C   UNL     1       5.859   4.837  19.146  0.00  0.00    +0.000 C 
ATOM     14  C   UNL     1       6.252   5.791  18.020  0.00  0.00    +0.000 C 
ATOM     15  C   UNL     1       5.436   7.068  18.177  0.00  0.00    +0.000 C 
ATOM     16  C   UNL     1       3.936   6.806  18.211  0.00  0.00    +0.000 C 
BRANCH  11  20
ATOM     17  C   UNL     1       1.546   2.352  18.930  0.00  0.00    +0.000 C 
ATOM     18  C   UNL     1       1.780   3.110  20.240  0.00  0.00    +0.000 C 
ATOM     19  C   UNL     1       1.416   4.586  20.174  0.00  0.00    +0.000 C 
ATOM     20  C   UNL     1       2.037   5.359  18.986  0.00  0.00    +0.000 C 
ATOM     21  C   UNL     1       1.627   4.622  17.694  0.00  0.00    +0.000 C 
ATOM     22  C   UNL     1       1.943   3.128  17.669  0.00  0.00    +0.000 C 
BRANCH  17  24
ATOM     23  C   UNL     1       3.668   1.285  18.543  0.00  0.00    +0.000 C 
ATOM     24  O   UNL     1       2.301   1.132  18.893  0.00  0.00    +0.000 OA
ENDBRANCH  17  24
ENDBRANCH  11  20
ENDBRANCH   1  14
BRANCH   7  25
ATOM     25  C   UNL     1       8.349   5.824  12.659  0.00  0.00    +0.000 C 
ATOM     26  N   UNL     1       9.518   5.828  13.360  0.00  0.00    +0.000 N 
ATOM     27  O   UNL     1       8.208   6.547  11.679  0.00  0.00    +0.000 OA
ATOM     28  H   UNL     1       9.776   5.049  13.963  0.00  0.00    +0.000 HD
ATOM     29  H   UNL     1      10.289   6.321  12.933  0.00  0.00    +0.000 HD
ENDBRANCH   7  25
TORSDOF 4
ENDMDL
