MODEL 1
REMARK VINA RESULT:      -7.0      0.000      0.000
REMARK  Name = 
REMARK  8 active torsions:
REMARK  status: ('A' for Active; 'I' for Inactive)
REMARK    1  A    between atoms: C_1  and  C_2
REMARK    2  A    between atoms: C_2  and  O_3
REMARK    3  A    between atoms: O_3  and  C_4
REMARK    4  A    between atoms: C_4  and  C_6
REMARK    5  A    between atoms: C_9  and  C_10
REMARK    6  A    between atoms: N_19  and  C_20
REMARK    7  A    between atoms: C_22  and  C_23
REMARK    8  A    between atoms: C_25  and  C_26
REMARK                            x       y       z     vdW  Elec       q    Type
REMARK                         _______ _______ _______ _____ _____    ______ ____
ROOT
ATOM      1  C   UNL     1       1.258  13.260  20.664  0.00  0.00    +0.000 C 
ATOM      2  N   UNL     1       2.299  12.865  20.029  0.00  0.00    +0.000 NA
ATOM      3  N   UNL     1       1.932  11.683  19.523  0.00  0.00    +0.000 N 
ATOM      4  C   UNL     1       0.758  10.880  20.209  0.00  0.00    +0.000 C 
ATOM      5  C   UNL     1      -0.684  10.576  19.574  0.00  0.00    +0.000 C 
ATOM      6  O   UNL     1      -1.263   9.520  19.861  0.00  0.00    +0.000 OA
ATOM      7  N   UNL     1      -1.284  11.626  18.961  0.00  0.00    +0.000 N 
ATOM      8  C   UNL     1      -0.881  12.714  19.663  0.00  0.00    +0.000 C 
ATOM      9  O   UNL     1      -1.334  13.851  19.647  0.00  0.00    +0.000 OA
ATOM     10  C   UNL     1       0.170  12.265  20.651  0.00  0.00    +0.000 C 
ATOM     11  H   UNL     1       2.785  11.104  19.561  0.00  0.00    +0.000 HD
ENDROOT
BRANCH   7  12
ATOM     12  C   UNL     1      -2.479  11.556  18.159  0.00  0.00    +0.000 A 
ATOM     13  C   UNL     1      -2.435  11.129  16.818  0.00  0.00    +0.000 A 
ATOM     14  C   UNL     1      -3.593  10.930  16.051  0.00  0.00    +0.000 A 
ATOM     15  C   UNL     1      -3.504  10.348  14.670  0.00  0.00    +0.000 C 
ATOM     16  C   UNL     1      -4.833  11.254  16.597  0.00  0.00    +0.000 A 
ATOM     17  C   UNL     1      -4.919  11.755  17.898  0.00  0.00    +0.000 A 
ATOM     18  C   UNL     1      -6.257  12.126  18.473  0.00  0.00    +0.000 C 
ATOM     19  C   UNL     1      -3.744  11.898  18.669  0.00  0.00    +0.000 A 
ENDBRANCH   7  12
BRANCH   4  20
ATOM     20  C   UNL     1       1.342   9.582  19.610  0.00  0.00    +0.000 A 
ATOM     21  C   UNL     1       1.560   8.448  20.403  0.00  0.00    +0.000 A 
ATOM     22  C   UNL     1       2.150   7.303  19.840  0.00  0.00    +0.000 A 
ATOM     23  C   UNL     1       2.538   7.286  18.498  0.00  0.00    +0.000 A 
ATOM     24 CL   UNL     1       3.328   5.904  17.842  0.00  0.00    +0.000 Cl
ATOM     25  C   UNL     1       2.300   8.379  17.681  0.00  0.00    +0.000 A 
ATOM     26  C   UNL     1       1.683   9.501  18.222  0.00  0.00    +0.000 A 
ENDBRANCH   4  20
BRANCH   1  27
ATOM     27  C   UNL     1       1.098  14.649  21.207  0.00  0.00    +0.000 C 
ATOM     28  O   UNL     1       1.342  15.626  20.520  0.00  0.00    +0.000 OA
BRANCH  27  29
ATOM     29  O   UNL     1       0.803  14.582  22.521  0.00  0.00    +0.000 OA
BRANCH  29  31
ATOM     30  C   UNL     1      -1.315  14.035  23.600  0.00  0.00    +0.000 C 
ATOM     31  C   UNL     1      -0.471  15.090  22.915  0.00  0.00    +0.000 C 
ENDBRANCH  29  31
ENDBRANCH  27  29
ENDBRANCH   1  27
TORSDOF 5
ENDMDL
MODEL 2
REMARK VINA RESULT:      -6.9      1.611      2.313
REMARK  Name = 
REMARK  8 active torsions:
REMARK  status: ('A' for Active; 'I' for Inactive)
REMARK    1  A    between atoms: C_1  and  C_2
REMARK    2  A    between atoms: C_2  and  O_3
REMARK    3  A    between atoms: O_3  and  C_4
REMARK    4  A    between atoms: C_4  and  C_6
REMARK    5  A    between atoms: C_9  and  C_10
REMARK    6  A    between atoms: N_19  and  C_20
REMARK    7  A    between atoms: C_22  and  C_23
REMARK    8  A    between atoms: C_25  and  C_26
REMARK                            x       y       z     vdW  Elec       q    Type
REMARK                         _______ _______ _______ _____ _____    ______ ____
ROOT
ATOM      1  C   UNL     1       2.012  13.393  18.946  0.00  0.00    +0.000 C 
ATOM      2  N   UNL     1       2.884  12.704  18.307  0.00  0.00    +0.000 NA
ATOM      3  N   UNL     1       2.345  11.482  18.253  0.00  0.00    +0.000 N 
ATOM      4  C   UNL     1       1.266  11.065  19.329  0.00  0.00    +0.000 C 
ATOM      5  C   UNL     1      -0.288  10.774  19.055  0.00  0.00    +0.000 C 
ATOM      6  O   UNL     1      -0.876   9.928  19.741  0.00  0.00    +0.000 OA
ATOM      7  N   UNL     1      -0.916  11.668  18.252  0.00  0.00    +0.000 N 
ATOM      8  C   UNL     1      -0.311  12.853  18.513  0.00  0.00    +0.000 C 
ATOM      9  O   UNL     1      -0.676  13.984  18.220  0.00  0.00    +0.000 OA
ATOM     10  C   UNL     1       0.873  12.582  19.412  0.00  0.00    +0.000 C 
ATOM     11  H   UNL     1       3.146  10.837  18.332  0.00  0.00    +0.000 HD
ENDROOT
BRANCH   7  12
ATOM     12  C   UNL     1      -2.242  11.519  17.710  0.00  0.00    +0.000 A 
ATOM     13  C   UNL     1      -2.447  11.065  16.393  0.00  0.00    +0.000 A 
ATOM     14  C   UNL     1      -3.724  10.790  15.879  0.00  0.00    +0.000 A 
ATOM     15  C   UNL     1      -3.883  10.182  14.516  0.00  0.00    +0.000 C 
ATOM     16  C   UNL     1      -4.843  11.062  16.662  0.00  0.00    +0.000 A 
ATOM     17  C   UNL     1      -4.692  11.587  17.947  0.00  0.00    +0.000 A 
ATOM     18  C   UNL     1      -5.904  11.903  18.776  0.00  0.00    +0.000 C 
ATOM     19  C   UNL     1      -3.395  11.807  18.462  0.00  0.00    +0.000 A 
ENDBRANCH   7  12
BRANCH   4  20
ATOM     20  C   UNL     1       1.632   9.588  19.074  0.00  0.00    +0.000 A 
ATOM     21  C   UNL     1       1.668   8.655  20.119  0.00  0.00    +0.000 A 
ATOM     22  C   UNL     1       2.064   7.332  19.862  0.00  0.00    +0.000 A 
ATOM     23  C   UNL     1       2.440   6.934  18.577  0.00  0.00    +0.000 A 
ATOM     24 CL   UNL     1       2.995   5.330  18.292  0.00  0.00    +0.000 Cl
ATOM     25  C   UNL     1       2.378   7.825  17.517  0.00  0.00    +0.000 A 
ATOM     26  C   UNL     1       1.951   9.126  17.757  0.00  0.00    +0.000 A 
ENDBRANCH   4  20
BRANCH   1  27
ATOM     27  C   UNL     1       2.058  14.888  19.054  0.00  0.00    +0.000 C 
ATOM     28  O   UNL     1       1.643  15.462  20.048  0.00  0.00    +0.000 OA
BRANCH  27  29
ATOM     29  O   UNL     1       2.473  15.408  17.881  0.00  0.00    +0.000 OA
BRANCH  29  31
ATOM     30  C   UNL     1       4.795  15.825  18.500  0.00  0.00    +0.000 C 
ATOM     31  C   UNL     1       3.504  16.392  17.948  0.00  0.00    +0.000 C 
ENDBRANCH  29  31
ENDBRANCH  27  29
ENDBRANCH   1  27
TORSDOF 5
ENDMDL
MODEL 3
REMARK VINA RESULT:      -6.9      1.542      2.741
REMARK  Name = 
REMARK  8 active torsions:
REMARK  status: ('A' for Active; 'I' for Inactive)
REMARK    1  A    between atoms: C_1  and  C_2
REMARK    2  A    between atoms: C_2  and  O_3
REMARK    3  A    between atoms: O_3  and  C_4
REMARK    4  A    between atoms: C_4  and  C_6
REMARK    5  A    between atoms: C_9  and  C_10
REMARK    6  A    between atoms: N_19  and  C_20
REMARK    7  A    between atoms: C_22  and  C_23
REMARK    8  A    between atoms: C_25  and  C_26
REMARK                            x       y       z     vdW  Elec       q    Type
REMARK                         _______ _______ _______ _____ _____    ______ ____
ROOT
ATOM      1  C   UNL     1       1.887  13.296  19.087  0.00  0.00    +0.000 C 
ATOM      2  N   UNL     1       2.794  12.636  18.466  0.00  0.00    +0.000 NA
ATOM      3  N   UNL     1       2.280  11.405  18.371  0.00  0.00    +0.000 N 
ATOM      4  C   UNL     1       1.173  10.948  19.401  0.00  0.00    +0.000 C 
ATOM      5  C   UNL     1      -0.364  10.633  19.067  0.00  0.00    +0.000 C 
ATOM      6  O   UNL     1      -0.960   9.763  19.716  0.00  0.00    +0.000 OA
ATOM      7  N   UNL     1      -0.982  11.529  18.259  0.00  0.00    +0.000 N 
ATOM      8  C   UNL     1      -0.409  12.721  18.563  0.00  0.00    +0.000 C 
ATOM      9  O   UNL     1      -0.785  13.850  18.278  0.00  0.00    +0.000 OA
ATOM     10  C   UNL     1       0.748  12.455  19.497  0.00  0.00    +0.000 C 
ATOM     11  H   UNL     1       3.090  10.773  18.466  0.00  0.00    +0.000 HD
ENDROOT
BRANCH   7  12
ATOM     12  C   UNL     1      -2.285  11.367  17.669  0.00  0.00    +0.000 A 
ATOM     13  C   UNL     1      -3.452  11.749  18.358  0.00  0.00    +0.000 A 
ATOM     14  C   UNL     1      -4.723  11.721  17.764  0.00  0.00    +0.000 A 
ATOM     15  C   UNL     1      -5.918  12.263  18.493  0.00  0.00    +0.000 C 
ATOM     16  C   UNL     1      -4.859  11.209  16.476  0.00  0.00    +0.000 A 
ATOM     17  C   UNL     1      -3.739  10.745  15.782  0.00  0.00    +0.000 A 
ATOM     18  C   UNL     1      -3.896  10.170  14.403  0.00  0.00    +0.000 C 
ATOM     19  C   UNL     1      -2.463  10.831  16.381  0.00  0.00    +0.000 A 
ENDBRANCH   7  12
BRANCH   4  20
ATOM     20  C   UNL     1       1.576   9.482  19.131  0.00  0.00    +0.000 A 
ATOM     21  C   UNL     1       1.667   8.549  20.173  0.00  0.00    +0.000 A 
ATOM     22  C   UNL     1       2.096   7.238  19.902  0.00  0.00    +0.000 A 
ATOM     23  C   UNL     1       2.450   6.855  18.606  0.00  0.00    +0.000 A 
ATOM     24 CL   UNL     1       3.045   5.269  18.302  0.00  0.00    +0.000 Cl
ATOM     25  C   UNL     1       2.334   7.746  17.551  0.00  0.00    +0.000 A 
ATOM     26  C   UNL     1       1.875   9.033  17.805  0.00  0.00    +0.000 A 
ENDBRANCH   4  20
BRANCH   1  27
ATOM     27  C   UNL     1       1.900  14.789  19.224  0.00  0.00    +0.000 C 
ATOM     28  O   UNL     1       1.446  15.335  20.216  0.00  0.00    +0.000 OA
BRANCH  27  29
ATOM     29  O   UNL     1       2.337  15.339  18.072  0.00  0.00    +0.000 OA
BRANCH  29  31
ATOM     30  C   UNL     1       4.743  15.724  18.184  0.00  0.00    +0.000 C 
ATOM     31  C   UNL     1       3.356  16.332  18.186  0.00  0.00    +0.000 C 
ENDBRANCH  29  31
ENDBRANCH  27  29
ENDBRANCH   1  27
TORSDOF 5
ENDMDL
MODEL 4
REMARK VINA RESULT:      -6.8      0.672      1.926
REMARK  Name = 
REMARK  8 active torsions:
REMARK  status: ('A' for Active; 'I' for Inactive)
REMARK    1  A    between atoms: C_1  and  C_2
REMARK    2  A    between atoms: C_2  and  O_3
REMARK    3  A    between atoms: O_3  and  C_4
REMARK    4  A    between atoms: C_4  and  C_6
REMARK    5  A    between atoms: C_9  and  C_10
REMARK    6  A    between atoms: N_19  and  C_20
REMARK    7  A    between atoms: C_22  and  C_23
REMARK    8  A    between atoms: C_25  and  C_26
REMARK                            x       y       z     vdW  Elec       q    Type
REMARK                         _______ _______ _______ _____ _____    ______ ____
ROOT
ATOM      1  C   UNL     1       0.595  13.047  21.312  0.00  0.00    +0.000 C 
ATOM      2  N   UNL     1       1.739  12.840  20.771  0.00  0.00    +0.000 NA
ATOM      3  N   UNL     1       1.564  11.705  20.086  0.00  0.00    +0.000 N 
ATOM      4  C   UNL     1       0.415  10.710  20.519  0.00  0.00    +0.000 C 
ATOM      5  C   UNL     1      -0.904  10.357  19.676  0.00  0.00    +0.000 C 
ATOM      6  O   UNL     1      -1.392   9.222  19.762  0.00  0.00    +0.000 OA
ATOM      7  N   UNL     1      -1.543  11.416  19.120  0.00  0.00    +0.000 N 
ATOM      8  C   UNL     1      -1.344  12.436  19.992  0.00  0.00    +0.000 C 
ATOM      9  O   UNL     1      -1.914  13.517  20.053  0.00  0.00    +0.000 OA
ATOM     10  C   UNL     1      -0.368  11.964  21.045  0.00  0.00    +0.000 C 
ATOM     11  H   UNL     1       2.465  11.209  20.163  0.00  0.00    +0.000 HD
ENDROOT
BRANCH   7  12
ATOM     12  C   UNL     1      -2.624  11.338  18.173  0.00  0.00    +0.000 A 
ATOM     13  C   UNL     1      -3.924  11.759  18.512  0.00  0.00    +0.000 A 
ATOM     14  C   UNL     1      -4.968  11.815  17.575  0.00  0.00    +0.000 A 
ATOM     15  C   UNL     1      -6.300  12.395  17.951  0.00  0.00    +0.000 C 
ATOM     16  C   UNL     1      -4.744  11.350  16.282  0.00  0.00    +0.000 A 
ATOM     17  C   UNL     1      -3.491  10.850  15.921  0.00  0.00    +0.000 A 
ATOM     18  C   UNL     1      -3.264  10.326  14.531  0.00  0.00    +0.000 C 
ATOM     19  C   UNL     1      -2.441  10.852  16.866  0.00  0.00    +0.000 A 
ENDBRANCH   7  12
BRANCH   4  20
ATOM     20  C   UNL     1       1.202   9.564  19.849  0.00  0.00    +0.000 A 
ATOM     21  C   UNL     1       1.617   9.648  18.514  0.00  0.00    +0.000 A 
ATOM     22  C   UNL     1       2.279   8.562  17.916  0.00  0.00    +0.000 A 
ATOM     23  C   UNL     1       2.517   7.387  18.635  0.00  0.00    +0.000 A 
ATOM     24 CL   UNL     1       3.261   6.038  17.868  0.00  0.00    +0.000 Cl
ATOM     25  C   UNL     1       2.152   7.289  19.968  0.00  0.00    +0.000 A 
ATOM     26  C   UNL     1       1.530   8.374  20.575  0.00  0.00    +0.000 A 
ENDBRANCH   4  20
BRANCH   1  27
ATOM     27  C   UNL     1       0.223  14.332  21.991  0.00  0.00    +0.000 C 
ATOM     28  O   UNL     1       0.546  15.410  21.520  0.00  0.00    +0.000 OA
BRANCH  27  29
ATOM     29  O   UNL     1      -0.351  14.057  23.180  0.00  0.00    +0.000 OA
BRANCH  29  31
ATOM     30  C   UNL     1      -2.711  13.556  23.538  0.00  0.00    +0.000 C 
ATOM     31  C   UNL     1      -1.641  14.621  23.410  0.00  0.00    +0.000 C 
ENDBRANCH  29  31
ENDBRANCH  27  29
ENDBRANCH   1  27
TORSDOF 5
ENDMDL
MODEL 5
REMARK VINA RESULT:      -6.8      1.506      2.759
REMARK  Name = 
REMARK  8 active torsions:
REMARK  status: ('A' for Active; 'I' for Inactive)
REMARK    1  A    between atoms: C_1  and  C_2
REMARK    2  A    between atoms: C_2  and  O_3
REMARK    3  A    between atoms: O_3  and  C_4
REMARK    4  A    between atoms: C_4  and  C_6
REMARK    5  A    between atoms: C_9  and  C_10
REMARK    6  A    between atoms: N_19  and  C_20
REMARK    7  A    between atoms: C_22  and  C_23
REMARK    8  A    between atoms: C_25  and  C_26
REMARK                            x       y       z     vdW  Elec       q    Type
REMARK                         _______ _______ _______ _____ _____    ______ ____
ROOT
ATOM      1  C   UNL     1       1.875  13.329  19.171  0.00  0.00    +0.000 C 
ATOM      2  N   UNL     1       2.795  12.698  18.539  0.00  0.00    +0.000 NA
ATOM      3  N   UNL     1       2.305  11.459  18.420  0.00  0.00    +0.000 N 
ATOM      4  C   UNL     1       1.205  10.962  19.439  0.00  0.00    +0.000 C 
ATOM      5  C   UNL     1      -0.326  10.624  19.097  0.00  0.00    +0.000 C 
ATOM      6  O   UNL     1      -0.905   9.731  19.728  0.00  0.00    +0.000 OA
ATOM      7  N   UNL     1      -0.958  11.524  18.304  0.00  0.00    +0.000 N 
ATOM      8  C   UNL     1      -0.409  12.720  18.632  0.00  0.00    +0.000 C 
ATOM      9  O   UNL     1      -0.806  13.847  18.367  0.00  0.00    +0.000 OA
ATOM     10  C   UNL     1       0.752  12.458  19.563  0.00  0.00    +0.000 C 
ATOM     11  H   UNL     1       3.127  10.842  18.505  0.00  0.00    +0.000 HD
ENDROOT
BRANCH   7  12
ATOM     12  C   UNL     1      -2.257  11.347  17.709  0.00  0.00    +0.000 A 
ATOM     13  C   UNL     1      -3.431  11.717  18.393  0.00  0.00    +0.000 A 
ATOM     14  C   UNL     1      -4.700  11.676  17.793  0.00  0.00    +0.000 A 
ATOM     15  C   UNL     1      -5.903  12.205  18.517  0.00  0.00    +0.000 C 
ATOM     16  C   UNL     1      -4.824  11.163  16.505  0.00  0.00    +0.000 A 
ATOM     17  C   UNL     1      -3.697  10.711  15.816  0.00  0.00    +0.000 A 
ATOM     18  C   UNL     1      -3.842  10.134  14.436  0.00  0.00    +0.000 C 
ATOM     19  C   UNL     1      -2.424  10.810  16.420  0.00  0.00    +0.000 A 
ENDBRANCH   7  12
BRANCH   4  20
ATOM     20  C   UNL     1       1.637   9.510  19.143  0.00  0.00    +0.000 A 
ATOM     21  C   UNL     1       1.924   9.088  17.839  0.00  0.00    +0.000 A 
ATOM     22  C   UNL     1       2.255   7.743  17.595  0.00  0.00    +0.000 A 
ATOM     23  C   UNL     1       2.287   6.815  18.639  0.00  0.00    +0.000 A 
ATOM     24 CL   UNL     1       2.620   5.158  18.315  0.00  0.00    +0.000 Cl
ATOM     25  C   UNL     1       2.044   7.212  19.944  0.00  0.00    +0.000 A 
ATOM     26  C   UNL     1       1.752   8.547  20.197  0.00  0.00    +0.000 A 
ENDBRANCH   4  20
BRANCH   1  27
ATOM     27  C   UNL     1       1.859  14.819  19.335  0.00  0.00    +0.000 C 
ATOM     28  O   UNL     1       1.410  15.337  20.345  0.00  0.00    +0.000 OA
BRANCH  27  29
ATOM     29  O   UNL     1       2.265  15.399  18.188  0.00  0.00    +0.000 OA
BRANCH  29  31
ATOM     30  C   UNL     1       1.457  17.639  17.660  0.00  0.00    +0.000 C 
ATOM     31  C   UNL     1       2.566  16.793  18.249  0.00  0.00    +0.000 C 
ENDBRANCH  29  31
ENDBRANCH  27  29
ENDBRANCH   1  27
TORSDOF 5
ENDMDL
MODEL 6
REMARK VINA RESULT:      -6.8      0.638      1.089
REMARK  Name = 
REMARK  8 active torsions:
REMARK  status: ('A' for Active; 'I' for Inactive)
REMARK    1  A    between atoms: C_1  and  C_2
REMARK    2  A    between atoms: C_2  and  O_3
REMARK    3  A    between atoms: O_3  and  C_4
REMARK    4  A    between atoms: C_4  and  C_6
REMARK    5  A    between atoms: C_9  and  C_10
REMARK    6  A    between atoms: N_19  and  C_20
REMARK    7  A    between atoms: C_22  and  C_23
REMARK    8  A    between atoms: C_25  and  C_26
REMARK                            x       y       z     vdW  Elec       q    Type
REMARK                         _______ _______ _______ _____ _____    ______ ____
ROOT
ATOM      1  C   UNL     1       0.721  13.143  21.313  0.00  0.00    +0.000 C 
ATOM      2  N   UNL     1       1.850  12.894  20.760  0.00  0.00    +0.000 NA
ATOM      3  N   UNL     1       1.630  11.761  20.085  0.00  0.00    +0.000 N 
ATOM      4  C   UNL     1       0.455  10.807  20.539  0.00  0.00    +0.000 C 
ATOM      5  C   UNL     1      -0.885  10.491  19.715  0.00  0.00    +0.000 C 
ATOM      6  O   UNL     1      -1.408   9.374  19.815  0.00  0.00    +0.000 OA
ATOM      7  N   UNL     1      -1.496  11.567  19.160  0.00  0.00    +0.000 N 
ATOM      8  C   UNL     1      -1.254  12.585  20.022  0.00  0.00    +0.000 C 
ATOM      9  O   UNL     1      -1.788  13.685  20.082  0.00  0.00    +0.000 OA
ATOM     10  C   UNL     1      -0.280  12.089  21.065  0.00  0.00    +0.000 C 
ATOM     11  H   UNL     1       2.516  11.237  20.155  0.00  0.00    +0.000 HD
ENDROOT
BRANCH   7  12
ATOM     12  C   UNL     1      -2.591  11.518  18.226  0.00  0.00    +0.000 A 
ATOM     13  C   UNL     1      -2.397  11.105  16.893  0.00  0.00    +0.000 A 
ATOM     14  C   UNL     1      -3.462  10.926  15.996  0.00  0.00    +0.000 A 
ATOM     15  C   UNL     1      -3.219  10.359  14.628  0.00  0.00    +0.000 C 
ATOM     16  C   UNL     1      -4.752  11.257  16.401  0.00  0.00    +0.000 A 
ATOM     17  C   UNL     1      -4.983  11.744  17.689  0.00  0.00    +0.000 A 
ATOM     18  C   UNL     1      -6.375  12.122  18.110  0.00  0.00    +0.000 C 
ATOM     19  C   UNL     1      -3.903  11.867  18.591  0.00  0.00    +0.000 A 
ENDBRANCH   7  12
BRANCH   4  20
ATOM     20  C   UNL     1       1.196   9.631  19.868  0.00  0.00    +0.000 A 
ATOM     21  C   UNL     1       1.563   9.678  18.516  0.00  0.00    +0.000 A 
ATOM     22  C   UNL     1       2.182   8.566  17.920  0.00  0.00    +0.000 A 
ATOM     23  C   UNL     1       2.425   7.404  18.657  0.00  0.00    +0.000 A 
ATOM     24 CL   UNL     1       3.116   6.024  17.895  0.00  0.00    +0.000 Cl
ATOM     25  C   UNL     1       2.108   7.343  20.004  0.00  0.00    +0.000 A 
ATOM     26  C   UNL     1       1.529   8.453  20.609  0.00  0.00    +0.000 A 
ENDBRANCH   4  20
BRANCH   1  27
ATOM     27  C   UNL     1       0.399  14.443  21.988  0.00  0.00    +0.000 C 
ATOM     28  O   UNL     1       0.858  15.496  21.578  0.00  0.00    +0.000 OA
BRANCH  27  29
ATOM     29  O   UNL     1      -0.308  14.200  23.110  0.00  0.00    +0.000 OA
BRANCH  29  31
ATOM     30  C   UNL     1      -1.882  14.936  24.822  0.00  0.00    +0.000 C 
ATOM     31  C   UNL     1      -1.361  15.115  23.411  0.00  0.00    +0.000 C 
ENDBRANCH  29  31
ENDBRANCH  27  29
ENDBRANCH   1  27
TORSDOF 5
ENDMDL
MODEL 7
REMARK VINA RESULT:      -6.8      1.580      1.714
REMARK  Name = 
REMARK  8 active torsions:
REMARK  status: ('A' for Active; 'I' for Inactive)
REMARK    1  A    between atoms: C_1  and  C_2
REMARK    2  A    between atoms: C_2  and  O_3
REMARK    3  A    between atoms: O_3  and  C_4
REMARK    4  A    between atoms: C_4  and  C_6
REMARK    5  A    between atoms: C_9  and  C_10
REMARK    6  A    between atoms: N_19  and  C_20
REMARK    7  A    between atoms: C_22  and  C_23
REMARK    8  A    between atoms: C_25  and  C_26
REMARK                            x       y       z     vdW  Elec       q    Type
REMARK                         _______ _______ _______ _____ _____    ______ ____
ROOT
ATOM      1  C   UNL     1       2.055  13.385  18.905  0.00  0.00    +0.000 C 
ATOM      2  N   UNL     1       2.926  12.682  18.279  0.00  0.00    +0.000 NA
ATOM      3  N   UNL     1       2.378  11.463  18.236  0.00  0.00    +0.000 N 
ATOM      4  C   UNL     1       1.290  11.067  19.311  0.00  0.00    +0.000 C 
ATOM      5  C   UNL     1      -0.264  10.783  19.031  0.00  0.00    +0.000 C 
ATOM      6  O   UNL     1      -0.862   9.949  19.723  0.00  0.00    +0.000 OA
ATOM      7  N   UNL     1      -0.881  11.671  18.213  0.00  0.00    +0.000 N 
ATOM      8  C   UNL     1      -0.269  12.855  18.464  0.00  0.00    +0.000 C 
ATOM      9  O   UNL     1      -0.625  13.986  18.155  0.00  0.00    +0.000 OA
ATOM     10  C   UNL     1       0.908  12.587  19.373  0.00  0.00    +0.000 C 
ATOM     11  H   UNL     1       3.174  10.814  18.328  0.00  0.00    +0.000 HD
ENDROOT
BRANCH   7  12
ATOM     12  C   UNL     1      -2.205  11.525  17.666  0.00  0.00    +0.000 A 
ATOM     13  C   UNL     1      -2.405  11.062  16.351  0.00  0.00    +0.000 A 
ATOM     14  C   UNL     1      -3.680  10.789  15.832  0.00  0.00    +0.000 A 
ATOM     15  C   UNL     1      -3.835  10.172  14.473  0.00  0.00    +0.000 C 
ATOM     16  C   UNL     1      -4.802  11.073  16.607  0.00  0.00    +0.000 A 
ATOM     17  C   UNL     1      -4.655  11.608  17.888  0.00  0.00    +0.000 A 
ATOM     18  C   UNL     1      -5.871  11.936  18.709  0.00  0.00    +0.000 C 
ATOM     19  C   UNL     1      -3.360  11.825  18.409  0.00  0.00    +0.000 A 
ENDBRANCH   7  12
BRANCH   4  20
ATOM     20  C   UNL     1       1.648   9.584  19.075  0.00  0.00    +0.000 A 
ATOM     21  C   UNL     1       1.668   8.663  20.131  0.00  0.00    +0.000 A 
ATOM     22  C   UNL     1       2.057   7.334  19.893  0.00  0.00    +0.000 A 
ATOM     23  C   UNL     1       2.440   6.919  18.615  0.00  0.00    +0.000 A 
ATOM     24 CL   UNL     1       2.986   5.308  18.354  0.00  0.00    +0.000 Cl
ATOM     25  C   UNL     1       2.394   7.798  17.545  0.00  0.00    +0.000 A 
ATOM     26  C   UNL     1       1.975   9.105  17.767  0.00  0.00    +0.000 A 
ENDBRANCH   4  20
BRANCH   1  27
ATOM     27  C   UNL     1       2.110  14.881  18.995  0.00  0.00    +0.000 C 
ATOM     28  O   UNL     1       2.411  15.560  18.028  0.00  0.00    +0.000 OA
BRANCH  27  29
ATOM     29  O   UNL     1       1.923  15.257  20.276  0.00  0.00    +0.000 OA
BRANCH  29  31
ATOM     30  C   UNL     1       3.723  14.689  21.821  0.00  0.00    +0.000 C 
ATOM     31  C   UNL     1       3.067  15.755  20.969  0.00  0.00    +0.000 C 
ENDBRANCH  29  31
ENDBRANCH  27  29
ENDBRANCH   1  27
TORSDOF 5
ENDMDL
MODEL 8
REMARK VINA RESULT:      -6.8      1.225      1.765
REMARK  Name = 
REMARK  8 active torsions:
REMARK  status: ('A' for Active; 'I' for Inactive)
REMARK    1  A    between atoms: C_1  and  C_2
REMARK    2  A    between atoms: C_2  and  O_3
REMARK    3  A    between atoms: O_3  and  C_4
REMARK    4  A    between atoms: C_4  and  C_6
REMARK    5  A    between atoms: C_9  and  C_10
REMARK    6  A    between atoms: N_19  and  C_20
REMARK    7  A    between atoms: C_22  and  C_23
REMARK    8  A    between atoms: C_25  and  C_26
REMARK                            x       y       z     vdW  Elec       q    Type
REMARK                         _______ _______ _______ _____ _____    ______ ____
ROOT
ATOM      1  C   UNL     1       1.653  13.505  19.645  0.00  0.00    +0.000 C 
ATOM      2  N   UNL     1       2.612  12.948  19.001  0.00  0.00    +0.000 NA
ATOM      3  N   UNL     1       2.158  11.714  18.761  0.00  0.00    +0.000 N 
ATOM      4  C   UNL     1       1.033  11.109  19.691  0.00  0.00    +0.000 C 
ATOM      5  C   UNL     1      -0.474  10.767  19.261  0.00  0.00    +0.000 C 
ATOM      6  O   UNL     1      -1.055   9.813  19.794  0.00  0.00    +0.000 OA
ATOM      7  N   UNL     1      -1.099  11.716  18.521  0.00  0.00    +0.000 N 
ATOM      8  C   UNL     1      -0.593  12.892  18.967  0.00  0.00    +0.000 C 
ATOM      9  O   UNL     1      -1.008  14.029  18.780  0.00  0.00    +0.000 OA
ATOM     10  C   UNL     1       0.538  12.580  19.920  0.00  0.00    +0.000 C 
ATOM     11  H   UNL     1       2.992  11.109  18.828  0.00  0.00    +0.000 HD
ENDROOT
BRANCH   7  12
ATOM     12  C   UNL     1      -2.369  11.561  17.861  0.00  0.00    +0.000 A 
ATOM     13  C   UNL     1      -2.452  11.095  16.534  0.00  0.00    +0.000 A 
ATOM     14  C   UNL     1      -3.676  10.814  15.908  0.00  0.00    +0.000 A 
ATOM     15  C   UNL     1      -3.709  10.195  14.541  0.00  0.00    +0.000 C 
ATOM     16  C   UNL     1      -4.862  11.091  16.582  0.00  0.00    +0.000 A 
ATOM     17  C   UNL     1      -4.830  11.627  17.871  0.00  0.00    +0.000 A 
ATOM     18  C   UNL     1      -6.114  11.948  18.583  0.00  0.00    +0.000 C 
ATOM     19  C   UNL     1      -3.587  11.854  18.501  0.00  0.00    +0.000 A 
ENDBRANCH   7  12
BRANCH   4  20
ATOM     20  C   UNL     1       1.512   9.696  19.294  0.00  0.00    +0.000 A 
ATOM     21  C   UNL     1       1.600   8.665  20.239  0.00  0.00    +0.000 A 
ATOM     22  C   UNL     1       2.098   7.408  19.858  0.00  0.00    +0.000 A 
ATOM     23  C   UNL     1       2.523   7.175  18.547  0.00  0.00    +0.000 A 
ATOM     24 CL   UNL     1       3.200   5.653  18.113  0.00  0.00    +0.000 Cl
ATOM     25  C   UNL     1       2.412   8.163  17.583  0.00  0.00    +0.000 A 
ATOM     26  C   UNL     1       1.886   9.399  17.945  0.00  0.00    +0.000 A 
ENDBRANCH   4  20
BRANCH   1  27
ATOM     27  C   UNL     1       1.594  14.975  19.931  0.00  0.00    +0.000 C 
ATOM     28  O   UNL     1       1.233  15.392  21.020  0.00  0.00    +0.000 OA
BRANCH  27  29
ATOM     29  O   UNL     1       1.853  15.660  18.799  0.00  0.00    +0.000 OA
BRANCH  29  31
ATOM     30  C   UNL     1       0.168  17.275  18.088  0.00  0.00    +0.000 C 
ATOM     31  C   UNL     1       1.489  17.041  18.792  0.00  0.00    +0.000 C 
ENDBRANCH  29  31
ENDBRANCH  27  29
ENDBRANCH   1  27
TORSDOF 5
ENDMDL
MODEL 9
REMARK VINA RESULT:      -6.8      1.293      2.105
REMARK  Name = 
REMARK  8 active torsions:
REMARK  status: ('A' for Active; 'I' for Inactive)
REMARK    1  A    between atoms: C_1  and  C_2
REMARK    2  A    between atoms: C_2  and  O_3
REMARK    3  A    between atoms: O_3  and  C_4
REMARK    4  A    between atoms: C_4  and  C_6
REMARK    5  A    between atoms: C_9  and  C_10
REMARK    6  A    between atoms: N_19  and  C_20
REMARK    7  A    between atoms: C_22  and  C_23
REMARK    8  A    between atoms: C_25  and  C_26
REMARK                            x       y       z     vdW  Elec       q    Type
REMARK                         _______ _______ _______ _____ _____    ______ ____
ROOT
ATOM      1  C   UNL     1       1.930  13.343  19.048  0.00  0.00    +0.000 C 
ATOM      2  N   UNL     1       2.830  12.675  18.426  0.00  0.00    +0.000 NA
ATOM      3  N   UNL     1       2.316  11.442  18.352  0.00  0.00    +0.000 N 
ATOM      4  C   UNL     1       1.219  10.999  19.400  0.00  0.00    +0.000 C 
ATOM      5  C   UNL     1      -0.321  10.680  19.086  0.00  0.00    +0.000 C 
ATOM      6  O   UNL     1      -0.910   9.819  19.753  0.00  0.00    +0.000 OA
ATOM      7  N   UNL     1      -0.947  11.566  18.273  0.00  0.00    +0.000 N 
ATOM      8  C   UNL     1      -0.371  12.761  18.556  0.00  0.00    +0.000 C 
ATOM      9  O   UNL     1      -0.750  13.887  18.260  0.00  0.00    +0.000 OA
ATOM     10  C   UNL     1       0.796  12.507  19.481  0.00  0.00    +0.000 C 
ATOM     11  H   UNL     1       3.127  10.812  18.448  0.00  0.00    +0.000 HD
ENDROOT
BRANCH   7  12
ATOM     12  C   UNL     1      -2.256  11.396  17.699  0.00  0.00    +0.000 A 
ATOM     13  C   UNL     1      -3.418  11.752  18.410  0.00  0.00    +0.000 A 
ATOM     14  C   UNL     1      -4.697  11.717  17.833  0.00  0.00    +0.000 A 
ATOM     15  C   UNL     1      -5.889  12.232  18.588  0.00  0.00    +0.000 C 
ATOM     16  C   UNL     1      -4.844  11.224  16.540  0.00  0.00    +0.000 A 
ATOM     17  C   UNL     1      -3.729  10.786  15.823  0.00  0.00    +0.000 A 
ATOM     18  C   UNL     1      -3.898  10.231  14.436  0.00  0.00    +0.000 C 
ATOM     19  C   UNL     1      -2.445  10.879  16.405  0.00  0.00    +0.000 A 
ENDBRANCH   7  12
BRANCH   4  20
ATOM     20  C   UNL     1       1.620   9.530  19.145  0.00  0.00    +0.000 A 
ATOM     21  C   UNL     1       1.690   8.602  20.193  0.00  0.00    +0.000 A 
ATOM     22  C   UNL     1       2.117   7.288  19.937  0.00  0.00    +0.000 A 
ATOM     23  C   UNL     1       2.489   6.896  18.649  0.00  0.00    +0.000 A 
ATOM     24 CL   UNL     1       3.081   5.305  18.363  0.00  0.00    +0.000 Cl
ATOM     25  C   UNL     1       2.394   7.781  17.587  0.00  0.00    +0.000 A 
ATOM     26  C   UNL     1       1.937   9.072  17.827  0.00  0.00    +0.000 A 
ENDBRANCH   4  20
BRANCH   1  27
ATOM     27  C   UNL     1       1.945  14.838  19.165  0.00  0.00    +0.000 C 
ATOM     28  O   UNL     1       2.215  15.543  18.207  0.00  0.00    +0.000 OA
BRANCH  27  29
ATOM     29  O   UNL     1       1.762  15.185  20.455  0.00  0.00    +0.000 OA
BRANCH  29  31
ATOM     30  C   UNL     1      -0.323  16.445  20.593  0.00  0.00    +0.000 C 
ATOM     31  C   UNL     1       1.188  16.470  20.694  0.00  0.00    +0.000 C 
ENDBRANCH  29  31
ENDBRANCH  27  29
ENDBRANCH   1  27
TORSDOF 5
ENDMDL
