MODEL 1
REMARK VINA RESULT:      -7.5      0.000      0.000
REMARK  Name = 
REMARK  7 active torsions:
REMARK  status: ('A' for Active; 'I' for Inactive)
REMARK    1  A    between atoms: C_1  and  C_2
REMARK    2  A    between atoms: C_2  and  O_3
REMARK    3  A    between atoms: O_3  and  C_4
REMARK    4  A    between atoms: C_4  and  C_6
REMARK    5  A    between atoms: N_8  and  C_9
REMARK    6  A    between atoms: C_9  and  C_10
REMARK    7  A    between atoms: C_17  and  N_18
REMARK                            x       y       z     vdW  Elec       q    Type
REMARK                         _______ _______ _______ _____ _____    ______ ____
ROOT
ATOM      1  C   UNL     1       6.014   4.991  16.267  0.00  0.00    +0.000 A 
ATOM      2  N   UNL     1       4.778   5.496  16.478  0.00  0.00    +0.000 NA
ATOM      3  N   UNL     1       4.663   5.546  17.824  0.00  0.00    +0.000 N 
ATOM      4  C   UNL     1       5.785   5.127  18.483  0.00  0.00    +0.000 A 
ATOM      5  C   UNL     1       6.669   4.757  17.510  0.00  0.00    +0.000 A 
ENDROOT
BRANCH   5   6
ATOM      6  N   UNL     1       7.912   4.302  17.728  0.00  0.00    +0.000 N 
ATOM      7  H   UNL     1       8.661   4.354  17.045  0.00  0.00    +0.000 HD
ATOM      8  H   UNL     1       8.168   3.867  18.614  0.00  0.00    +0.000 HD
ENDBRANCH   5   6
BRANCH   1   9
ATOM      9  C   UNL     1       6.596   4.806  14.934  0.00  0.00    +0.000 C 
ATOM     10  O   UNL     1       7.667   5.306  14.592  0.00  0.00    +0.000 OA
BRANCH   9  11
ATOM     11  O   UNL     1       5.782   4.106  14.086  0.00  0.00    +0.000 OA
BRANCH  11  13
ATOM     12  C   UNL     1       5.305   3.172  11.941  0.00  0.00    +0.000 C 
ATOM     13  C   UNL     1       6.398   3.682  12.866  0.00  0.00    +0.000 C 
ENDBRANCH  11  13
ENDBRANCH   9  11
ENDBRANCH   1   9
BRANCH   3  14
ATOM     14  C   UNL     1       3.466   6.117  18.430  0.00  0.00    +0.000 C 
BRANCH  14  15
ATOM     15  C   UNL     1       2.518   5.058  18.934  0.00  0.00    +0.000 A 
ATOM     16  C   UNL     1       1.949   4.128  18.051  0.00  0.00    +0.000 A 
ATOM     17  C   UNL     1       1.100   3.126  18.527  0.00  0.00    +0.000 A 
ATOM     18  C   UNL     1       0.810   3.042  19.888  0.00  0.00    +0.000 A 
ATOM     19  C   UNL     1       1.369   3.959  20.775  0.00  0.00    +0.000 A 
ATOM     20  C   UNL     1       2.220   4.957  20.303  0.00  0.00    +0.000 A 
ENDBRANCH  14  15
ENDBRANCH   3  14
TORSDOF 6
ENDMDL
MODEL 2
REMARK VINA RESULT:      -7.5      0.192      1.147
REMARK  Name = 
REMARK  7 active torsions:
REMARK  status: ('A' for Active; 'I' for Inactive)
REMARK    1  A    between atoms: C_1  and  C_2
REMARK    2  A    between atoms: C_2  and  O_3
REMARK    3  A    between atoms: O_3  and  C_4
REMARK    4  A    between atoms: C_4  and  C_6
REMARK    5  A    between atoms: N_8  and  C_9
REMARK    6  A    between atoms: C_9  and  C_10
REMARK    7  A    between atoms: C_17  and  N_18
REMARK                            x       y       z     vdW  Elec       q    Type
REMARK                         _______ _______ _______ _____ _____    ______ ____
ROOT
ATOM      1  C   UNL     1       6.022   4.952  16.299  0.00  0.00    +0.000 A 
ATOM      2  N   UNL     1       4.772   5.423  16.502  0.00  0.00    +0.000 NA
ATOM      3  N   UNL     1       4.650   5.475  17.848  0.00  0.00    +0.000 N 
ATOM      4  C   UNL     1       5.780   5.089  18.513  0.00  0.00    +0.000 A 
ATOM      5  C   UNL     1       6.678   4.740  17.544  0.00  0.00    +0.000 A 
ENDROOT
BRANCH   5   6
ATOM      6  N   UNL     1       7.931   4.320  17.769  0.00  0.00    +0.000 N 
ATOM      7  H   UNL     1       8.677   4.373  17.083  0.00  0.00    +0.000 HD
ATOM      8  H   UNL     1       8.200   3.914  18.664  0.00  0.00    +0.000 HD
ENDBRANCH   5   6
BRANCH   1   9
ATOM      9  C   UNL     1       6.614   4.779  14.968  0.00  0.00    +0.000 C 
ATOM     10  O   UNL     1       7.669   5.313  14.627  0.00  0.00    +0.000 OA
BRANCH   9  11
ATOM     11  O   UNL     1       5.826   4.047  14.122  0.00  0.00    +0.000 OA
BRANCH  11  13
ATOM     12  C   UNL     1       5.348   3.146  11.963  0.00  0.00    +0.000 C 
ATOM     13  C   UNL     1       6.429   3.717  12.866  0.00  0.00    +0.000 C 
ENDBRANCH  11  13
ENDBRANCH   9  11
ENDBRANCH   1   9
BRANCH   3  14
ATOM     14  C   UNL     1       3.434   6.015  18.446  0.00  0.00    +0.000 C 
BRANCH  14  15
ATOM     15  C   UNL     1       2.578   4.942  19.072  0.00  0.00    +0.000 A 
ATOM     16  C   UNL     1       2.476   4.832  20.467  0.00  0.00    +0.000 A 
ATOM     17  C   UNL     1       1.654   3.861  21.043  0.00  0.00    +0.000 A 
ATOM     18  C   UNL     1       0.926   2.991  20.234  0.00  0.00    +0.000 A 
ATOM     19  C   UNL     1       1.017   3.090  18.848  0.00  0.00    +0.000 A 
ATOM     20  C   UNL     1       1.835   4.061  18.270  0.00  0.00    +0.000 A 
ENDBRANCH  14  15
ENDBRANCH   3  14
TORSDOF 6
ENDMDL
MODEL 3
REMARK VINA RESULT:      -7.1      1.333      1.585
REMARK  Name = 
REMARK  7 active torsions:
REMARK  status: ('A' for Active; 'I' for Inactive)
REMARK    1  A    between atoms: C_1  and  C_2
REMARK    2  A    between atoms: C_2  and  O_3
REMARK    3  A    between atoms: O_3  and  C_4
REMARK    4  A    between atoms: C_4  and  C_6
REMARK    5  A    between atoms: N_8  and  C_9
REMARK    6  A    between atoms: C_9  and  C_10
REMARK    7  A    between atoms: C_17  and  N_18
REMARK                            x       y       z     vdW  Elec       q    Type
REMARK                         _______ _______ _______ _____ _____    ______ ____
ROOT
ATOM      1  C   UNL     1       5.697   5.223  16.929  0.00  0.00    +0.000 A 
ATOM      2  N   UNL     1       4.440   4.781  17.157  0.00  0.00    +0.000 NA
ATOM      3  N   UNL     1       3.775   5.875  17.592  0.00  0.00    +0.000 N 
ATOM      4  C   UNL     1       4.544   7.004  17.621  0.00  0.00    +0.000 A 
ATOM      5  C   UNL     1       5.787   6.617  17.208  0.00  0.00    +0.000 A 
ENDROOT
BRANCH   5   6
ATOM      6  N   UNL     1       6.844   7.430  17.072  0.00  0.00    +0.000 N 
ATOM      7  H   UNL     1       6.939   8.319  17.552  0.00  0.00    +0.000 HD
ATOM      8  H   UNL     1       7.624   7.187  16.461  0.00  0.00    +0.000 HD
ENDBRANCH   5   6
BRANCH   1   9
ATOM      9  C   UNL     1       6.767   4.377  16.391  0.00  0.00    +0.000 C 
ATOM     10  O   UNL     1       7.904   4.352  16.860  0.00  0.00    +0.000 OA
BRANCH   9  11
ATOM     11  O   UNL     1       6.397   3.697  15.263  0.00  0.00    +0.000 OA
BRANCH  11  13
ATOM     12  C   UNL     1       6.035   3.549  12.907  0.00  0.00    +0.000 C 
ATOM     13  C   UNL     1       6.545   4.426  14.040  0.00  0.00    +0.000 C 
ENDBRANCH  11  13
ENDBRANCH   9  11
ENDBRANCH   1   9
BRANCH   3  14
ATOM     14  C   UNL     1       2.346   5.793  17.871  0.00  0.00    +0.000 C 
BRANCH  14  15
ATOM     15  C   UNL     1       2.030   4.797  18.958  0.00  0.00    +0.000 A 
ATOM     16  C   UNL     1       1.352   3.604  18.661  0.00  0.00    +0.000 A 
ATOM     17  C   UNL     1       1.094   2.667  19.664  0.00  0.00    +0.000 A 
ATOM     18  C   UNL     1       1.507   2.910  20.972  0.00  0.00    +0.000 A 
ATOM     19  C   UNL     1       2.182   4.089  21.281  0.00  0.00    +0.000 A 
ATOM     20  C   UNL     1       2.445   5.024  20.280  0.00  0.00    +0.000 A 
ENDBRANCH  14  15
ENDBRANCH   3  14
TORSDOF 6
ENDMDL
MODEL 4
REMARK VINA RESULT:      -7.0      2.036      3.341
REMARK  Name = 
REMARK  7 active torsions:
REMARK  status: ('A' for Active; 'I' for Inactive)
REMARK    1  A    between atoms: C_1  and  C_2
REMARK    2  A    between atoms: C_2  and  O_3
REMARK    3  A    between atoms: O_3  and  C_4
REMARK    4  A    between atoms: C_4  and  C_6
REMARK    5  A    between atoms: N_8  and  C_9
REMARK    6  A    between atoms: C_9  and  C_10
REMARK    7  A    between atoms: C_17  and  N_18
REMARK                            x       y       z     vdW  Elec       q    Type
REMARK                         _______ _______ _______ _____ _____    ______ ____
ROOT
ATOM      1  C   UNL     1       5.470   5.586  16.677  0.00  0.00    +0.000 A 
ATOM      2  N   UNL     1       4.442   6.225  17.279  0.00  0.00    +0.000 NA
ATOM      3  N   UNL     1       3.517   5.258  17.474  0.00  0.00    +0.000 N 
ATOM      4  C   UNL     1       3.922   4.023  17.053  0.00  0.00    +0.000 A 
ATOM      5  C   UNL     1       5.171   4.202  16.528  0.00  0.00    +0.000 A 
ENDROOT
BRANCH   5   6
ATOM      6  N   UNL     1       5.941   3.230  16.018  0.00  0.00    +0.000 N 
ATOM      7  H   UNL     1       6.936   3.329  15.846  0.00  0.00    +0.000 HD
ATOM      8  H   UNL     1       5.550   2.322  15.770  0.00  0.00    +0.000 HD
ENDBRANCH   5   6
BRANCH   1   9
ATOM      9  C   UNL     1       6.731   6.243  16.319  0.00  0.00    +0.000 C 
ATOM     10  O   UNL     1       7.610   5.694  15.656  0.00  0.00    +0.000 OA
BRANCH   9  11
ATOM     11  O   UNL     1       6.867   7.484  16.877  0.00  0.00    +0.000 OA
BRANCH  11  13
ATOM     12  C   UNL     1       8.293   9.019  18.023  0.00  0.00    +0.000 C 
ATOM     13  C   UNL     1       7.833   7.573  17.930  0.00  0.00    +0.000 C 
ENDBRANCH  11  13
ENDBRANCH   9  11
ENDBRANCH   1   9
BRANCH   3  14
ATOM     14  C   UNL     1       2.280   5.569  18.181  0.00  0.00    +0.000 C 
BRANCH  14  15
ATOM     15  C   UNL     1       1.979   4.577  19.275  0.00  0.00    +0.000 A 
ATOM     16  C   UNL     1       2.554   4.718  20.547  0.00  0.00    +0.000 A 
ATOM     17  C   UNL     1       2.244   3.818  21.569  0.00  0.00    +0.000 A 
ATOM     18  C   UNL     1       1.359   2.768  21.332  0.00  0.00    +0.000 A 
ATOM     19  C   UNL     1       0.781   2.616  20.074  0.00  0.00    +0.000 A 
ATOM     20  C   UNL     1       1.085   3.516  19.054  0.00  0.00    +0.000 A 
ENDBRANCH  14  15
ENDBRANCH   3  14
TORSDOF 6
ENDMDL
MODEL 5
REMARK VINA RESULT:      -7.0      2.130      3.172
REMARK  Name = 
REMARK  7 active torsions:
REMARK  status: ('A' for Active; 'I' for Inactive)
REMARK    1  A    between atoms: C_1  and  C_2
REMARK    2  A    between atoms: C_2  and  O_3
REMARK    3  A    between atoms: O_3  and  C_4
REMARK    4  A    between atoms: C_4  and  C_6
REMARK    5  A    between atoms: N_8  and  C_9
REMARK    6  A    between atoms: C_9  and  C_10
REMARK    7  A    between atoms: C_17  and  N_18
REMARK                            x       y       z     vdW  Elec       q    Type
REMARK                         _______ _______ _______ _____ _____    ______ ____
ROOT
ATOM      1  C   UNL     1       5.861   5.054  16.982  0.00  0.00    +0.000 A 
ATOM      2  N   UNL     1       4.946   5.783  17.659  0.00  0.00    +0.000 NA
ATOM      3  N   UNL     1       3.778   5.138  17.440  0.00  0.00    +0.000 N 
ATOM      4  C   UNL     1       3.912   4.011  16.679  0.00  0.00    +0.000 A 
ATOM      5  C   UNL     1       5.239   3.934  16.363  0.00  0.00    +0.000 A 
ENDROOT
BRANCH   5   6
ATOM      6  N   UNL     1       5.804   2.957  15.639  0.00  0.00    +0.000 N 
ATOM      7  H   UNL     1       5.367   2.526  14.831  0.00  0.00    +0.000 HD
ATOM      8  H   UNL     1       6.726   2.590  15.874  0.00  0.00    +0.000 HD
ENDBRANCH   5   6
BRANCH   1   9
ATOM      9  C   UNL     1       7.296   5.358  16.980  0.00  0.00    +0.000 C 
ATOM     10  O   UNL     1       8.164   4.503  17.149  0.00  0.00    +0.000 OA
BRANCH   9  11
ATOM     11  O   UNL     1       7.560   6.696  16.869  0.00  0.00    +0.000 OA
BRANCH  11  13
ATOM     12  C   UNL     1       8.031   8.835  17.820  0.00  0.00    +0.000 C 
ATOM     13  C   UNL     1       7.952   7.340  18.086  0.00  0.00    +0.000 C 
ENDBRANCH  11  13
ENDBRANCH   9  11
ENDBRANCH   1   9
BRANCH   3  14
ATOM     14  C   UNL     1       2.558   5.606  18.087  0.00  0.00    +0.000 C 
BRANCH  14  15
ATOM     15  C   UNL     1       2.082   4.662  19.163  0.00  0.00    +0.000 A 
ATOM     16  C   UNL     1       1.196   3.617  18.857  0.00  0.00    +0.000 A 
ATOM     17  C   UNL     1       0.786   2.723  19.848  0.00  0.00    +0.000 A 
ATOM     18  C   UNL     1       1.253   2.862  21.154  0.00  0.00    +0.000 A 
ATOM     19  C   UNL     1       2.133   3.895  21.471  0.00  0.00    +0.000 A 
ATOM     20  C   UNL     1       2.548   4.787  20.482  0.00  0.00    +0.000 A 
ENDBRANCH  14  15
ENDBRANCH   3  14
TORSDOF 6
ENDMDL
MODEL 6
REMARK VINA RESULT:      -6.9      1.315      1.944
REMARK  Name = 
REMARK  7 active torsions:
REMARK  status: ('A' for Active; 'I' for Inactive)
REMARK    1  A    between atoms: C_1  and  C_2
REMARK    2  A    between atoms: C_2  and  O_3
REMARK    3  A    between atoms: O_3  and  C_4
REMARK    4  A    between atoms: C_4  and  C_6
REMARK    5  A    between atoms: N_8  and  C_9
REMARK    6  A    between atoms: C_9  and  C_10
REMARK    7  A    between atoms: C_17  and  N_18
REMARK                            x       y       z     vdW  Elec       q    Type
REMARK                         _______ _______ _______ _____ _____    ______ ____
ROOT
ATOM      1  C   UNL     1       6.151   5.755  17.543  0.00  0.00    +0.000 A 
ATOM      2  N   UNL     1       4.857   5.927  17.192  0.00  0.00    +0.000 NA
ATOM      3  N   UNL     1       4.169   5.705  18.335  0.00  0.00    +0.000 N 
ATOM      4  C   UNL     1       4.969   5.431  19.409  0.00  0.00    +0.000 A 
ATOM      5  C   UNL     1       6.249   5.449  18.930  0.00  0.00    +0.000 A 
ENDROOT
BRANCH   5   6
ATOM      6  N   UNL     1       7.352   5.247  19.667  0.00  0.00    +0.000 N 
ATOM      7  H   UNL     1       8.251   5.671  19.465  0.00  0.00    +0.000 HD
ATOM      8  H   UNL     1       7.337   4.640  20.485  0.00  0.00    +0.000 HD
ENDBRANCH   5   6
BRANCH   1   9
ATOM      9  C   UNL     1       7.272   5.949  16.618  0.00  0.00    +0.000 C 
ATOM     10  O   UNL     1       7.860   7.022  16.490  0.00  0.00    +0.000 OA
BRANCH   9  11
ATOM     11  O   UNL     1       7.529   4.847  15.849  0.00  0.00    +0.000 OA
BRANCH  11  13
ATOM     12  C   UNL     1       5.954   3.996  14.267  0.00  0.00    +0.000 C 
ATOM     13  C   UNL     1       7.116   4.953  14.482  0.00  0.00    +0.000 C 
ENDBRANCH  11  13
ENDBRANCH   9  11
ENDBRANCH   1   9
BRANCH   3  14
ATOM     14  C   UNL     1       2.721   5.877  18.356  0.00  0.00    +0.000 C 
BRANCH  14  15
ATOM     15  C   UNL     1       2.007   4.663  18.895  0.00  0.00    +0.000 A 
ATOM     16  C   UNL     1       1.623   4.599  20.243  0.00  0.00    +0.000 A 
ATOM     17  C   UNL     1       0.929   3.489  20.731  0.00  0.00    +0.000 A 
ATOM     18  C   UNL     1       0.613   2.432  19.880  0.00  0.00    +0.000 A 
ATOM     19  C   UNL     1       0.988   2.482  18.539  0.00  0.00    +0.000 A 
ATOM     20  C   UNL     1       1.677   3.592  18.049  0.00  0.00    +0.000 A 
ENDBRANCH  14  15
ENDBRANCH   3  14
TORSDOF 6
ENDMDL
MODEL 7
REMARK VINA RESULT:      -6.9      1.216      1.222
REMARK  Name = 
REMARK  7 active torsions:
REMARK  status: ('A' for Active; 'I' for Inactive)
REMARK    1  A    between atoms: C_1  and  C_2
REMARK    2  A    between atoms: C_2  and  O_3
REMARK    3  A    between atoms: O_3  and  C_4
REMARK    4  A    between atoms: C_4  and  C_6
REMARK    5  A    between atoms: N_8  and  C_9
REMARK    6  A    between atoms: C_9  and  C_10
REMARK    7  A    between atoms: C_17  and  N_18
REMARK                            x       y       z     vdW  Elec       q    Type
REMARK                         _______ _______ _______ _____ _____    ______ ____
ROOT
ATOM      1  C   UNL     1       5.932   5.429  15.901  0.00  0.00    +0.000 A 
ATOM      2  N   UNL     1       4.637   5.169  16.188  0.00  0.00    +0.000 NA
ATOM      3  N   UNL     1       4.381   5.922  17.281  0.00  0.00    +0.000 N 
ATOM      4  C   UNL     1       5.445   6.679  17.684  0.00  0.00    +0.000 A 
ATOM      5  C   UNL     1       6.460   6.378  16.821  0.00  0.00    +0.000 A 
ENDROOT
BRANCH   5   6
ATOM      6  N   UNL     1       7.686   6.922  16.851  0.00  0.00    +0.000 N 
ATOM      7  H   UNL     1       7.921   7.756  17.378  0.00  0.00    +0.000 HD
ATOM      8  H   UNL     1       8.459   6.511  16.329  0.00  0.00    +0.000 HD
ENDBRANCH   5   6
BRANCH   1   9
ATOM      9  C   UNL     1       6.633   4.861  14.744  0.00  0.00    +0.000 C 
ATOM     10  O   UNL     1       7.701   5.303  14.322  0.00  0.00    +0.000 OA
BRANCH   9  11
ATOM     11  O   UNL     1       5.932   3.859  14.132  0.00  0.00    +0.000 OA
BRANCH  11  13
ATOM     12  C   UNL     1       5.047   3.299  11.986  0.00  0.00    +0.000 C 
ATOM     13  C   UNL     1       6.311   3.595  12.777  0.00  0.00    +0.000 C 
ENDBRANCH  11  13
ENDBRANCH   9  11
ENDBRANCH   1   9
BRANCH   3  14
ATOM     14  C   UNL     1       3.035   5.953  17.842  0.00  0.00    +0.000 C 
BRANCH  14  15
ATOM     15  C   UNL     1       2.639   4.635  18.458  0.00  0.00    +0.000 A 
ATOM     16  C   UNL     1       1.491   3.957  18.020  0.00  0.00    +0.000 A 
ATOM     17  C   UNL     1       1.148   2.719  18.567  0.00  0.00    +0.000 A 
ATOM     18  C   UNL     1       1.944   2.144  19.555  0.00  0.00    +0.000 A 
ATOM     19  C   UNL     1       3.088   2.806  19.998  0.00  0.00    +0.000 A 
ATOM     20  C   UNL     1       3.435   4.041  19.451  0.00  0.00    +0.000 A 
ENDBRANCH  14  15
ENDBRANCH   3  14
TORSDOF 6
ENDMDL
MODEL 8
REMARK VINA RESULT:      -6.9      1.334      1.792
REMARK  Name = 
REMARK  7 active torsions:
REMARK  status: ('A' for Active; 'I' for Inactive)
REMARK    1  A    between atoms: C_1  and  C_2
REMARK    2  A    between atoms: C_2  and  O_3
REMARK    3  A    between atoms: O_3  and  C_4
REMARK    4  A    between atoms: C_4  and  C_6
REMARK    5  A    between atoms: N_8  and  C_9
REMARK    6  A    between atoms: C_9  and  C_10
REMARK    7  A    between atoms: C_17  and  N_18
REMARK                            x       y       z     vdW  Elec       q    Type
REMARK                         _______ _______ _______ _____ _____    ______ ____
ROOT
ATOM      1  C   UNL     1       5.587   4.971  16.069  0.00  0.00    +0.000 A 
ATOM      2  N   UNL     1       4.484   4.211  16.250  0.00  0.00    +0.000 NA
ATOM      3  N   UNL     1       3.764   4.885  17.176  0.00  0.00    +0.000 N 
ATOM      4  C   UNL     1       4.344   6.058  17.569  0.00  0.00    +0.000 A 
ATOM      5  C   UNL     1       5.521   6.138  16.881  0.00  0.00    +0.000 A 
ENDROOT
BRANCH   5   6
ATOM      6  N   UNL     1       6.394   7.153  16.960  0.00  0.00    +0.000 N 
ATOM      7  H   UNL     1       6.632   7.628  17.824  0.00  0.00    +0.000 HD
ATOM      8  H   UNL     1       6.871   7.505  16.131  0.00  0.00    +0.000 HD
ENDBRANCH   5   6
BRANCH   1   9
ATOM      9  C   UNL     1       6.640   4.647  15.101  0.00  0.00    +0.000 C 
ATOM     10  O   UNL     1       7.672   5.307  14.986  0.00  0.00    +0.000 OA
BRANCH   9  11
ATOM     11  O   UNL     1       6.314   3.602  14.283  0.00  0.00    +0.000 OA
BRANCH  11  13
ATOM     12  C   UNL     1       5.352   3.225  12.129  0.00  0.00    +0.000 C 
ATOM     13  C   UNL     1       6.520   3.839  12.886  0.00  0.00    +0.000 C 
ENDBRANCH  11  13
ENDBRANCH   9  11
ENDBRANCH   1   9
BRANCH   3  14
ATOM     14  C   UNL     1       2.450   4.392  17.573  0.00  0.00    +0.000 C 
BRANCH  14  15
ATOM     15  C   UNL     1       2.448   3.827  18.971  0.00  0.00    +0.000 A 
ATOM     16  C   UNL     1       1.354   4.037  19.826  0.00  0.00    +0.000 A 
ATOM     17  C   UNL     1       1.339   3.482  21.107  0.00  0.00    +0.000 A 
ATOM     18  C   UNL     1       2.414   2.713  21.549  0.00  0.00    +0.000 A 
ATOM     19  C   UNL     1       3.505   2.496  20.711  0.00  0.00    +0.000 A 
ATOM     20  C   UNL     1       3.521   3.046  19.429  0.00  0.00    +0.000 A 
ENDBRANCH  14  15
ENDBRANCH   3  14
TORSDOF 6
ENDMDL
MODEL 9
REMARK VINA RESULT:      -6.9      1.296      1.754
REMARK  Name = 
REMARK  7 active torsions:
REMARK  status: ('A' for Active; 'I' for Inactive)
REMARK    1  A    between atoms: C_1  and  C_2
REMARK    2  A    between atoms: C_2  and  O_3
REMARK    3  A    between atoms: O_3  and  C_4
REMARK    4  A    between atoms: C_4  and  C_6
REMARK    5  A    between atoms: N_8  and  C_9
REMARK    6  A    between atoms: C_9  and  C_10
REMARK    7  A    between atoms: C_17  and  N_18
REMARK                            x       y       z     vdW  Elec       q    Type
REMARK                         _______ _______ _______ _____ _____    ______ ____
ROOT
ATOM      1  C   UNL     1       5.691   5.233  17.013  0.00  0.00    +0.000 A 
ATOM      2  N   UNL     1       5.177   4.966  18.234  0.00  0.00    +0.000 NA
ATOM      3  N   UNL     1       4.239   5.923  18.417  0.00  0.00    +0.000 N 
ATOM      4  C   UNL     1       4.109   6.770  17.352  0.00  0.00    +0.000 A 
ATOM      5  C   UNL     1       5.035   6.357  16.436  0.00  0.00    +0.000 A 
ENDROOT
BRANCH   5   6
ATOM      6  N   UNL     1       5.226   6.909  15.229  0.00  0.00    +0.000 N 
ATOM      7  H   UNL     1       6.138   7.153  14.858  0.00  0.00    +0.000 HD
ATOM      8  H   UNL     1       4.442   7.116  14.612  0.00  0.00    +0.000 HD
ENDBRANCH   5   6
BRANCH   1   9
ATOM      9  C   UNL     1       6.720   4.408  16.372  0.00  0.00    +0.000 C 
ATOM     10  O   UNL     1       7.899   4.410  16.724  0.00  0.00    +0.000 OA
BRANCH   9  11
ATOM     11  O   UNL     1       6.254   3.715  15.289  0.00  0.00    +0.000 OA
BRANCH  11  13
ATOM     12  C   UNL     1       5.837   3.616  12.939  0.00  0.00    +0.000 C 
ATOM     13  C   UNL     1       6.753   4.162  14.023  0.00  0.00    +0.000 C 
ENDBRANCH  11  13
ENDBRANCH   9  11
ENDBRANCH   1   9
BRANCH   3  14
ATOM     14  C   UNL     1       3.411   5.908  19.617  0.00  0.00    +0.000 C 
BRANCH  14  15
ATOM     15  C   UNL     1       2.457   4.741  19.641  0.00  0.00    +0.000 A 
ATOM     16  C   UNL     1       1.946   4.209  18.447  0.00  0.00    +0.000 A 
ATOM     17  C   UNL     1       1.093   3.104  18.471  0.00  0.00    +0.000 A 
ATOM     18  C   UNL     1       0.738   2.520  19.685  0.00  0.00    +0.000 A 
ATOM     19  C   UNL     1       1.237   3.037  20.878  0.00  0.00    +0.000 A 
ATOM     20  C   UNL     1       2.094   4.138  20.857  0.00  0.00    +0.000 A 
ENDBRANCH  14  15
ENDBRANCH   3  14
TORSDOF 6
ENDMDL
