MODEL 1
REMARK VINA RESULT:      -8.1      0.000      0.000
REMARK  Name = 
REMARK  6 active torsions:
REMARK  status: ('A' for Active; 'I' for Inactive)
REMARK    1  A    between atoms: C_1  and  O_2
REMARK    2  A    between atoms: O_2  and  C_3
REMARK    3  A    between atoms: N_5  and  C_6
REMARK    4  A    between atoms: C_6  and  C_7
REMARK    5  A    between atoms: C_12  and  C_13
REMARK    6  A    between atoms: N_17  and  C_18
REMARK                            x       y       z     vdW  Elec       q    Type
REMARK                         _______ _______ _______ _____ _____    ______ ____
ROOT
ATOM      1  C   UNL     1       6.805   4.549  17.946  0.00  0.00    +0.000 A 
ATOM      2  C   UNL     1       6.768   4.883  16.652  0.00  0.00    +0.000 A 
ATOM      3  N   UNL     1       5.658   4.806  15.839  0.00  0.00    +0.000 N 
ATOM      4  N   UNL     1       4.452   4.351  16.283  0.00  0.00    +0.000 NA
ATOM      5  C   UNL     1       4.347   3.958  17.521  0.00  0.00    +0.000 A 
ATOM      6  C   UNL     1       5.509   4.063  18.501  0.00  0.00    +0.000 A 
ATOM      7  O   UNL     1       5.363   3.750  19.677  0.00  0.00    +0.000 OA
ENDROOT
BRANCH   5   8
ATOM      8  C   UNL     1       3.089   3.410  17.984  0.00  0.00    +0.000 A 
ATOM      9  C   UNL     1       2.540   2.156  17.765  0.00  0.00    +0.000 A 
ATOM     10  C   UNL     1       1.426   2.080  18.608  0.00  0.00    +0.000 A 
ATOM     11  N   UNL     1       1.266   3.187  19.328  0.00  0.00    +0.000 NA
ATOM     12  N   UNL     1       2.194   4.053  18.834  0.00  0.00    +0.000 N 
BRANCH  12  13
ATOM     13  C   UNL     1       2.098   5.433  19.167  0.00  0.00    +0.000 A 
ATOM     14  C   UNL     1       1.711   5.799  20.462  0.00  0.00    +0.000 A 
ATOM     15  C   UNL     1       1.638   7.149  20.812  0.00  0.00    +0.000 A 
ATOM     16  C   UNL     1       1.915   8.134  19.866  0.00  0.00    +0.000 A 
ATOM     17  C   UNL     1       2.261   7.775  18.565  0.00  0.00    +0.000 A 
ATOM     18  C   UNL     1       2.351   6.428  18.213  0.00  0.00    +0.000 A 
ENDBRANCH  12  13
ENDBRANCH   5   8
BRANCH   1  20
ATOM     19  C   UNL     1       8.116   5.953  19.341  0.00  0.00    +0.000 C 
ATOM     20  O   UNL     1       7.969   4.702  18.676  0.00  0.00    +0.000 OA
ENDBRANCH   1  20
BRANCH   3  21
ATOM     21  C   UNL     1       5.671   5.181  14.406  0.00  0.00    +0.000 C 
BRANCH  21  22
ATOM     22  C   UNL     1       5.983   4.034  13.442  0.00  0.00    +0.000 C 
ATOM     23  F   UNL     1       4.941   3.674  12.662  0.00  0.00    +0.000 F 
ATOM     24  F   UNL     1       7.018   4.345  12.625  0.00  0.00    +0.000 F 
ATOM     25  F   UNL     1       6.354   2.927  14.135  0.00  0.00    +0.000 F 
ENDBRANCH  21  22
ENDBRANCH   3  21
TORSDOF 5
ENDMDL
MODEL 2
REMARK VINA RESULT:      -8.0      0.183      1.224
REMARK  Name = 
REMARK  6 active torsions:
REMARK  status: ('A' for Active; 'I' for Inactive)
REMARK    1  A    between atoms: C_1  and  O_2
REMARK    2  A    between atoms: O_2  and  C_3
REMARK    3  A    between atoms: N_5  and  C_6
REMARK    4  A    between atoms: C_6  and  C_7
REMARK    5  A    between atoms: C_12  and  C_13
REMARK    6  A    between atoms: N_17  and  C_18
REMARK                            x       y       z     vdW  Elec       q    Type
REMARK                         _______ _______ _______ _____ _____    ______ ____
ROOT
ATOM      1  C   UNL     1       6.867   4.697  18.059  0.00  0.00    +0.000 A 
ATOM      2  C   UNL     1       6.853   5.022  16.763  0.00  0.00    +0.000 A 
ATOM      3  N   UNL     1       5.761   4.927  15.928  0.00  0.00    +0.000 N 
ATOM      4  N   UNL     1       4.551   4.461  16.350  0.00  0.00    +0.000 NA
ATOM      5  C   UNL     1       4.425   4.075  17.588  0.00  0.00    +0.000 A 
ATOM      6  C   UNL     1       5.566   4.200  18.590  0.00  0.00    +0.000 A 
ATOM      7  O   UNL     1       5.400   3.893  19.765  0.00  0.00    +0.000 OA
ENDROOT
BRANCH   5   8
ATOM      8  C   UNL     1       3.164   3.516  18.029  0.00  0.00    +0.000 A 
ATOM      9  C   UNL     1       2.639   2.251  17.817  0.00  0.00    +0.000 A 
ATOM     10  C   UNL     1       1.506   2.172  18.633  0.00  0.00    +0.000 A 
ATOM     11  N   UNL     1       1.313   3.288  19.332  0.00  0.00    +0.000 NA
ATOM     12  N   UNL     1       2.239   4.159  18.846  0.00  0.00    +0.000 N 
BRANCH  12  13
ATOM     13  C   UNL     1       2.115   5.543  19.154  0.00  0.00    +0.000 A 
ATOM     14  C   UNL     1       2.320   6.489  18.143  0.00  0.00    +0.000 A 
ATOM     15  C   UNL     1       2.176   7.850  18.422  0.00  0.00    +0.000 A 
ATOM     16  C   UNL     1       1.863   8.271  19.714  0.00  0.00    +0.000 A 
ATOM     17  C   UNL     1       1.698   7.335  20.732  0.00  0.00    +0.000 A 
ATOM     18  C   UNL     1       1.825   5.973  20.456  0.00  0.00    +0.000 A 
ENDBRANCH  12  13
ENDBRANCH   5   8
BRANCH   1  20
ATOM     19  C   UNL     1       8.272   6.201  19.243  0.00  0.00    +0.000 C 
ATOM     20  O   UNL     1       8.015   4.868  18.812  0.00  0.00    +0.000 OA
ENDBRANCH   1  20
BRANCH   3  21
ATOM     21  C   UNL     1       5.800   5.293  14.493  0.00  0.00    +0.000 C 
BRANCH  21  22
ATOM     22  C   UNL     1       5.979   4.115  13.531  0.00  0.00    +0.000 C 
ATOM     23  F   UNL     1       6.866   4.347  12.539  0.00  0.00    +0.000 F 
ATOM     24  F   UNL     1       6.381   3.001  14.188  0.00  0.00    +0.000 F 
ATOM     25  F   UNL     1       4.797   3.811  12.936  0.00  0.00    +0.000 F 
ENDBRANCH  21  22
ENDBRANCH   3  21
TORSDOF 5
ENDMDL
MODEL 3
REMARK VINA RESULT:      -7.9      2.945      3.628
REMARK  Name = 
REMARK  6 active torsions:
REMARK  status: ('A' for Active; 'I' for Inactive)
REMARK    1  A    between atoms: C_1  and  O_2
REMARK    2  A    between atoms: O_2  and  C_3
REMARK    3  A    between atoms: N_5  and  C_6
REMARK    4  A    between atoms: C_6  and  C_7
REMARK    5  A    between atoms: C_12  and  C_13
REMARK    6  A    between atoms: N_17  and  C_18
REMARK                            x       y       z     vdW  Elec       q    Type
REMARK                         _______ _______ _______ _____ _____    ______ ____
ROOT
ATOM      1  C   UNL     1       5.357   4.364  16.224  0.00  0.00    +0.000 A 
ATOM      2  C   UNL     1       6.382   5.062  16.725  0.00  0.00    +0.000 A 
ATOM      3  N   UNL     1       6.527   5.432  18.044  0.00  0.00    +0.000 N 
ATOM      4  N   UNL     1       5.601   5.130  18.998  0.00  0.00    +0.000 NA
ATOM      5  C   UNL     1       4.528   4.478  18.648  0.00  0.00    +0.000 A 
ATOM      6  C   UNL     1       4.318   3.982  17.223  0.00  0.00    +0.000 A 
ATOM      7  O   UNL     1       3.332   3.313  16.935  0.00  0.00    +0.000 OA
ENDROOT
BRANCH   5   8
ATOM      8  C   UNL     1       3.508   4.211  19.640  0.00  0.00    +0.000 A 
ATOM      9  C   UNL     1       3.215   3.032  20.307  0.00  0.00    +0.000 A 
ATOM     10  C   UNL     1       2.291   3.380  21.298  0.00  0.00    +0.000 A 
ATOM     11  N   UNL     1       2.011   4.681  21.288  0.00  0.00    +0.000 NA
ATOM     12  N   UNL     1       2.640   5.156  20.179  0.00  0.00    +0.000 N 
BRANCH  12  13
ATOM     13  C   UNL     1       2.301   6.451  19.693  0.00  0.00    +0.000 A 
ATOM     14  C   UNL     1       1.729   7.381  20.570  0.00  0.00    +0.000 A 
ATOM     15  C   UNL     1       1.416   8.664  20.116  0.00  0.00    +0.000 A 
ATOM     16  C   UNL     1       1.639   9.011  18.784  0.00  0.00    +0.000 A 
ATOM     17  C   UNL     1       2.172   8.075  17.899  0.00  0.00    +0.000 A 
ATOM     18  C   UNL     1       2.501   6.796  18.350  0.00  0.00    +0.000 A 
ENDBRANCH  12  13
ENDBRANCH   5   8
BRANCH   1  20
ATOM     19  C   UNL     1       6.508   4.341  14.148  0.00  0.00    +0.000 C 
ATOM     20  O   UNL     1       5.334   4.016  14.886  0.00  0.00    +0.000 OA
ENDBRANCH   1  20
BRANCH   3  21
ATOM     21  C   UNL     1       7.680   6.213  18.548  0.00  0.00    +0.000 C 
BRANCH  21  22
ATOM     22  C   UNL     1       7.813   7.620  17.960  0.00  0.00    +0.000 C 
ATOM     23  F   UNL     1       6.649   8.303  17.900  0.00  0.00    +0.000 F 
ATOM     24  F   UNL     1       8.690   8.370  18.669  0.00  0.00    +0.000 F 
ATOM     25  F   UNL     1       8.293   7.554  16.691  0.00  0.00    +0.000 F 
ENDBRANCH  21  22
ENDBRANCH   3  21
TORSDOF 5
ENDMDL
MODEL 4
REMARK VINA RESULT:      -7.8      2.915      3.741
REMARK  Name = 
REMARK  6 active torsions:
REMARK  status: ('A' for Active; 'I' for Inactive)
REMARK    1  A    between atoms: C_1  and  O_2
REMARK    2  A    between atoms: O_2  and  C_3
REMARK    3  A    between atoms: N_5  and  C_6
REMARK    4  A    between atoms: C_6  and  C_7
REMARK    5  A    between atoms: C_12  and  C_13
REMARK    6  A    between atoms: N_17  and  C_18
REMARK                            x       y       z     vdW  Elec       q    Type
REMARK                         _______ _______ _______ _____ _____    ______ ____
ROOT
ATOM      1  C   UNL     1       5.546   4.158  16.338  0.00  0.00    +0.000 A 
ATOM      2  C   UNL     1       6.525   4.926  16.825  0.00  0.00    +0.000 A 
ATOM      3  N   UNL     1       6.601   5.399  18.117  0.00  0.00    +0.000 N 
ATOM      4  N   UNL     1       5.645   5.137  19.053  0.00  0.00    +0.000 NA
ATOM      5  C   UNL     1       4.610   4.424  18.710  0.00  0.00    +0.000 A 
ATOM      6  C   UNL     1       4.477   3.815  17.320  0.00  0.00    +0.000 A 
ATOM      7  O   UNL     1       3.527   3.091  17.044  0.00  0.00    +0.000 OA
ENDROOT
BRANCH   5   8
ATOM      8  C   UNL     1       3.556   4.196  19.677  0.00  0.00    +0.000 A 
ATOM      9  C   UNL     1       3.235   3.042  20.373  0.00  0.00    +0.000 A 
ATOM     10  C   UNL     1       2.281   3.428  21.322  0.00  0.00    +0.000 A 
ATOM     11  N   UNL     1       2.012   4.729  21.260  0.00  0.00    +0.000 NA
ATOM     12  N   UNL     1       2.679   5.164  20.156  0.00  0.00    +0.000 N 
BRANCH  12  13
ATOM     13  C   UNL     1       2.365   6.444  19.618  0.00  0.00    +0.000 A 
ATOM     14  C   UNL     1       2.624   6.699  18.266  0.00  0.00    +0.000 A 
ATOM     15  C   UNL     1       2.297   7.940  17.716  0.00  0.00    +0.000 A 
ATOM     16  C   UNL     1       1.747   8.939  18.518  0.00  0.00    +0.000 A 
ATOM     17  C   UNL     1       1.525   8.703  19.873  0.00  0.00    +0.000 A 
ATOM     18  C   UNL     1       1.835   7.459  20.425  0.00  0.00    +0.000 A 
ENDBRANCH  12  13
ENDBRANCH   5   8
BRANCH   1  20
ATOM     19  C   UNL     1       6.549   4.353  14.195  0.00  0.00    +0.000 C 
ATOM     20  O   UNL     1       5.592   3.709  15.031  0.00  0.00    +0.000 OA
ENDBRANCH   1  20
BRANCH   3  21
ATOM     21  C   UNL     1       7.706   6.256  18.607  0.00  0.00    +0.000 C 
BRANCH  21  22
ATOM     22  C   UNL     1       7.800   7.631  17.940  0.00  0.00    +0.000 C 
ATOM     23  F   UNL     1       8.582   8.511  18.602  0.00  0.00    +0.000 F 
ATOM     24  F   UNL     1       8.274   7.533  16.675  0.00  0.00    +0.000 F 
ATOM     25  F   UNL     1       6.567   8.194  17.850  0.00  0.00    +0.000 F 
ENDBRANCH  21  22
ENDBRANCH   3  21
TORSDOF 5
ENDMDL
MODEL 5
REMARK VINA RESULT:      -7.5      3.648      6.297
REMARK  Name = 
REMARK  6 active torsions:
REMARK  status: ('A' for Active; 'I' for Inactive)
REMARK    1  A    between atoms: C_1  and  O_2
REMARK    2  A    between atoms: O_2  and  C_3
REMARK    3  A    between atoms: N_5  and  C_6
REMARK    4  A    between atoms: C_6  and  C_7
REMARK    5  A    between atoms: C_12  and  C_13
REMARK    6  A    between atoms: N_17  and  C_18
REMARK                            x       y       z     vdW  Elec       q    Type
REMARK                         _______ _______ _______ _____ _____    ______ ____
ROOT
ATOM      1  C   UNL     1       2.418   7.274  19.036  0.00  0.00    +0.000 A 
ATOM      2  C   UNL     1       2.189   6.407  20.027  0.00  0.00    +0.000 A 
ATOM      3  N   UNL     1       2.745   5.150  20.131  0.00  0.00    +0.000 N 
ATOM      4  N   UNL     1       3.596   4.642  19.195  0.00  0.00    +0.000 NA
ATOM      5  C   UNL     1       3.885   5.367  18.152  0.00  0.00    +0.000 A 
ATOM      6  C   UNL     1       3.360   6.788  17.988  0.00  0.00    +0.000 A 
ATOM      7  O   UNL     1       3.703   7.472  17.031  0.00  0.00    +0.000 OA
ENDROOT
BRANCH   5   8
ATOM      8  C   UNL     1       4.735   4.812  17.119  0.00  0.00    +0.000 A 
ATOM      9  C   UNL     1       4.487   3.769  16.241  0.00  0.00    +0.000 A 
ATOM     10  C   UNL     1       5.544   3.788  15.324  0.00  0.00    +0.000 A 
ATOM     11  N   UNL     1       6.405   4.771  15.574  0.00  0.00    +0.000 NA
ATOM     12  N   UNL     1       5.988   5.297  16.758  0.00  0.00    +0.000 N 
BRANCH  12  13
ATOM     13  C   UNL     1       6.859   6.167  17.473  0.00  0.00    +0.000 A 
ATOM     14  C   UNL     1       7.085   7.460  16.986  0.00  0.00    +0.000 A 
ATOM     15  C   UNL     1       7.915   8.334  17.690  0.00  0.00    +0.000 A 
ATOM     16  C   UNL     1       8.549   7.912  18.858  0.00  0.00    +0.000 A 
ATOM     17  C   UNL     1       8.359   6.613  19.325  0.00  0.00    +0.000 A 
ATOM     18  C   UNL     1       7.517   5.739  18.634  0.00  0.00    +0.000 A 
ENDBRANCH  12  13
ENDBRANCH   5   8
BRANCH   1  20
ATOM     19  C   UNL     1       1.194   8.889  20.274  0.00  0.00    +0.000 C 
ATOM     20  O   UNL     1       1.833   8.527  19.053  0.00  0.00    +0.000 OA
ENDBRANCH   1  20
BRANCH   3  21
ATOM     21  C   UNL     1       2.452   4.221  21.248  0.00  0.00    +0.000 C 
BRANCH  21  22
ATOM     22  C   UNL     1       1.459   3.104  20.915  0.00  0.00    +0.000 C 
ATOM     23  F   UNL     1       1.984   2.108  20.169  0.00  0.00    +0.000 F 
ATOM     24  F   UNL     1       0.949   2.548  22.040  0.00  0.00    +0.000 F 
ATOM     25  F   UNL     1       0.408   3.605  20.217  0.00  0.00    +0.000 F 
ENDBRANCH  21  22
ENDBRANCH   3  21
TORSDOF 5
ENDMDL
MODEL 6
REMARK VINA RESULT:      -7.5      3.662      6.214
REMARK  Name = 
REMARK  6 active torsions:
REMARK  status: ('A' for Active; 'I' for Inactive)
REMARK    1  A    between atoms: C_1  and  O_2
REMARK    2  A    between atoms: O_2  and  C_3
REMARK    3  A    between atoms: N_5  and  C_6
REMARK    4  A    between atoms: C_6  and  C_7
REMARK    5  A    between atoms: C_12  and  C_13
REMARK    6  A    between atoms: N_17  and  C_18
REMARK                            x       y       z     vdW  Elec       q    Type
REMARK                         _______ _______ _______ _____ _____    ______ ____
ROOT
ATOM      1  C   UNL     1       2.405   7.248  19.085  0.00  0.00    +0.000 A 
ATOM      2  C   UNL     1       2.216   6.354  20.060  0.00  0.00    +0.000 A 
ATOM      3  N   UNL     1       2.801   5.108  20.125  0.00  0.00    +0.000 N 
ATOM      4  N   UNL     1       3.645   4.642  19.161  0.00  0.00    +0.000 NA
ATOM      5  C   UNL     1       3.898   5.396  18.130  0.00  0.00    +0.000 A 
ATOM      6  C   UNL     1       3.338   6.808  18.009  0.00  0.00    +0.000 A 
ATOM      7  O   UNL     1       3.646   7.521  17.061  0.00  0.00    +0.000 OA
ENDROOT
BRANCH   5   8
ATOM      8  C   UNL     1       4.740   4.884  17.069  0.00  0.00    +0.000 A 
ATOM      9  C   UNL     1       4.493   3.864  16.164  0.00  0.00    +0.000 A 
ATOM     10  C   UNL     1       5.536   3.926  15.233  0.00  0.00    +0.000 A 
ATOM     11  N   UNL     1       6.387   4.913  15.500  0.00  0.00    +0.000 NA
ATOM     12  N   UNL     1       5.981   5.398  16.705  0.00  0.00    +0.000 N 
BRANCH  12  13
ATOM     13  C   UNL     1       6.850   6.258  17.433  0.00  0.00    +0.000 A 
ATOM     14  C   UNL     1       7.478   5.777  18.589  0.00  0.00    +0.000 A 
ATOM     15  C   UNL     1       8.354   6.600  19.299  0.00  0.00    +0.000 A 
ATOM     16  C   UNL     1       8.579   7.911  18.882  0.00  0.00    +0.000 A 
ATOM     17  C   UNL     1       7.926   8.406  17.755  0.00  0.00    +0.000 A 
ATOM     18  C   UNL     1       7.061   7.584  17.031  0.00  0.00    +0.000 A 
ENDBRANCH  12  13
ENDBRANCH   5   8
BRANCH   1  20
ATOM     19  C   UNL     1       1.183   8.813  20.388  0.00  0.00    +0.000 C 
ATOM     20  O   UNL     1       1.792   8.487  19.142  0.00  0.00    +0.000 OA
ENDBRANCH   1  20
BRANCH   3  21
ATOM     21  C   UNL     1       2.551   4.148  21.225  0.00  0.00    +0.000 C 
BRANCH  21  22
ATOM     22  C   UNL     1       1.484   3.091  20.930  0.00  0.00    +0.000 C 
ATOM     23  F   UNL     1       0.413   3.566  20.256  0.00  0.00    +0.000 F 
ATOM     24  F   UNL     1       1.995   2.062  20.213  0.00  0.00    +0.000 F 
ATOM     25  F   UNL     1       1.014   2.563  22.089  0.00  0.00    +0.000 F 
ENDBRANCH  21  22
ENDBRANCH   3  21
TORSDOF 5
ENDMDL
MODEL 7
REMARK VINA RESULT:      -7.5      3.774      6.251
REMARK  Name = 
REMARK  6 active torsions:
REMARK  status: ('A' for Active; 'I' for Inactive)
REMARK    1  A    between atoms: C_1  and  O_2
REMARK    2  A    between atoms: O_2  and  C_3
REMARK    3  A    between atoms: N_5  and  C_6
REMARK    4  A    between atoms: C_6  and  C_7
REMARK    5  A    between atoms: C_12  and  C_13
REMARK    6  A    between atoms: N_17  and  C_18
REMARK                            x       y       z     vdW  Elec       q    Type
REMARK                         _______ _______ _______ _____ _____    ______ ____
ROOT
ATOM      1  C   UNL     1       2.610   6.473  18.460  0.00  0.00    +0.000 A 
ATOM      2  C   UNL     1       2.348   5.363  19.156  0.00  0.00    +0.000 A 
ATOM      3  N   UNL     1       2.994   4.155  19.006  0.00  0.00    +0.000 N 
ATOM      4  N   UNL     1       3.986   3.961  18.091  0.00  0.00    +0.000 NA
ATOM      5  C   UNL     1       4.327   4.951  17.316  0.00  0.00    +0.000 A 
ATOM      6  C   UNL     1       3.703   6.334  17.455  0.00  0.00    +0.000 A 
ATOM      7  O   UNL     1       4.090   7.266  16.759  0.00  0.00    +0.000 OA
ENDROOT
BRANCH   5   8
ATOM      8  C   UNL     1       5.332   4.736  16.295  0.00  0.00    +0.000 A 
ATOM      9  C   UNL     1       5.306   3.890  15.198  0.00  0.00    +0.000 A 
ATOM     10  C   UNL     1       6.427   4.231  14.433  0.00  0.00    +0.000 A 
ATOM     11  N   UNL     1       7.121   5.227  14.979  0.00  0.00    +0.000 NA
ATOM     12  N   UNL     1       6.534   5.429  16.190  0.00  0.00    +0.000 N 
BRANCH  12  13
ATOM     13  C   UNL     1       7.213   6.213  17.165  0.00  0.00    +0.000 A 
ATOM     14  C   UNL     1       7.607   5.617  18.369  0.00  0.00    +0.000 A 
ATOM     15  C   UNL     1       8.297   6.366  19.324  0.00  0.00    +0.000 A 
ATOM     16  C   UNL     1       8.563   7.716  19.098  0.00  0.00    +0.000 A 
ATOM     17  C   UNL     1       8.137   8.323  17.919  0.00  0.00    +0.000 A 
ATOM     18  C   UNL     1       7.461   7.576  16.953  0.00  0.00    +0.000 A 
ENDBRANCH  12  13
ENDBRANCH   5   8
BRANCH   1  20
ATOM     19  C   UNL     1       1.776   7.974  20.099  0.00  0.00    +0.000 C 
ATOM     20  O   UNL     1       1.921   7.643  18.721  0.00  0.00    +0.000 OA
ENDBRANCH   1  20
BRANCH   3  21
ATOM     21  C   UNL     1       2.660   2.949  19.799  0.00  0.00    +0.000 C 
BRANCH  21  22
ATOM     22  C   UNL     1       1.821   3.212  21.052  0.00  0.00    +0.000 C 
ATOM     23  F   UNL     1       2.336   4.157  21.869  0.00  0.00    +0.000 F 
ATOM     24  F   UNL     1       0.561   3.592  20.731  0.00  0.00    +0.000 F 
ATOM     25  F   UNL     1       1.709   2.077  21.788  0.00  0.00    +0.000 F 
ENDBRANCH  21  22
ENDBRANCH   3  21
TORSDOF 5
ENDMDL
MODEL 8
REMARK VINA RESULT:      -7.5      1.124      1.254
REMARK  Name = 
REMARK  6 active torsions:
REMARK  status: ('A' for Active; 'I' for Inactive)
REMARK    1  A    between atoms: C_1  and  O_2
REMARK    2  A    between atoms: O_2  and  C_3
REMARK    3  A    between atoms: N_5  and  C_6
REMARK    4  A    between atoms: C_6  and  C_7
REMARK    5  A    between atoms: C_12  and  C_13
REMARK    6  A    between atoms: N_17  and  C_18
REMARK                            x       y       z     vdW  Elec       q    Type
REMARK                         _______ _______ _______ _____ _____    ______ ____
ROOT
ATOM      1  C   UNL     1       6.985   5.230  18.214  0.00  0.00    +0.000 A 
ATOM      2  C   UNL     1       7.084   4.750  16.971  0.00  0.00    +0.000 A 
ATOM      3  N   UNL     1       6.130   3.989  16.330  0.00  0.00    +0.000 N 
ATOM      4  N   UNL     1       4.960   3.623  16.927  0.00  0.00    +0.000 NA
ATOM      5  C   UNL     1       4.740   3.994  18.156  0.00  0.00    +0.000 A 
ATOM      6  C   UNL     1       5.716   4.884  18.916  0.00  0.00    +0.000 A 
ATOM      7  O   UNL     1       5.452   5.274  20.047  0.00  0.00    +0.000 OA
ENDROOT
BRANCH   5   8
ATOM      8  C   UNL     1       3.531   3.554  18.821  0.00  0.00    +0.000 A 
ATOM      9  C   UNL     1       3.091   2.267  19.088  0.00  0.00    +0.000 A 
ATOM     10  C   UNL     1       1.984   2.415  19.931  0.00  0.00    +0.000 A 
ATOM     11  N   UNL     1       1.729   3.692  20.204  0.00  0.00    +0.000 NA
ATOM     12  N   UNL     1       2.582   4.388  19.404  0.00  0.00    +0.000 N 
BRANCH  12  13
ATOM     13  C   UNL     1       2.369   5.783  19.214  0.00  0.00    +0.000 A 
ATOM     14  C   UNL     1       1.999   6.573  20.310  0.00  0.00    +0.000 A 
ATOM     15  C   UNL     1       1.812   7.947  20.146  0.00  0.00    +0.000 A 
ATOM     16  C   UNL     1       1.958   8.530  18.887  0.00  0.00    +0.000 A 
ATOM     17  C   UNL     1       2.287   7.740  17.787  0.00  0.00    +0.000 A 
ATOM     18  C   UNL     1       2.490   6.369  17.948  0.00  0.00    +0.000 A 
ENDBRANCH  12  13
ENDBRANCH   5   8
BRANCH   1  20
ATOM     19  C   UNL     1       8.022   7.365  18.284  0.00  0.00    +0.000 C 
ATOM     20  O   UNL     1       7.991   6.017  18.744  0.00  0.00    +0.000 OA
ENDBRANCH   1  20
BRANCH   3  21
ATOM     21  C   UNL     1       6.292   3.473  14.951  0.00  0.00    +0.000 C 
BRANCH  21  22
ATOM     22  C   UNL     1       5.856   4.439  13.846  0.00  0.00    +0.000 C 
ATOM     23  F   UNL     1       4.981   3.906  12.965  0.00  0.00    +0.000 F 
ATOM     24  F   UNL     1       5.289   5.555  14.362  0.00  0.00    +0.000 F 
ATOM     25  F   UNL     1       6.934   4.847  13.128  0.00  0.00    +0.000 F 
ENDBRANCH  21  22
ENDBRANCH   3  21
TORSDOF 5
ENDMDL
MODEL 9
REMARK VINA RESULT:      -7.5      1.154      1.394
REMARK  Name = 
REMARK  6 active torsions:
REMARK  status: ('A' for Active; 'I' for Inactive)
REMARK    1  A    between atoms: C_1  and  O_2
REMARK    2  A    between atoms: O_2  and  C_3
REMARK    3  A    between atoms: N_5  and  C_6
REMARK    4  A    between atoms: C_6  and  C_7
REMARK    5  A    between atoms: C_12  and  C_13
REMARK    6  A    between atoms: N_17  and  C_18
REMARK                            x       y       z     vdW  Elec       q    Type
REMARK                         _______ _______ _______ _____ _____    ______ ____
ROOT
ATOM      1  C   UNL     1       6.939   6.056  17.828  0.00  0.00    +0.000 A 
ATOM      2  C   UNL     1       6.727   5.985  16.510  0.00  0.00    +0.000 A 
ATOM      3  N   UNL     1       5.638   5.392  15.908  0.00  0.00    +0.000 N 
ATOM      4  N   UNL     1       4.647   4.783  16.619  0.00  0.00    +0.000 NA
ATOM      5  C   UNL     1       4.738   4.746  17.918  0.00  0.00    +0.000 A 
ATOM      6  C   UNL     1       5.878   5.427  18.665  0.00  0.00    +0.000 A 
ATOM      7  O   UNL     1       5.903   5.436  19.890  0.00  0.00    +0.000 OA
ENDROOT
BRANCH   5   8
ATOM      8  C   UNL     1       3.725   4.044  18.678  0.00  0.00    +0.000 A 
ATOM      9  C   UNL     1       3.509   2.681  18.810  0.00  0.00    +0.000 A 
ATOM     10  C   UNL     1       2.547   2.548  19.818  0.00  0.00    +0.000 A 
ATOM     11  N   UNL     1       2.175   3.725  20.314  0.00  0.00    +0.000 NA
ATOM     12  N   UNL     1       2.783   4.641  19.512  0.00  0.00    +0.000 N 
BRANCH  12  13
ATOM     13  C   UNL     1       2.359   5.999  19.567  0.00  0.00    +0.000 A 
ATOM     14  C   UNL     1       1.767   6.483  20.740  0.00  0.00    +0.000 A 
ATOM     15  C   UNL     1       1.370   7.819  20.820  0.00  0.00    +0.000 A 
ATOM     16  C   UNL     1       1.529   8.665  19.723  0.00  0.00    +0.000 A 
ATOM     17  C   UNL     1       2.082   8.176  18.540  0.00  0.00    +0.000 A 
ATOM     18  C   UNL     1       2.495   6.846  18.459  0.00  0.00    +0.000 A 
ENDBRANCH  12  13
ENDBRANCH   5   8
BRANCH   1  20
ATOM     19  C   UNL     1       8.107   8.110  18.063  0.00  0.00    +0.000 C 
ATOM     20  O   UNL     1       8.052   6.710  18.323  0.00  0.00    +0.000 OA
ENDBRANCH   1  20
BRANCH   3  21
ATOM     21  C   UNL     1       5.452   5.332  14.440  0.00  0.00    +0.000 C 
BRANCH  21  22
ATOM     22  C   UNL     1       6.202   4.195  13.740  0.00  0.00    +0.000 C 
ATOM     23  F   UNL     1       7.320   4.591  13.094  0.00  0.00    +0.000 F 
ATOM     24  F   UNL     1       6.558   3.227  14.618  0.00  0.00    +0.000 F 
ATOM     25  F   UNL     1       5.402   3.606  12.815  0.00  0.00    +0.000 F 
ENDBRANCH  21  22
ENDBRANCH   3  21
TORSDOF 5
ENDMDL
