MODEL 1
REMARK VINA RESULT:      -7.7      0.000      0.000
REMARK  Name = 
REMARK  5 active torsions:
REMARK  status: ('A' for Active; 'I' for Inactive)
REMARK    1  A    between atoms: C_1  and  C_2
REMARK    2  A    between atoms: C_5  and  N_6
REMARK    3  A    between atoms: C_11  and  C_12
REMARK    4  A    between atoms: C_17  and  C_18
REMARK    5  A    between atoms: C_18  and  O_20
REMARK                            x       y       z     vdW  Elec       q    Type
REMARK                         _______ _______ _______ _____ _____    ______ ____
ROOT
ATOM      1  C   UNL     1       5.081   3.404  12.306  0.00  0.00    +0.000 C 
ATOM      2  C   UNL     1       5.636   4.051  13.539  0.00  0.00    +0.000 A 
ATOM      3  C   UNL     1       6.974   4.418  13.631  0.00  0.00    +0.000 A 
ATOM      4  C   UNL     1       7.469   4.963  14.817  0.00  0.00    +0.000 A 
ATOM      5  C   UNL     1       6.653   5.084  15.965  0.00  0.00    +0.000 A 
ATOM      6  C   UNL     1       5.299   4.687  15.889  0.00  0.00    +0.000 A 
ATOM      7  C   UNL     1       4.804   4.258  14.644  0.00  0.00    +0.000 A 
ENDROOT
BRANCH   6   8
ATOM      8  C   UNL     1       4.301   4.890  16.977  0.00  0.00    +0.000 C 
ATOM      9  O   UNL     1       3.814   6.013  17.107  0.00  0.00    +0.000 OA
ATOM     10  N   UNL     1       3.878   3.832  17.783  0.00  0.00    +0.000 N 
ATOM     11  C   UNL     1       4.273   2.431  17.823  0.00  0.00    +0.000 C 
ATOM     12  C   UNL     1       2.956   1.756  18.179  0.00  0.00    +0.000 C 
ATOM     13  C   UNL     1       2.376   2.707  19.231  0.00  0.00    +0.000 C 
ATOM     14  C   UNL     1       2.923   4.085  18.858  0.00  0.00    +0.000 C 
BRANCH  13  15
ATOM     15  C   UNL     1       0.871   2.669  19.309  0.00  0.00    +0.000 C 
ATOM     16  O   UNL     1       0.176   2.168  18.436  0.00  0.00    +0.000 OA
BRANCH  15  17
ATOM     17  O   UNL     1       0.331   3.255  20.398  0.00  0.00    +0.000 OA
ATOM     18  H   UNL     1       0.094   4.197  20.296  0.00  0.00    +0.000 HD
ENDBRANCH  15  17
ENDBRANCH  13  15
ENDBRANCH   6   8
BRANCH   5  19
ATOM     19  N   UNL     1       7.274   5.596  17.143  0.00  0.00    +0.000 N 
ATOM     20  C   UNL     1       7.514   6.905  17.494  0.00  0.00    +0.000 A 
ATOM     21  C   UNL     1       8.074   6.872  18.751  0.00  0.00    +0.000 A 
ATOM     22  N   UNL     1       8.164   5.589  19.210  0.00  0.00    +0.000 NA
ATOM     23  C   UNL     1       7.685   4.850  18.233  0.00  0.00    +0.000 A 
ENDBRANCH   5  19
TORSDOF 4
ENDMDL
MODEL 2
REMARK VINA RESULT:      -7.6      3.006      6.436
REMARK  Name = 
REMARK  5 active torsions:
REMARK  status: ('A' for Active; 'I' for Inactive)
REMARK    1  A    between atoms: C_1  and  C_2
REMARK    2  A    between atoms: C_5  and  N_6
REMARK    3  A    between atoms: C_11  and  C_12
REMARK    4  A    between atoms: C_17  and  C_18
REMARK    5  A    between atoms: C_18  and  O_20
REMARK                            x       y       z     vdW  Elec       q    Type
REMARK                         _______ _______ _______ _____ _____    ______ ____
ROOT
ATOM      1  C   UNL     1       1.940   9.581  18.295  0.00  0.00    +0.000 C 
ATOM      2  C   UNL     1       2.034   8.182  18.826  0.00  0.00    +0.000 A 
ATOM      3  C   UNL     1       1.617   7.861  20.113  0.00  0.00    +0.000 A 
ATOM      4  C   UNL     1       1.776   6.560  20.594  0.00  0.00    +0.000 A 
ATOM      5  C   UNL     1       2.425   5.568  19.825  0.00  0.00    +0.000 A 
ATOM      6  C   UNL     1       2.877   5.893  18.526  0.00  0.00    +0.000 A 
ATOM      7  C   UNL     1       2.590   7.177  18.028  0.00  0.00    +0.000 A 
ENDROOT
BRANCH   6   8
ATOM      8  C   UNL     1       3.447   4.910  17.563  0.00  0.00    +0.000 C 
ATOM      9  O   UNL     1       2.671   4.123  17.018  0.00  0.00    +0.000 OA
ATOM     10  N   UNL     1       4.804   4.915  17.234  0.00  0.00    +0.000 N 
ATOM     11  C   UNL     1       5.908   5.735  17.710  0.00  0.00    +0.000 C 
ATOM     12  C   UNL     1       6.751   5.867  16.450  0.00  0.00    +0.000 C 
ATOM     13  C   UNL     1       6.679   4.455  15.860  0.00  0.00    +0.000 C 
ATOM     14  C   UNL     1       5.323   3.910  16.311  0.00  0.00    +0.000 C 
BRANCH  13  15
ATOM     15  C   UNL     1       6.861   4.421  14.364  0.00  0.00    +0.000 C 
ATOM     16  O   UNL     1       7.389   5.331  13.741  0.00  0.00    +0.000 OA
BRANCH  15  17
ATOM     17  O   UNL     1       6.376   3.325  13.745  0.00  0.00    +0.000 OA
ATOM     18  H   UNL     1       5.533   3.448  13.267  0.00  0.00    +0.000 HD
ENDBRANCH  15  17
ENDBRANCH  13  15
ENDBRANCH   6   8
BRANCH   5  19
ATOM     19  N   UNL     1       2.589   4.288  20.434  0.00  0.00    +0.000 N 
ATOM     20  C   UNL     1       3.633   3.400  20.310  0.00  0.00    +0.000 A 
ATOM     21  C   UNL     1       3.346   2.346  21.148  0.00  0.00    +0.000 A 
ATOM     22  N   UNL     1       2.173   2.561  21.815  0.00  0.00    +0.000 NA
ATOM     23  C   UNL     1       1.742   3.720  21.369  0.00  0.00    +0.000 A 
ENDBRANCH   5  19
TORSDOF 4
ENDMDL
MODEL 3
REMARK VINA RESULT:      -7.4      3.003      6.468
REMARK  Name = 
REMARK  5 active torsions:
REMARK  status: ('A' for Active; 'I' for Inactive)
REMARK    1  A    between atoms: C_1  and  C_2
REMARK    2  A    between atoms: C_5  and  N_6
REMARK    3  A    between atoms: C_11  and  C_12
REMARK    4  A    between atoms: C_17  and  C_18
REMARK    5  A    between atoms: C_18  and  O_20
REMARK                            x       y       z     vdW  Elec       q    Type
REMARK                         _______ _______ _______ _____ _____    ______ ____
ROOT
ATOM      1  C   UNL     1       1.912   9.774  18.267  0.00  0.00    +0.000 C 
ATOM      2  C   UNL     1       1.976   8.378  18.810  0.00  0.00    +0.000 A 
ATOM      3  C   UNL     1       1.513   8.069  20.084  0.00  0.00    +0.000 A 
ATOM      4  C   UNL     1       1.645   6.770  20.579  0.00  0.00    +0.000 A 
ATOM      5  C   UNL     1       2.312   5.767  19.839  0.00  0.00    +0.000 A 
ATOM      6  C   UNL     1       2.812   6.081  18.556  0.00  0.00    +0.000 A 
ATOM      7  C   UNL     1       2.553   7.363  18.039  0.00  0.00    +0.000 A 
ENDROOT
BRANCH   6   8
ATOM      8  C   UNL     1       3.409   5.087  17.620  0.00  0.00    +0.000 C 
ATOM      9  O   UNL     1       2.648   4.299  17.056  0.00  0.00    +0.000 OA
ATOM     10  N   UNL     1       4.776   5.083  17.335  0.00  0.00    +0.000 N 
ATOM     11  C   UNL     1       5.868   5.903  17.840  0.00  0.00    +0.000 C 
ATOM     12  C   UNL     1       6.752   6.020  16.606  0.00  0.00    +0.000 C 
ATOM     13  C   UNL     1       6.692   4.604  16.026  0.00  0.00    +0.000 C 
ATOM     14  C   UNL     1       5.320   4.069  16.438  0.00  0.00    +0.000 C 
BRANCH  13  15
ATOM     15  C   UNL     1       6.923   4.555  14.537  0.00  0.00    +0.000 C 
ATOM     16  O   UNL     1       6.370   3.744  13.808  0.00  0.00    +0.000 OA
BRANCH  15  17
ATOM     17  O   UNL     1       7.809   5.453  14.058  0.00  0.00    +0.000 OA
ATOM     18  H   UNL     1       7.441   6.328  13.829  0.00  0.00    +0.000 HD
ENDBRANCH  15  17
ENDBRANCH  13  15
ENDBRANCH   6   8
BRANCH   5  19
ATOM     19  N   UNL     1       2.446   4.491  20.463  0.00  0.00    +0.000 N 
ATOM     20  C   UNL     1       1.512   3.777  21.178  0.00  0.00    +0.000 A 
ATOM     21  C   UNL     1       2.109   2.583  21.511  0.00  0.00    +0.000 A 
ATOM     22  N   UNL     1       3.375   2.514  21.000  0.00  0.00    +0.000 NA
ATOM     23  C   UNL     1       3.551   3.662  20.386  0.00  0.00    +0.000 A 
ENDBRANCH   5  19
TORSDOF 4
ENDMDL
MODEL 4
REMARK VINA RESULT:      -6.7      1.032      1.105
REMARK  Name = 
REMARK  5 active torsions:
REMARK  status: ('A' for Active; 'I' for Inactive)
REMARK    1  A    between atoms: C_1  and  C_2
REMARK    2  A    between atoms: C_5  and  N_6
REMARK    3  A    between atoms: C_11  and  C_12
REMARK    4  A    between atoms: C_17  and  C_18
REMARK    5  A    between atoms: C_18  and  O_20
REMARK                            x       y       z     vdW  Elec       q    Type
REMARK                         _______ _______ _______ _____ _____    ______ ____
ROOT
ATOM      1  C   UNL     1       4.985   3.210  12.978  0.00  0.00    +0.000 C 
ATOM      2  C   UNL     1       5.576   4.038  14.080  0.00  0.00    +0.000 A 
ATOM      3  C   UNL     1       6.904   4.449  14.051  0.00  0.00    +0.000 A 
ATOM      4  C   UNL     1       7.435   5.167  15.124  0.00  0.00    +0.000 A 
ATOM      5  C   UNL     1       6.671   5.427  16.284  0.00  0.00    +0.000 A 
ATOM      6  C   UNL     1       5.329   4.988  16.333  0.00  0.00    +0.000 A 
ATOM      7  C   UNL     1       4.791   4.376  15.186  0.00  0.00    +0.000 A 
ENDROOT
BRANCH   6   8
ATOM      8  C   UNL     1       4.377   5.315  17.431  0.00  0.00    +0.000 C 
ATOM      9  O   UNL     1       3.670   6.315  17.301  0.00  0.00    +0.000 OA
ATOM     10  N   UNL     1       4.237   4.485  18.545  0.00  0.00    +0.000 N 
ATOM     11  C   UNL     1       4.923   3.259  18.927  0.00  0.00    +0.000 C 
ATOM     12  C   UNL     1       3.803   2.487  19.611  0.00  0.00    +0.000 C 
ATOM     13  C   UNL     1       3.098   3.582  20.417  0.00  0.00    +0.000 C 
ATOM     14  C   UNL     1       3.316   4.865  19.612  0.00  0.00    +0.000 C 
BRANCH  13  15
ATOM     15  C   UNL     1       1.643   3.290  20.680  0.00  0.00    +0.000 C 
ATOM     16  O   UNL     1       0.751   3.630  19.916  0.00  0.00    +0.000 OA
BRANCH  15  17
ATOM     17  O   UNL     1       1.379   2.649  21.838  0.00  0.00    +0.000 OA
ATOM     18  H   UNL     1       1.582   3.148  22.653  0.00  0.00    +0.000 HD
ENDBRANCH  15  17
ENDBRANCH  13  15
ENDBRANCH   6   8
BRANCH   5  19
ATOM     19  N   UNL     1       7.330   6.115  17.346  0.00  0.00    +0.000 N 
ATOM     20  C   UNL     1       7.601   7.459  17.468  0.00  0.00    +0.000 A 
ATOM     21  C   UNL     1       8.191   7.625  18.701  0.00  0.00    +0.000 A 
ATOM     22  N   UNL     1       8.269   6.434  19.366  0.00  0.00    +0.000 NA
ATOM     23  C   UNL     1       7.754   5.553  18.537  0.00  0.00    +0.000 A 
ENDBRANCH   5  19
TORSDOF 4
ENDMDL
MODEL 5
REMARK VINA RESULT:      -6.7      1.923      2.751
REMARK  Name = 
REMARK  5 active torsions:
REMARK  status: ('A' for Active; 'I' for Inactive)
REMARK    1  A    between atoms: C_1  and  C_2
REMARK    2  A    between atoms: C_5  and  N_6
REMARK    3  A    between atoms: C_11  and  C_12
REMARK    4  A    between atoms: C_17  and  C_18
REMARK    5  A    between atoms: C_18  and  O_20
REMARK                            x       y       z     vdW  Elec       q    Type
REMARK                         _______ _______ _______ _____ _____    ______ ____
ROOT
ATOM      1  C   UNL     1       5.660   3.243  12.043  0.00  0.00    +0.000 C 
ATOM      2  C   UNL     1       6.015   3.913  13.336  0.00  0.00    +0.000 A 
ATOM      3  C   UNL     1       7.232   4.562  13.511  0.00  0.00    +0.000 A 
ATOM      4  C   UNL     1       7.553   5.122  14.749  0.00  0.00    +0.000 A 
ATOM      5  C   UNL     1       6.695   4.980  15.863  0.00  0.00    +0.000 A 
ATOM      6  C   UNL     1       5.469   4.297  15.701  0.00  0.00    +0.000 A 
ATOM      7  C   UNL     1       5.123   3.853  14.412  0.00  0.00    +0.000 A 
ENDROOT
BRANCH   6   8
ATOM      8  C   UNL     1       4.416   4.198  16.751  0.00  0.00    +0.000 C 
ATOM      9  O   UNL     1       4.252   3.108  17.300  0.00  0.00    +0.000 OA
ATOM     10  N   UNL     1       3.680   5.315  17.151  0.00  0.00    +0.000 N 
ATOM     11  C   UNL     1       3.690   6.695  16.687  0.00  0.00    +0.000 C 
ATOM     12  C   UNL     1       3.423   7.451  17.981  0.00  0.00    +0.000 C 
ATOM     13  C   UNL     1       2.352   6.584  18.650  0.00  0.00    +0.000 C 
ATOM     14  C   UNL     1       2.635   5.163  18.160  0.00  0.00    +0.000 C 
BRANCH  13  15
ATOM     15  C   UNL     1       2.340   6.699  20.153  0.00  0.00    +0.000 C 
ATOM     16  O   UNL     1       2.047   7.734  20.734  0.00  0.00    +0.000 OA
BRANCH  15  17
ATOM     17  O   UNL     1       2.704   5.587  20.823  0.00  0.00    +0.000 OA
ATOM     18  H   UNL     1       2.109   4.818  20.721  0.00  0.00    +0.000 HD
ENDBRANCH  15  17
ENDBRANCH  13  15
ENDBRANCH   6   8
BRANCH   5  19
ATOM     19  N   UNL     1       7.146   5.537  17.096  0.00  0.00    +0.000 N 
ATOM     20  C   UNL     1       7.475   4.892  18.267  0.00  0.00    +0.000 A 
ATOM     21  C   UNL     1       7.913   5.866  19.135  0.00  0.00    +0.000 A 
ATOM     22  N   UNL     1       7.899   7.094  18.536  0.00  0.00    +0.000 NA
ATOM     23  C   UNL     1       7.435   6.871  17.327  0.00  0.00    +0.000 A 
ENDBRANCH   5  19
TORSDOF 4
ENDMDL
MODEL 6
REMARK VINA RESULT:      -6.5      3.643      5.784
REMARK  Name = 
REMARK  5 active torsions:
REMARK  status: ('A' for Active; 'I' for Inactive)
REMARK    1  A    between atoms: C_1  and  C_2
REMARK    2  A    between atoms: C_5  and  N_6
REMARK    3  A    between atoms: C_11  and  C_12
REMARK    4  A    between atoms: C_17  and  C_18
REMARK    5  A    between atoms: C_18  and  O_20
REMARK                            x       y       z     vdW  Elec       q    Type
REMARK                         _______ _______ _______ _____ _____    ______ ____
ROOT
ATOM      1  C   UNL     1       1.247   2.826  21.502  0.00  0.00    +0.000 C 
ATOM      2  C   UNL     1       2.299   3.361  20.577  0.00  0.00    +0.000 A 
ATOM      3  C   UNL     1       3.484   2.673  20.345  0.00  0.00    +0.000 A 
ATOM      4  C   UNL     1       4.466   3.231  19.524  0.00  0.00    +0.000 A 
ATOM      5  C   UNL     1       4.316   4.526  18.976  0.00  0.00    +0.000 A 
ATOM      6  C   UNL     1       3.126   5.244  19.231  0.00  0.00    +0.000 A 
ATOM      7  C   UNL     1       2.108   4.601  19.959  0.00  0.00    +0.000 A 
ENDROOT
BRANCH   6   8
ATOM      8  C   UNL     1       2.783   6.551  18.605  0.00  0.00    +0.000 C 
ATOM      9  O   UNL     1       2.954   6.670  17.391  0.00  0.00    +0.000 OA
ATOM     10  N   UNL     1       2.223   7.591  19.350  0.00  0.00    +0.000 N 
ATOM     11  C   UNL     1       1.906   7.701  20.767  0.00  0.00    +0.000 C 
ATOM     12  C   UNL     1       0.642   8.547  20.728  0.00  0.00    +0.000 C 
ATOM     13  C   UNL     1       0.975   9.583  19.651  0.00  0.00    +0.000 C 
ATOM     14  C   UNL     1       1.934   8.866  18.700  0.00  0.00    +0.000 C 
BRANCH  13  15
ATOM     15  C   UNL     1      -0.241  10.138  18.955  0.00  0.00    +0.000 C 
ATOM     16  O   UNL     1      -1.141  10.712  19.553  0.00  0.00    +0.000 OA
BRANCH  15  17
ATOM     17  O   UNL     1      -0.292   9.935  17.623  0.00  0.00    +0.000 OA
ATOM     18  H   UNL     1      -0.524   9.028  17.343  0.00  0.00    +0.000 HD
ENDBRANCH  15  17
ENDBRANCH  13  15
ENDBRANCH   6   8
BRANCH   5  19
ATOM     19  N   UNL     1       5.405   5.026  18.203  0.00  0.00    +0.000 N 
ATOM     20  C   UNL     1       6.421   5.872  18.586  0.00  0.00    +0.000 A 
ATOM     21  C   UNL     1       7.252   5.997  17.497  0.00  0.00    +0.000 A 
ATOM     22  N   UNL     1       6.807   5.233  16.455  0.00  0.00    +0.000 NA
ATOM     23  C   UNL     1       5.706   4.670  16.900  0.00  0.00    +0.000 A 
ENDBRANCH   5  19
TORSDOF 4
ENDMDL
MODEL 7
REMARK VINA RESULT:      -6.5      3.683      5.307
REMARK  Name = 
REMARK  5 active torsions:
REMARK  status: ('A' for Active; 'I' for Inactive)
REMARK    1  A    between atoms: C_1  and  C_2
REMARK    2  A    between atoms: C_5  and  N_6
REMARK    3  A    between atoms: C_11  and  C_12
REMARK    4  A    between atoms: C_17  and  C_18
REMARK    5  A    between atoms: C_18  and  O_20
REMARK                            x       y       z     vdW  Elec       q    Type
REMARK                         _______ _______ _______ _____ _____    ______ ____
ROOT
ATOM      1  C   UNL     1       0.657   2.380  18.751  0.00  0.00    +0.000 C 
ATOM      2  C   UNL     1       1.832   3.224  18.358  0.00  0.00    +0.000 A 
ATOM      3  C   UNL     1       3.054   2.659  18.014  0.00  0.00    +0.000 A 
ATOM      4  C   UNL     1       4.142   3.479  17.712  0.00  0.00    +0.000 A 
ATOM      5  C   UNL     1       4.054   4.885  17.822  0.00  0.00    +0.000 A 
ATOM      6  C   UNL     1       2.824   5.468  18.200  0.00  0.00    +0.000 A 
ATOM      7  C   UNL     1       1.716   4.618  18.376  0.00  0.00    +0.000 A 
ENDROOT
BRANCH   6   8
ATOM      8  C   UNL     1       2.557   6.933  18.219  0.00  0.00    +0.000 C 
ATOM      9  O   UNL     1       2.722   7.561  17.172  0.00  0.00    +0.000 OA
ATOM     10  N   UNL     1       2.073   7.571  19.363  0.00  0.00    +0.000 N 
ATOM     11  C   UNL     1       1.780   7.068  20.697  0.00  0.00    +0.000 C 
ATOM     12  C   UNL     1       0.571   7.911  21.079  0.00  0.00    +0.000 C 
ATOM     13  C   UNL     1       0.958   9.294  20.547  0.00  0.00    +0.000 C 
ATOM     14  C   UNL     1       1.859   9.015  19.343  0.00  0.00    +0.000 C 
BRANCH  13  15
ATOM     15  C   UNL     1      -0.229  10.160  20.209  0.00  0.00    +0.000 C 
ATOM     16  O   UNL     1      -0.808  10.843  21.042  0.00  0.00    +0.000 OA
BRANCH  15  17
ATOM     17  O   UNL     1      -0.635  10.113  18.924  0.00  0.00    +0.000 OA
ATOM     18  H   UNL     1       0.039   9.825  18.278  0.00  0.00    +0.000 HD
ENDBRANCH  15  17
ENDBRANCH  13  15
ENDBRANCH   6   8
BRANCH   5  19
ATOM     19  N   UNL     1       5.243   5.627  17.551  0.00  0.00    +0.000 N 
ATOM     20  C   UNL     1       6.221   6.040  18.426  0.00  0.00    +0.000 A 
ATOM     21  C   UNL     1       7.185   6.660  17.663  0.00  0.00    +0.000 A 
ATOM     22  N   UNL     1       6.856   6.620  16.338  0.00  0.00    +0.000 NA
ATOM     23  C   UNL     1       5.695   6.005  16.300  0.00  0.00    +0.000 A 
ENDBRANCH   5  19
TORSDOF 4
ENDMDL
MODEL 8
REMARK VINA RESULT:      -6.5      1.775      2.475
REMARK  Name = 
REMARK  5 active torsions:
REMARK  status: ('A' for Active; 'I' for Inactive)
REMARK    1  A    between atoms: C_1  and  C_2
REMARK    2  A    between atoms: C_5  and  N_6
REMARK    3  A    between atoms: C_11  and  C_12
REMARK    4  A    between atoms: C_17  and  C_18
REMARK    5  A    between atoms: C_18  and  O_20
REMARK                            x       y       z     vdW  Elec       q    Type
REMARK                         _______ _______ _______ _____ _____    ______ ____
ROOT
ATOM      1  C   UNL     1       5.359   3.211  12.045  0.00  0.00    +0.000 C 
ATOM      2  C   UNL     1       5.790   3.818  13.346  0.00  0.00    +0.000 A 
ATOM      3  C   UNL     1       7.011   4.470  13.478  0.00  0.00    +0.000 A 
ATOM      4  C   UNL     1       7.405   4.970  14.720  0.00  0.00    +0.000 A 
ATOM      5  C   UNL     1       6.620   4.762  15.877  0.00  0.00    +0.000 A 
ATOM      6  C   UNL     1       5.391   4.075  15.757  0.00  0.00    +0.000 A 
ATOM      7  C   UNL     1       4.968   3.695  14.471  0.00  0.00    +0.000 A 
ENDROOT
BRANCH   6   8
ATOM      8  C   UNL     1       4.408   3.912  16.865  0.00  0.00    +0.000 C 
ATOM      9  O   UNL     1       4.355   2.820  17.431  0.00  0.00    +0.000 OA
ATOM     10  N   UNL     1       3.613   4.977  17.295  0.00  0.00    +0.000 N 
ATOM     11  C   UNL     1       3.496   6.348  16.820  0.00  0.00    +0.000 C 
ATOM     12  C   UNL     1       3.244   7.098  18.120  0.00  0.00    +0.000 C 
ATOM     13  C   UNL     1       2.279   6.162  18.855  0.00  0.00    +0.000 C 
ATOM     14  C   UNL     1       2.640   4.760  18.361  0.00  0.00    +0.000 C 
BRANCH  13  15
ATOM     15  C   UNL     1       2.340   6.295  20.355  0.00  0.00    +0.000 C 
ATOM     16  O   UNL     1       2.429   5.330  21.101  0.00  0.00    +0.000 OA
BRANCH  15  17
ATOM     17  O   UNL     1       2.260   7.555  20.830  0.00  0.00    +0.000 OA
ATOM     18  H   UNL     1       1.663   8.154  20.341  0.00  0.00    +0.000 HD
ENDBRANCH  15  17
ENDBRANCH  13  15
ENDBRANCH   6   8
BRANCH   5  19
ATOM     19  N   UNL     1       7.144   5.261  17.107  0.00  0.00    +0.000 N 
ATOM     20  C   UNL     1       7.182   6.557  17.567  0.00  0.00    +0.000 A 
ATOM     21  C   UNL     1       7.726   6.503  18.831  0.00  0.00    +0.000 A 
ATOM     22  N   UNL     1       8.001   5.213  19.186  0.00  0.00    +0.000 NA
ATOM     23  C   UNL     1       7.650   4.495  18.142  0.00  0.00    +0.000 A 
ENDBRANCH   5  19
TORSDOF 4
ENDMDL
MODEL 9
REMARK VINA RESULT:      -6.2      2.303      3.211
REMARK  Name = 
REMARK  5 active torsions:
REMARK  status: ('A' for Active; 'I' for Inactive)
REMARK    1  A    between atoms: C_1  and  C_2
REMARK    2  A    between atoms: C_5  and  N_6
REMARK    3  A    between atoms: C_11  and  C_12
REMARK    4  A    between atoms: C_17  and  C_18
REMARK    5  A    between atoms: C_18  and  O_20
REMARK                            x       y       z     vdW  Elec       q    Type
REMARK                         _______ _______ _______ _____ _____    ______ ____
ROOT
ATOM      1  C   UNL     1       7.315   4.501  14.096  0.00  0.00    +0.000 C 
ATOM      2  C   UNL     1       6.297   5.083  15.030  0.00  0.00    +0.000 A 
ATOM      3  C   UNL     1       5.623   6.262  14.733  0.00  0.00    +0.000 A 
ATOM      4  C   UNL     1       4.727   6.805  15.655  0.00  0.00    +0.000 A 
ATOM      5  C   UNL     1       4.539   6.221  16.928  0.00  0.00    +0.000 A 
ATOM      6  C   UNL     1       5.242   5.038  17.250  0.00  0.00    +0.000 A 
ATOM      7  C   UNL     1       6.042   4.452  16.252  0.00  0.00    +0.000 A 
ENDROOT
BRANCH   6   8
ATOM      8  C   UNL     1       5.033   4.247  18.495  0.00  0.00    +0.000 C 
ATOM      9  O   UNL     1       5.827   4.413  19.422  0.00  0.00    +0.000 OA
ATOM     10  N   UNL     1       3.938   3.393  18.640  0.00  0.00    +0.000 N 
ATOM     11  C   UNL     1       2.863   3.039  17.724  0.00  0.00    +0.000 C 
ATOM     12  C   UNL     1       1.691   2.878  18.682  0.00  0.00    +0.000 C 
ATOM     13  C   UNL     1       2.335   2.151  19.867  0.00  0.00    +0.000 C 
ATOM     14  C   UNL     1       3.793   2.613  19.865  0.00  0.00    +0.000 C 
BRANCH  13  15
ATOM     15  C   UNL     1       1.636   2.404  21.178  0.00  0.00    +0.000 C 
ATOM     16  O   UNL     1       2.079   2.016  22.249  0.00  0.00    +0.000 OA
BRANCH  15  17
ATOM     17  O   UNL     1       0.464   3.067  21.093  0.00  0.00    +0.000 OA
ATOM     18  H   UNL     1       0.142   3.242  20.187  0.00  0.00    +0.000 HD
ENDBRANCH  15  17
ENDBRANCH  13  15
ENDBRANCH   6   8
BRANCH   5  19
ATOM     19  N   UNL     1       3.647   6.890  17.817  0.00  0.00    +0.000 N 
ATOM     20  C   UNL     1       2.962   8.069  17.628  0.00  0.00    +0.000 A 
ATOM     21  C   UNL     1       2.186   8.250  18.751  0.00  0.00    +0.000 A 
ATOM     22  N   UNL     1       2.341   7.209  19.621  0.00  0.00    +0.000 NA
ATOM     23  C   UNL     1       3.217   6.417  19.044  0.00  0.00    +0.000 A 
ENDBRANCH   5  19
TORSDOF 4
ENDMDL
