MODEL 1
REMARK VINA RESULT:      -8.8      0.000      0.000
REMARK  Name = 
REMARK  6 active torsions:
REMARK  status: ('A' for Active; 'I' for Inactive)
REMARK    1  A    between atoms: C_1  and  N_2
REMARK    2  A    between atoms: N_2  and  C_3
REMARK    3  A    between atoms: N_2  and  C_4
REMARK    4  A    between atoms: C_4  and  C_5
REMARK    5  A    between atoms: C_5  and  N_6
REMARK    6  A    between atoms: C_7  and  C_9
REMARK                            x       y       z     vdW  Elec       q    Type
REMARK                         _______ _______ _______ _____ _____    ______ ____
ROOT
ATOM      1  N   UNL     1       3.472   4.950  19.849  0.00  0.00    +0.000 N 
ATOM      2  C   UNL     1       2.421   5.822  20.100  0.00  0.00    +0.000 C 
ATOM      3  O   UNL     1       1.653   5.571  21.015  0.00  0.00    +0.000 OA
ATOM      4  C   UNL     1       4.143   4.951  18.585  0.00  0.00    +0.000 A 
ATOM      5  N   UNL     1       5.350   5.529  18.319  0.00  0.00    +0.000 NA
ATOM      6  C   UNL     1       5.729   5.274  17.031  0.00  0.00    +0.000 A 
ATOM      7  C   UNL     1       6.904   5.753  16.408  0.00  0.00    +0.000 A 
ATOM      8  C   UNL     1       7.108   5.363  15.069  0.00  0.00    +0.000 A 
ATOM      9  C   UNL     1       6.232   4.566  14.401  0.00  0.00    +0.000 A 
ATOM     10  C   UNL     1       5.066   4.083  14.988  0.00  0.00    +0.000 A 
ATOM     11  C   UNL     1       4.842   4.463  16.311  0.00  0.00    +0.000 A 
ATOM     12  S   UNL     1       3.544   4.065  17.277  0.00  0.00    +0.000 S 
ATOM     13  O   UNL     1       6.680   4.354  13.162  0.00  0.00    +0.000 OA
ATOM     14  C   UNL     1       7.881   5.040  13.024  0.00  0.00    +0.000 C 
ATOM     15  O   UNL     1       8.120   5.667  14.248  0.00  0.00    +0.000 OA
ENDROOT
BRANCH   2  16
ATOM     16  C   UNL     1       2.189   7.125  19.363  0.00  0.00    +0.000 A 
ATOM     17  C   UNL     1       2.775   7.278  18.092  0.00  0.00    +0.000 A 
ATOM     18  C   UNL     1       2.728   8.484  17.400  0.00  0.00    +0.000 A 
ATOM     19  C   UNL     1       2.099   9.589  17.956  0.00  0.00    +0.000 A 
ATOM     20  C   UNL     1       1.494   9.494  19.209  0.00  0.00    +0.000 A 
ATOM     21  C   UNL     1       0.869  10.635  19.749  0.00  0.00    +0.000 A 
ATOM     22  C   UNL     1       0.241  10.573  20.988  0.00  0.00    +0.000 A 
ATOM     23  C   UNL     1       0.231   9.378  21.703  0.00  0.00    +0.000 A 
ATOM     24  C   UNL     1       0.865   8.235  21.193  0.00  0.00    +0.000 A 
ATOM     25  C   UNL     1       1.521   8.266  19.937  0.00  0.00    +0.000 A 
ENDBRANCH   2  16
BRANCH   1  26
ATOM     26  C   UNL     1       3.664   3.757  20.695  0.00  0.00    +0.000 C 
BRANCH  26  27
ATOM     27  C   UNL     1       3.208   2.421  20.047  0.00  0.00    +0.000 C 
BRANCH  27  29
ATOM     28  C   UNL     1       1.415   2.525  21.670  0.00  0.00    +0.000 C 
ATOM     29  N   UNL     1       1.806   2.031  20.334  0.00  0.00    +0.000 NA
ATOM     30  C   UNL     1       0.858   2.544  19.335  0.00  0.00    +0.000 C 
ENDBRANCH  27  29
ENDBRANCH  26  27
ENDBRANCH   1  26
TORSDOF 4
ENDMDL
MODEL 2
REMARK VINA RESULT:      -8.8      4.800      7.958
REMARK  Name = 
REMARK  6 active torsions:
REMARK  status: ('A' for Active; 'I' for Inactive)
REMARK    1  A    between atoms: C_1  and  N_2
REMARK    2  A    between atoms: N_2  and  C_3
REMARK    3  A    between atoms: N_2  and  C_4
REMARK    4  A    between atoms: C_4  and  C_5
REMARK    5  A    between atoms: C_5  and  N_6
REMARK    6  A    between atoms: C_7  and  C_9
REMARK                            x       y       z     vdW  Elec       q    Type
REMARK                         _______ _______ _______ _____ _____    ______ ____
ROOT
ATOM      1  N   UNL     1       0.559  12.225  19.213  0.00  0.00    +0.000 N 
ATOM      2  C   UNL     1      -0.755  12.614  18.988  0.00  0.00    +0.000 C 
ATOM      3  O   UNL     1      -1.082  13.761  19.251  0.00  0.00    +0.000 OA
ATOM      4  C   UNL     1       0.908  10.842  19.320  0.00  0.00    +0.000 A 
ATOM      5  N   UNL     1       1.482  10.082  18.343  0.00  0.00    +0.000 NA
ATOM      6  C   UNL     1       1.748   8.825  18.809  0.00  0.00    +0.000 A 
ATOM      7  C   UNL     1       2.305   7.767  18.054  0.00  0.00    +0.000 A 
ATOM      8  C   UNL     1       2.505   6.549  18.734  0.00  0.00    +0.000 A 
ATOM      9  C   UNL     1       2.189   6.386  20.046  0.00  0.00    +0.000 A 
ATOM     10  C   UNL     1       1.637   7.409  20.813  0.00  0.00    +0.000 A 
ATOM     11  C   UNL     1       1.424   8.621  20.156  0.00  0.00    +0.000 A 
ATOM     12  S   UNL     1       0.771  10.018  20.789  0.00  0.00    +0.000 S 
ATOM     13  O   UNL     1       2.491   5.143  20.425  0.00  0.00    +0.000 OA
ATOM     14  C   UNL     1       3.015   4.480  19.321  0.00  0.00    +0.000 C 
ATOM     15  O   UNL     1       3.008   5.399  18.269  0.00  0.00    +0.000 OA
ENDROOT
BRANCH   2  16
ATOM     16  C   UNL     1      -1.819  11.736  18.362  0.00  0.00    +0.000 A 
ATOM     17  C   UNL     1      -1.458  10.960  17.245  0.00  0.00    +0.000 A 
ATOM     18  C   UNL     1      -2.397  10.227  16.525  0.00  0.00    +0.000 A 
ATOM     19  C   UNL     1      -3.736  10.249  16.889  0.00  0.00    +0.000 A 
ATOM     20  C   UNL     1      -4.149  10.994  17.993  0.00  0.00    +0.000 A 
ATOM     21  C   UNL     1      -5.515  11.001  18.334  0.00  0.00    +0.000 A 
ATOM     22  C   UNL     1      -5.961  11.719  19.438  0.00  0.00    +0.000 A 
ATOM     23  C   UNL     1      -5.054  12.439  20.211  0.00  0.00    +0.000 A 
ATOM     24  C   UNL     1      -3.692  12.463  19.877  0.00  0.00    +0.000 A 
ATOM     25  C   UNL     1      -3.205  11.749  18.754  0.00  0.00    +0.000 A 
ENDBRANCH   2  16
BRANCH   1  26
ATOM     26  C   UNL     1       1.540  13.194  19.736  0.00  0.00    +0.000 C 
BRANCH  26  27
ATOM     27  C   UNL     1       2.597  13.671  18.703  0.00  0.00    +0.000 C 
BRANCH  27  29
ATOM     28  C   UNL     1       3.760  15.477  17.587  0.00  0.00    +0.000 C 
ATOM     29  N   UNL     1       2.874  15.129  18.717  0.00  0.00    +0.000 NA
ATOM     30  C   UNL     1       1.652  15.940  18.639  0.00  0.00    +0.000 C 
ENDBRANCH  27  29
ENDBRANCH  26  27
ENDBRANCH   1  26
TORSDOF 4
ENDMDL
MODEL 3
REMARK VINA RESULT:      -8.7      2.333      6.699
REMARK  Name = 
REMARK  6 active torsions:
REMARK  status: ('A' for Active; 'I' for Inactive)
REMARK    1  A    between atoms: C_1  and  N_2
REMARK    2  A    between atoms: N_2  and  C_3
REMARK    3  A    between atoms: N_2  and  C_4
REMARK    4  A    between atoms: C_4  and  C_5
REMARK    5  A    between atoms: C_5  and  N_6
REMARK    6  A    between atoms: C_7  and  C_9
REMARK                            x       y       z     vdW  Elec       q    Type
REMARK                         _______ _______ _______ _____ _____    ______ ____
ROOT
ATOM      1  N   UNL     1       2.725   3.876  18.232  0.00  0.00    +0.000 N 
ATOM      2  C   UNL     1       4.021   3.382  18.163  0.00  0.00    +0.000 C 
ATOM      3  O   UNL     1       4.194   2.174  18.222  0.00  0.00    +0.000 OA
ATOM      4  C   UNL     1       2.477   5.243  18.576  0.00  0.00    +0.000 A 
ATOM      5  N   UNL     1       2.173   6.247  17.703  0.00  0.00    +0.000 NA
ATOM      6  C   UNL     1       1.924   7.408  18.379  0.00  0.00    +0.000 A 
ATOM      7  C   UNL     1       1.618   8.656  17.788  0.00  0.00    +0.000 A 
ATOM      8  C   UNL     1       1.388   9.729  18.671  0.00  0.00    +0.000 A 
ATOM      9  C   UNL     1       1.449   9.587  20.022  0.00  0.00    +0.000 A 
ATOM     10  C   UNL     1       1.752   8.372  20.631  0.00  0.00    +0.000 A 
ATOM     11  C   UNL     1       1.990   7.298  19.774  0.00  0.00    +0.000 A 
ATOM     12  S   UNL     1       2.387   5.734  20.190  0.00  0.00    +0.000 S 
ATOM     13  O   UNL     1       1.182  10.757  20.605  0.00  0.00    +0.000 OA
ATOM     14  C   UNL     1       0.945  11.686  19.598  0.00  0.00    +0.000 C 
ATOM     15  O   UNL     1       1.084  11.001  18.389  0.00  0.00    +0.000 OA
ENDROOT
BRANCH   2  16
ATOM     16  C   UNL     1       5.256   4.230  17.942  0.00  0.00    +0.000 A 
ATOM     17  C   UNL     1       5.779   4.933  19.044  0.00  0.00    +0.000 A 
ATOM     18  C   UNL     1       6.827   5.838  18.909  0.00  0.00    +0.000 A 
ATOM     19  C   UNL     1       7.389   6.082  17.665  0.00  0.00    +0.000 A 
ATOM     20  C   UNL     1       6.917   5.408  16.538  0.00  0.00    +0.000 A 
ATOM     21  C   UNL     1       7.505   5.681  15.289  0.00  0.00    +0.000 A 
ATOM     22  C   UNL     1       7.071   5.017  14.147  0.00  0.00    +0.000 A 
ATOM     23  C   UNL     1       6.049   4.075  14.237  0.00  0.00    +0.000 A 
ATOM     24  C   UNL     1       5.436   3.802  15.469  0.00  0.00    +0.000 A 
ATOM     25  C   UNL     1       5.848   4.468  16.650  0.00  0.00    +0.000 A 
ENDBRANCH   2  16
BRANCH   1  26
ATOM     26  C   UNL     1       1.583   2.951  18.348  0.00  0.00    +0.000 C 
BRANCH  26  27
ATOM     27  C   UNL     1       1.607   2.043  19.608  0.00  0.00    +0.000 C 
BRANCH  27  29
ATOM     28  C   UNL     1       1.075   2.606  21.901  0.00  0.00    +0.000 C 
ATOM     29  N   UNL     1       2.102   2.697  20.844  0.00  0.00    +0.000 NA
ATOM     30  C   UNL     1       3.354   2.106  21.337  0.00  0.00    +0.000 C 
ENDBRANCH  27  29
ENDBRANCH  26  27
ENDBRANCH   1  26
TORSDOF 4
ENDMDL
MODEL 4
REMARK VINA RESULT:      -8.6      4.992      8.073
REMARK  Name = 
REMARK  6 active torsions:
REMARK  status: ('A' for Active; 'I' for Inactive)
REMARK    1  A    between atoms: C_1  and  N_2
REMARK    2  A    between atoms: N_2  and  C_3
REMARK    3  A    between atoms: N_2  and  C_4
REMARK    4  A    between atoms: C_4  and  C_5
REMARK    5  A    between atoms: C_5  and  N_6
REMARK    6  A    between atoms: C_7  and  C_9
REMARK                            x       y       z     vdW  Elec       q    Type
REMARK                         _______ _______ _______ _____ _____    ______ ____
ROOT
ATOM      1  N   UNL     1      -0.177  12.712  19.912  0.00  0.00    +0.000 N 
ATOM      2  C   UNL     1      -1.518  12.980  19.667  0.00  0.00    +0.000 C 
ATOM      3  O   UNL     1      -2.006  14.003  20.120  0.00  0.00    +0.000 OA
ATOM      4  C   UNL     1       0.344  11.386  19.776  0.00  0.00    +0.000 A 
ATOM      5  N   UNL     1       1.062  10.912  18.717  0.00  0.00    +0.000 NA
ATOM      6  C   UNL     1       1.467   9.627  18.951  0.00  0.00    +0.000 A 
ATOM      7  C   UNL     1       2.195   8.816  18.051  0.00  0.00    +0.000 A 
ATOM      8  C   UNL     1       2.519   7.519  18.497  0.00  0.00    +0.000 A 
ATOM      9  C   UNL     1       2.161   7.060  19.725  0.00  0.00    +0.000 A 
ATOM     10  C   UNL     1       1.441   7.835  20.630  0.00  0.00    +0.000 A 
ATOM     11  C   UNL     1       1.104   9.120  20.206  0.00  0.00    +0.000 A 
ATOM     12  S   UNL     1       0.243  10.274  21.044  0.00  0.00    +0.000 S 
ATOM     13  O   UNL     1       2.603   5.810  19.880  0.00  0.00    +0.000 OA
ATOM     14  C   UNL     1       3.265   5.450  18.711  0.00  0.00    +0.000 C 
ATOM     15  O   UNL     1       3.191   6.553  17.859  0.00  0.00    +0.000 OA
ENDROOT
BRANCH   2  16
ATOM     16  C   UNL     1      -2.424  12.125  18.805  0.00  0.00    +0.000 A 
ATOM     17  C   UNL     1      -1.897  11.608  17.606  0.00  0.00    +0.000 A 
ATOM     18  C   UNL     1      -2.690  10.927  16.688  0.00  0.00    +0.000 A 
ATOM     19  C   UNL     1      -4.044  10.742  16.929  0.00  0.00    +0.000 A 
ATOM     20  C   UNL     1      -4.619  11.225  18.105  0.00  0.00    +0.000 A 
ATOM     21  C   UNL     1      -5.996  11.027  18.318  0.00  0.00    +0.000 A 
ATOM     22  C   UNL     1      -6.600  11.481  19.485  0.00  0.00    +0.000 A 
ATOM     23  C   UNL     1      -5.840  12.138  20.450  0.00  0.00    +0.000 A 
ATOM     24  C   UNL     1      -4.471  12.363  20.249  0.00  0.00    +0.000 A 
ATOM     25  C   UNL     1      -3.826  11.922  19.067  0.00  0.00    +0.000 A 
ENDBRANCH   2  16
BRANCH   1  26
ATOM     26  C   UNL     1       0.641  13.665  20.684  0.00  0.00    +0.000 C 
BRANCH  26  27
ATOM     27  C   UNL     1       1.327  14.770  19.835  0.00  0.00    +0.000 C 
BRANCH  27  29
ATOM     28  C   UNL     1       3.363  13.999  20.893  0.00  0.00    +0.000 C 
ATOM     29  N   UNL     1       2.795  14.622  19.680  0.00  0.00    +0.000 NA
ATOM     30  C   UNL     1       3.163  13.816  18.507  0.00  0.00    +0.000 C 
ENDBRANCH  27  29
ENDBRANCH  26  27
ENDBRANCH   1  26
TORSDOF 4
ENDMDL
MODEL 5
REMARK VINA RESULT:      -8.4      6.094     11.106
REMARK  Name = 
REMARK  6 active torsions:
REMARK  status: ('A' for Active; 'I' for Inactive)
REMARK    1  A    between atoms: C_1  and  N_2
REMARK    2  A    between atoms: N_2  and  C_3
REMARK    3  A    between atoms: N_2  and  C_4
REMARK    4  A    between atoms: C_4  and  C_5
REMARK    5  A    between atoms: C_5  and  N_6
REMARK    6  A    between atoms: C_7  and  C_9
REMARK                            x       y       z     vdW  Elec       q    Type
REMARK                         _______ _______ _______ _____ _____    ______ ____
ROOT
ATOM      1  N   UNL     1      -0.067  13.026  19.064  0.00  0.00    +0.000 N 
ATOM      2  C   UNL     1       0.966  12.111  19.219  0.00  0.00    +0.000 C 
ATOM      3  O   UNL     1       2.052  12.358  18.718  0.00  0.00    +0.000 OA
ATOM      4  C   UNL     1      -1.430  12.635  19.255  0.00  0.00    +0.000 A 
ATOM      5  N   UNL     1      -2.186  12.878  20.365  0.00  0.00    +0.000 NA
ATOM      6  C   UNL     1      -3.465  12.434  20.179  0.00  0.00    +0.000 A 
ATOM      7  C   UNL     1      -4.503  12.488  21.137  0.00  0.00    +0.000 A 
ATOM      8  C   UNL     1      -5.754  11.980  20.735  0.00  0.00    +0.000 A 
ATOM      9  C   UNL     1      -5.969  11.466  19.495  0.00  0.00    +0.000 A 
ATOM     10  C   UNL     1      -4.964  11.397  18.533  0.00  0.00    +0.000 A 
ATOM     11  C   UNL     1      -3.715  11.888  18.913  0.00  0.00    +0.000 A 
ATOM     12  S   UNL     1      -2.321  11.933  18.002  0.00  0.00    +0.000 S 
ATOM     13  O   UNL     1      -7.239  11.070  19.390  0.00  0.00    +0.000 OA
ATOM     14  C   UNL     1      -7.864  11.332  20.603  0.00  0.00    +0.000 C 
ATOM     15  O   UNL     1      -6.896  11.907  21.430  0.00  0.00    +0.000 OA
ENDROOT
BRANCH   2  16
ATOM     16  C   UNL     1       0.875  10.839  20.037  0.00  0.00    +0.000 A 
ATOM     17  C   UNL     1       0.412  10.940  21.363  0.00  0.00    +0.000 A 
ATOM     18  C   UNL     1       0.420   9.852  22.229  0.00  0.00    +0.000 A 
ATOM     19  C   UNL     1       0.900   8.620  21.808  0.00  0.00    +0.000 A 
ATOM     20  C   UNL     1       1.364   8.459  20.502  0.00  0.00    +0.000 A 
ATOM     21  C   UNL     1       1.850   7.199  20.105  0.00  0.00    +0.000 A 
ATOM     22  C   UNL     1       2.305   6.997  18.807  0.00  0.00    +0.000 A 
ATOM     23  C   UNL     1       2.284   8.047  17.892  0.00  0.00    +0.000 A 
ATOM     24  C   UNL     1       1.822   9.316  18.272  0.00  0.00    +0.000 A 
ATOM     25  C   UNL     1       1.359   9.558  19.589  0.00  0.00    +0.000 A 
ENDBRANCH   2  16
BRANCH   1  26
ATOM     26  C   UNL     1       0.160  14.283  18.328  0.00  0.00    +0.000 C 
BRANCH  26  27
ATOM     27  C   UNL     1      -0.400  15.554  19.023  0.00  0.00    +0.000 C 
BRANCH  27  29
ATOM     28  C   UNL     1      -1.453  17.704  18.666  0.00  0.00    +0.000 C 
ATOM     29  N   UNL     1      -0.409  16.777  18.183  0.00  0.00    +0.000 NA
ATOM     30  C   UNL     1       0.886  17.471  18.177  0.00  0.00    +0.000 C 
ENDBRANCH  27  29
ENDBRANCH  26  27
ENDBRANCH   1  26
TORSDOF 4
ENDMDL
MODEL 6
REMARK VINA RESULT:      -8.2      4.750      7.792
REMARK  Name = 
REMARK  6 active torsions:
REMARK  status: ('A' for Active; 'I' for Inactive)
REMARK    1  A    between atoms: C_1  and  N_2
REMARK    2  A    between atoms: N_2  and  C_3
REMARK    3  A    between atoms: N_2  and  C_4
REMARK    4  A    between atoms: C_4  and  C_5
REMARK    5  A    between atoms: C_5  and  N_6
REMARK    6  A    between atoms: C_7  and  C_9
REMARK                            x       y       z     vdW  Elec       q    Type
REMARK                         _______ _______ _______ _____ _____    ______ ____
ROOT
ATOM      1  N   UNL     1       0.507  12.203  19.090  0.00  0.00    +0.000 N 
ATOM      2  C   UNL     1      -0.815  12.571  18.881  0.00  0.00    +0.000 C 
ATOM      3  O   UNL     1      -1.152  13.718  19.133  0.00  0.00    +0.000 OA
ATOM      4  C   UNL     1       0.876  10.825  19.211  0.00  0.00    +0.000 A 
ATOM      5  N   UNL     1       1.443  10.058  18.236  0.00  0.00    +0.000 NA
ATOM      6  C   UNL     1       1.733   8.812  18.717  0.00  0.00    +0.000 A 
ATOM      7  C   UNL     1       2.291   7.750  17.968  0.00  0.00    +0.000 A 
ATOM      8  C   UNL     1       2.518   6.545  18.663  0.00  0.00    +0.000 A 
ATOM      9  C   UNL     1       2.226   6.397  19.982  0.00  0.00    +0.000 A 
ATOM     10  C   UNL     1       1.674   7.425  20.743  0.00  0.00    +0.000 A 
ATOM     11  C   UNL     1       1.434   8.624  20.072  0.00  0.00    +0.000 A 
ATOM     12  S   UNL     1       0.775  10.022  20.695  0.00  0.00    +0.000 S 
ATOM     13  O   UNL     1       2.550   5.164  20.375  0.00  0.00    +0.000 OA
ATOM     14  C   UNL     1       3.064   4.491  19.272  0.00  0.00    +0.000 C 
ATOM     15  O   UNL     1       3.028   5.394  18.207  0.00  0.00    +0.000 OA
ENDROOT
BRANCH   2  16
ATOM     16  C   UNL     1      -1.877  11.670  18.287  0.00  0.00    +0.000 A 
ATOM     17  C   UNL     1      -1.518  10.860  17.194  0.00  0.00    +0.000 A 
ATOM     18  C   UNL     1      -2.456  10.102  16.500  0.00  0.00    +0.000 A 
ATOM     19  C   UNL     1      -3.794  10.132  16.867  0.00  0.00    +0.000 A 
ATOM     20  C   UNL     1      -4.207  10.911  17.948  0.00  0.00    +0.000 A 
ATOM     21  C   UNL     1      -5.572  10.924  18.293  0.00  0.00    +0.000 A 
ATOM     22  C   UNL     1      -6.017  11.676  19.374  0.00  0.00    +0.000 A 
ATOM     23  C   UNL     1      -5.110  12.423  20.121  0.00  0.00    +0.000 A 
ATOM     24  C   UNL     1      -3.749  12.440  19.783  0.00  0.00    +0.000 A 
ATOM     25  C   UNL     1      -3.263  11.692  18.682  0.00  0.00    +0.000 A 
ENDBRANCH   2  16
BRANCH   1  26
ATOM     26  C   UNL     1       1.485  13.191  19.581  0.00  0.00    +0.000 C 
BRANCH  26  27
ATOM     27  C   UNL     1       1.568  13.311  21.128  0.00  0.00    +0.000 C 
BRANCH  27  29
ATOM     28  C   UNL     1       3.803  14.185  21.443  0.00  0.00    +0.000 C 
ATOM     29  N   UNL     1       2.363  14.459  21.627  0.00  0.00    +0.000 NA
ATOM     30  C   UNL     1       2.024  15.720  20.952  0.00  0.00    +0.000 C 
ENDBRANCH  27  29
ENDBRANCH  26  27
ENDBRANCH   1  26
TORSDOF 4
ENDMDL
MODEL 7
REMARK VINA RESULT:      -8.1      5.070      8.180
REMARK  Name = 
REMARK  6 active torsions:
REMARK  status: ('A' for Active; 'I' for Inactive)
REMARK    1  A    between atoms: C_1  and  N_2
REMARK    2  A    between atoms: N_2  and  C_3
REMARK    3  A    between atoms: N_2  and  C_4
REMARK    4  A    between atoms: C_4  and  C_5
REMARK    5  A    between atoms: C_5  and  N_6
REMARK    6  A    between atoms: C_7  and  C_9
REMARK                            x       y       z     vdW  Elec       q    Type
REMARK                         _______ _______ _______ _____ _____    ______ ____
ROOT
ATOM      1  N   UNL     1      -0.014  12.719  19.584  0.00  0.00    +0.000 N 
ATOM      2  C   UNL     1      -1.362  12.994  19.392  0.00  0.00    +0.000 C 
ATOM      3  O   UNL     1      -1.807  14.060  19.787  0.00  0.00    +0.000 OA
ATOM      4  C   UNL     1       0.477  11.377  19.529  0.00  0.00    +0.000 A 
ATOM      5  N   UNL     1       1.127  10.804  18.475  0.00  0.00    +0.000 NA
ATOM      6  C   UNL     1       1.524   9.534  18.790  0.00  0.00    +0.000 A 
ATOM      7  C   UNL     1       2.187   8.639  17.920  0.00  0.00    +0.000 A 
ATOM      8  C   UNL     1       2.515   7.375  18.452  0.00  0.00    +0.000 A 
ATOM      9  C   UNL     1       2.219   7.023  19.731  0.00  0.00    +0.000 A 
ATOM     10  C   UNL     1       1.563   7.884  20.608  0.00  0.00    +0.000 A 
ATOM     11  C   UNL     1       1.224   9.137  20.099  0.00  0.00    +0.000 A 
ATOM     12  S   UNL     1       0.429  10.372  20.887  0.00  0.00    +0.000 S 
ATOM     13  O   UNL     1       2.649   5.782  19.962  0.00  0.00    +0.000 OA
ATOM     14  C   UNL     1       3.238   5.315  18.793  0.00  0.00    +0.000 C 
ATOM     15  O   UNL     1       3.135   6.348  17.859  0.00  0.00    +0.000 OA
ENDROOT
BRANCH   2  16
ATOM     16  C   UNL     1      -2.328  12.091  18.653  0.00  0.00    +0.000 A 
ATOM     17  C   UNL     1      -1.878  11.470  17.473  0.00  0.00    +0.000 A 
ATOM     18  C   UNL     1      -2.732  10.733  16.658  0.00  0.00    +0.000 A 
ATOM     19  C   UNL     1      -4.073  10.596  16.987  0.00  0.00    +0.000 A 
ATOM     20  C   UNL     1      -4.573  11.183  18.149  0.00  0.00    +0.000 A 
ATOM     21  C   UNL     1      -5.939  11.030  18.453  0.00  0.00    +0.000 A 
ATOM     22  C   UNL     1      -6.469  11.588  19.611  0.00  0.00    +0.000 A 
ATOM     23  C   UNL     1      -5.646  12.305  20.477  0.00  0.00    +0.000 A 
ATOM     24  C   UNL     1      -4.287  12.486  20.183  0.00  0.00    +0.000 A 
ATOM     25  C   UNL     1      -3.717  11.938  19.007  0.00  0.00    +0.000 A 
ENDBRANCH   2  16
BRANCH   1  26
ATOM     26  C   UNL     1       0.861  13.714  20.231  0.00  0.00    +0.000 C 
BRANCH  26  27
ATOM     27  C   UNL     1       0.891  13.643  21.782  0.00  0.00    +0.000 C 
BRANCH  27  29
ATOM     28  C   UNL     1       0.584  16.030  21.518  0.00  0.00    +0.000 C 
ATOM     29  N   UNL     1       0.535  14.906  22.475  0.00  0.00    +0.000 NA
ATOM     30  C   UNL     1      -0.798  14.858  23.093  0.00  0.00    +0.000 C 
ENDBRANCH  27  29
ENDBRANCH  26  27
ENDBRANCH   1  26
TORSDOF 4
ENDMDL
MODEL 8
REMARK VINA RESULT:      -8.1      8.191     12.472
REMARK  Name = 
REMARK  6 active torsions:
REMARK  status: ('A' for Active; 'I' for Inactive)
REMARK    1  A    between atoms: C_1  and  N_2
REMARK    2  A    between atoms: N_2  and  C_3
REMARK    3  A    between atoms: N_2  and  C_4
REMARK    4  A    between atoms: C_4  and  C_5
REMARK    5  A    between atoms: C_5  and  N_6
REMARK    6  A    between atoms: C_7  and  C_9
REMARK                            x       y       z     vdW  Elec       q    Type
REMARK                         _______ _______ _______ _____ _____    ______ ____
ROOT
ATOM      1  N   UNL     1      -5.352  15.049  22.424  0.00  0.00    +0.000 N 
ATOM      2  C   UNL     1      -6.646  14.689  22.076  0.00  0.00    +0.000 C 
ATOM      3  O   UNL     1      -7.576  15.367  22.486  0.00  0.00    +0.000 OA
ATOM      4  C   UNL     1      -4.278  14.107  22.335  0.00  0.00    +0.000 A 
ATOM      5  N   UNL     1      -3.350  14.041  21.337  0.00  0.00    +0.000 NA
ATOM      6  C   UNL     1      -2.425  13.072  21.607  0.00  0.00    +0.000 A 
ATOM      7  C   UNL     1      -1.346  12.706  20.769  0.00  0.00    +0.000 A 
ATOM      8  C   UNL     1      -0.503  11.682  21.244  0.00  0.00    +0.000 A 
ATOM      9  C   UNL     1      -0.699  11.072  22.443  0.00  0.00    +0.000 A 
ATOM     10  C   UNL     1      -1.755  11.410  23.287  0.00  0.00    +0.000 A 
ATOM     11  C   UNL     1      -2.606  12.417  22.832  0.00  0.00    +0.000 A 
ATOM     12  S   UNL     1      -3.954  13.030  23.597  0.00  0.00    +0.000 S 
ATOM     13  O   UNL     1       0.249  10.154  22.637  0.00  0.00    +0.000 OA
ATOM     14  C   UNL     1       1.083  10.168  21.525  0.00  0.00    +0.000 C 
ATOM     15  O   UNL     1       0.578  11.145  20.665  0.00  0.00    +0.000 OA
ENDROOT
BRANCH   2  16
ATOM     16  C   UNL     1      -7.003  13.544  21.150  0.00  0.00    +0.000 A 
ATOM     17  C   UNL     1      -7.235  12.280  21.724  0.00  0.00    +0.000 A 
ATOM     18  C   UNL     1      -7.437  11.145  20.945  0.00  0.00    +0.000 A 
ATOM     19  C   UNL     1      -7.407  11.227  19.561  0.00  0.00    +0.000 A 
ATOM     20  C   UNL     1      -7.189  12.456  18.937  0.00  0.00    +0.000 A 
ATOM     21  C   UNL     1      -7.159  12.507  17.530  0.00  0.00    +0.000 A 
ATOM     22  C   UNL     1      -6.960  13.716  16.874  0.00  0.00    +0.000 A 
ATOM     23  C   UNL     1      -6.789  14.886  17.610  0.00  0.00    +0.000 A 
ATOM     24  C   UNL     1      -6.796  14.855  19.012  0.00  0.00    +0.000 A 
ATOM     25  C   UNL     1      -6.987  13.638  19.712  0.00  0.00    +0.000 A 
ENDBRANCH   2  16
BRANCH   1  26
ATOM     26  C   UNL     1      -5.111  16.244  23.254  0.00  0.00    +0.000 C 
BRANCH  26  27
ATOM     27  C   UNL     1      -4.331  17.383  22.542  0.00  0.00    +0.000 C 
BRANCH  27  29
ATOM     28  C   UNL     1      -2.726  16.789  24.254  0.00  0.00    +0.000 C 
ATOM     29  N   UNL     1      -2.959  17.619  23.054  0.00  0.00    +0.000 NA
ATOM     30  C   UNL     1      -1.921  17.325  22.057  0.00  0.00    +0.000 C 
ENDBRANCH  27  29
ENDBRANCH  26  27
ENDBRANCH   1  26
TORSDOF 4
ENDMDL
MODEL 9
REMARK VINA RESULT:      -7.9      7.794     10.295
REMARK  Name = 
REMARK  6 active torsions:
REMARK  status: ('A' for Active; 'I' for Inactive)
REMARK    1  A    between atoms: C_1  and  N_2
REMARK    2  A    between atoms: N_2  and  C_3
REMARK    3  A    between atoms: N_2  and  C_4
REMARK    4  A    between atoms: C_4  and  C_5
REMARK    5  A    between atoms: C_5  and  N_6
REMARK    6  A    between atoms: C_7  and  C_9
REMARK                            x       y       z     vdW  Elec       q    Type
REMARK                         _______ _______ _______ _____ _____    ______ ____
ROOT
ATOM      1  N   UNL     1      -0.888  15.051  20.155  0.00  0.00    +0.000 N 
ATOM      2  C   UNL     1      -1.637  13.900  20.358  0.00  0.00    +0.000 C 
ATOM      3  O   UNL     1      -2.750  14.001  20.851  0.00  0.00    +0.000 OA
ATOM      4  C   UNL     1       0.531  14.983  19.977  0.00  0.00    +0.000 A 
ATOM      5  N   UNL     1       1.195  15.063  18.788  0.00  0.00    +0.000 NA
ATOM      6  C   UNL     1       2.546  15.039  18.992  0.00  0.00    +0.000 A 
ATOM      7  C   UNL     1       3.532  15.063  17.980  0.00  0.00    +0.000 A 
ATOM      8  C   UNL     1       4.874  15.040  18.410  0.00  0.00    +0.000 A 
ATOM      9  C   UNL     1       5.217  15.000  19.726  0.00  0.00    +0.000 A 
ATOM     10  C   UNL     1       4.267  14.971  20.743  0.00  0.00    +0.000 A 
ATOM     11  C   UNL     1       2.932  14.987  20.338  0.00  0.00    +0.000 A 
ATOM     12  S   UNL     1       1.576  14.948  21.305  0.00  0.00    +0.000 S 
ATOM     13  O   UNL     1       6.546  14.993  19.839  0.00  0.00    +0.000 OA
ATOM     14  C   UNL     1       7.079  15.025  18.555  0.00  0.00    +0.000 C 
ATOM     15  O   UNL     1       5.994  15.054  17.677  0.00  0.00    +0.000 OA
ENDROOT
BRANCH   2  16
ATOM     16  C   UNL     1      -1.207  12.508  19.944  0.00  0.00    +0.000 A 
ATOM     17  C   UNL     1      -1.209  12.199  18.570  0.00  0.00    +0.000 A 
ATOM     18  C   UNL     1      -0.959  10.912  18.106  0.00  0.00    +0.000 A 
ATOM     19  C   UNL     1      -0.705   9.879  18.997  0.00  0.00    +0.000 A 
ATOM     20  C   UNL     1      -0.682  10.128  20.369  0.00  0.00    +0.000 A 
ATOM     21  C   UNL     1      -0.427   9.059  21.249  0.00  0.00    +0.000 A 
ATOM     22  C   UNL     1      -0.381   9.273  22.622  0.00  0.00    +0.000 A 
ATOM     23  C   UNL     1      -0.589  10.551  23.133  0.00  0.00    +0.000 A 
ATOM     24  C   UNL     1      -0.865  11.627  22.276  0.00  0.00    +0.000 A 
ATOM     25  C   UNL     1      -0.928  11.442  20.872  0.00  0.00    +0.000 A 
ENDBRANCH   2  16
BRANCH   1  26
ATOM     26  C   UNL     1      -1.445  16.371  20.506  0.00  0.00    +0.000 C 
BRANCH  26  27
ATOM     27  C   UNL     1      -0.620  17.582  19.992  0.00  0.00    +0.000 C 
BRANCH  27  29
ATOM     28  C   UNL     1      -0.700  17.956  17.602  0.00  0.00    +0.000 C 
ATOM     29  N   UNL     1      -1.262  18.363  18.906  0.00  0.00    +0.000 NA
ATOM     30  C   UNL     1      -2.722  18.196  18.874  0.00  0.00    +0.000 C 
ENDBRANCH  27  29
ENDBRANCH  26  27
ENDBRANCH   1  26
TORSDOF 4
ENDMDL
