MODEL 1
REMARK VINA RESULT:      -7.3      0.000      0.000
REMARK  Name = 
REMARK  9 active torsions:
REMARK  status: ('A' for Active; 'I' for Inactive)
REMARK    1  A    between atoms: C_1  and  C_2
REMARK    2  A    between atoms: C_2  and  C_3
REMARK    3  A    between atoms: C_2  and  C_4
REMARK    4  A    between atoms: C_4  and  N_5
REMARK    5  A    between atoms: C_4  and  C_6
REMARK    6  A    between atoms: C_6  and  O_7
REMARK    7  A    between atoms: O_7  and  C_8
REMARK    8  A    between atoms: C_12  and  C_13
REMARK    9  A    between atoms: C_14  and  C_15
REMARK                            x       y       z     vdW  Elec       q    Type
REMARK                         _______ _______ _______ _____ _____    ______ ____
ROOT
ATOM      1  C   UNL     1       5.991   5.450  17.186  0.00  0.00    +0.000 A 
ATOM      2  C   UNL     1       6.666   4.671  18.118  0.00  0.00    +0.000 A 
ATOM      3  N   UNL     1       7.675   5.122  18.900  0.00  0.00    +0.000 NA
ATOM      4  C   UNL     1       8.034   6.416  18.733  0.00  0.00    +0.000 A 
ATOM      5  C   UNL     1       7.444   7.285  17.819  0.00  0.00    +0.000 A 
ATOM      6  C   UNL     1       6.391   6.778  17.053  0.00  0.00    +0.000 A 
ENDROOT
BRANCH   5   7
ATOM      7  C   UNL     1       7.886   8.685  17.728  0.00  0.00    +0.000 C 
ATOM      8  C   UNL     1       8.743   9.260  18.590  0.00  0.00    +0.000 C 
BRANCH   8   9
ATOM      9  C   UNL     1       9.183  10.662  18.521  0.00  0.00    +0.000 A 
ATOM     10  C   UNL     1       8.536  11.613  17.733  0.00  0.00    +0.000 A 
ATOM     11  C   UNL     1       8.988  12.922  17.762  0.00  0.00    +0.000 A 
ATOM     12  N   UNL     1      10.022  13.343  18.520  0.00  0.00    +0.000 NA
ATOM     13  C   UNL     1      10.627  12.413  19.286  0.00  0.00    +0.000 A 
ATOM     14  C   UNL     1      10.248  11.080  19.324  0.00  0.00    +0.000 A 
ENDBRANCH   8   9
ENDBRANCH   5   7
BRANCH   1  15
ATOM     15  O   UNL     1       4.987   4.841  16.484  0.00  0.00    +0.000 OA
BRANCH  15  16
ATOM     16  C   UNL     1       4.240   3.852  17.206  0.00  0.00    +0.000 C 
BRANCH  16  17
ATOM     17  C   UNL     1       2.844   4.405  17.562  0.00  0.00    +0.000 C 
BRANCH  17  19
ATOM     18  C   UNL     1       1.676   4.609  19.866  0.00  0.00    +0.000 C 
ATOM     19  C   UNL     1       2.836   5.058  18.970  0.00  0.00    +0.000 C 
ATOM     20  C   UNL     1       2.850   6.588  18.878  0.00  0.00    +0.000 C 
ENDBRANCH  17  19
BRANCH  17  21
ATOM     21  N   UNL     1       1.817   3.356  17.427  0.00  0.00    +0.000 NA
ATOM     22  H   UNL     1       1.969   2.628  18.124  0.00  0.00    +0.000 HD
ATOM     23  H   UNL     1       1.958   2.895  16.526  0.00  0.00    +0.000 HD
ENDBRANCH  17  21
ENDBRANCH  16  17
ENDBRANCH  15  16
ENDBRANCH   1  15
TORSDOF 7
ENDMDL
MODEL 2
REMARK VINA RESULT:      -7.2      1.800      2.304
REMARK  Name = 
REMARK  9 active torsions:
REMARK  status: ('A' for Active; 'I' for Inactive)
REMARK    1  A    between atoms: C_1  and  C_2
REMARK    2  A    between atoms: C_2  and  C_3
REMARK    3  A    between atoms: C_2  and  C_4
REMARK    4  A    between atoms: C_4  and  N_5
REMARK    5  A    between atoms: C_4  and  C_6
REMARK    6  A    between atoms: C_6  and  O_7
REMARK    7  A    between atoms: O_7  and  C_8
REMARK    8  A    between atoms: C_12  and  C_13
REMARK    9  A    between atoms: C_14  and  C_15
REMARK                            x       y       z     vdW  Elec       q    Type
REMARK                         _______ _______ _______ _____ _____    ______ ____
ROOT
ATOM      1  C   UNL     1       6.159   4.783  18.505  0.00  0.00    +0.000 A 
ATOM      2  C   UNL     1       6.029   4.696  17.124  0.00  0.00    +0.000 A 
ATOM      3  N   UNL     1       6.615   5.546  16.248  0.00  0.00    +0.000 NA
ATOM      4  C   UNL     1       7.361   6.540  16.782  0.00  0.00    +0.000 A 
ATOM      5  C   UNL     1       7.549   6.738  18.147  0.00  0.00    +0.000 A 
ATOM      6  C   UNL     1       6.943   5.819  19.008  0.00  0.00    +0.000 A 
ENDROOT
BRANCH   5   7
ATOM      7  C   UNL     1       8.401   7.834  18.632  0.00  0.00    +0.000 C 
ATOM      8  C   UNL     1       8.285   9.111  18.228  0.00  0.00    +0.000 C 
BRANCH   8   9
ATOM      9  C   UNL     1       9.139  10.216  18.692  0.00  0.00    +0.000 A 
ATOM     10  C   UNL     1       9.304  10.519  20.043  0.00  0.00    +0.000 A 
ATOM     11  C   UNL     1      10.164  11.547  20.395  0.00  0.00    +0.000 A 
ATOM     12  N   UNL     1      10.866  12.277  19.504  0.00  0.00    +0.000 NA
ATOM     13  C   UNL     1      10.706  11.961  18.203  0.00  0.00    +0.000 A 
ATOM     14  C   UNL     1       9.869  10.951  17.754  0.00  0.00    +0.000 A 
ENDBRANCH   8   9
ENDBRANCH   5   7
BRANCH   1  15
ATOM     15  O   UNL     1       5.508   3.836  19.247  0.00  0.00    +0.000 OA
BRANCH  15  16
ATOM     16  C   UNL     1       4.094   4.027  19.390  0.00  0.00    +0.000 C 
BRANCH  16  17
ATOM     17  C   UNL     1       3.352   2.711  19.079  0.00  0.00    +0.000 C 
BRANCH  17  19
ATOM     18  C   UNL     1       0.898   3.278  19.689  0.00  0.00    +0.000 C 
ATOM     19  C   UNL     1       2.161   2.488  20.050  0.00  0.00    +0.000 C 
ATOM     20  C   UNL     1       2.557   2.788  21.500  0.00  0.00    +0.000 C 
ENDBRANCH  17  19
BRANCH  17  21
ATOM     21  N   UNL     1       4.288   1.572  19.073  0.00  0.00    +0.000 NA
ATOM     22  H   UNL     1       4.014   0.892  19.781  0.00  0.00    +0.000 HD
ATOM     23  H   UNL     1       5.202   1.917  19.375  0.00  0.00    +0.000 HD
ENDBRANCH  17  21
ENDBRANCH  16  17
ENDBRANCH  15  16
ENDBRANCH   1  15
TORSDOF 7
ENDMDL
MODEL 3
REMARK VINA RESULT:      -7.2      1.647      2.219
REMARK  Name = 
REMARK  9 active torsions:
REMARK  status: ('A' for Active; 'I' for Inactive)
REMARK    1  A    between atoms: C_1  and  C_2
REMARK    2  A    between atoms: C_2  and  C_3
REMARK    3  A    between atoms: C_2  and  C_4
REMARK    4  A    between atoms: C_4  and  N_5
REMARK    5  A    between atoms: C_4  and  C_6
REMARK    6  A    between atoms: C_6  and  O_7
REMARK    7  A    between atoms: O_7  and  C_8
REMARK    8  A    between atoms: C_12  and  C_13
REMARK    9  A    between atoms: C_14  and  C_15
REMARK                            x       y       z     vdW  Elec       q    Type
REMARK                         _______ _______ _______ _____ _____    ______ ____
ROOT
ATOM      1  C   UNL     1       6.580   5.103  18.141  0.00  0.00    +0.000 A 
ATOM      2  C   UNL     1       6.137   5.357  16.848  0.00  0.00    +0.000 A 
ATOM      3  N   UNL     1       6.441   6.473  16.144  0.00  0.00    +0.000 NA
ATOM      4  C   UNL     1       7.220   7.386  16.769  0.00  0.00    +0.000 A 
ATOM      5  C   UNL     1       7.708   7.249  18.066  0.00  0.00    +0.000 A 
ATOM      6  C   UNL     1       7.385   6.068  18.742  0.00  0.00    +0.000 A 
ENDROOT
BRANCH   5   7
ATOM      7  C   UNL     1       8.570   8.285  18.652  0.00  0.00    +0.000 C 
ATOM      8  C   UNL     1       8.559   9.575  18.272  0.00  0.00    +0.000 C 
BRANCH   8   9
ATOM      9  C   UNL     1       9.426  10.620  18.838  0.00  0.00    +0.000 A 
ATOM     10  C   UNL     1       9.498  10.875  20.207  0.00  0.00    +0.000 A 
ATOM     11  C   UNL     1      10.376  11.847  20.659  0.00  0.00    +0.000 A 
ATOM     12  N   UNL     1      11.182  12.566  19.851  0.00  0.00    +0.000 NA
ATOM     13  C   UNL     1      11.111  12.296  18.532  0.00  0.00    +0.000 A 
ATOM     14  C   UNL     1      10.264  11.344  17.985  0.00  0.00    +0.000 A 
ENDBRANCH   8   9
ENDBRANCH   5   7
BRANCH   1  15
ATOM     15  O   UNL     1       6.189   3.920  18.706  0.00  0.00    +0.000 OA
BRANCH  15  16
ATOM     16  C   UNL     1       4.807   3.842  19.082  0.00  0.00    +0.000 C 
BRANCH  16  17
ATOM     17  C   UNL     1       4.068   2.847  18.163  0.00  0.00    +0.000 C 
BRANCH  17  19
ATOM     18  C   UNL     1       2.515   4.908  17.926  0.00  0.00    +0.000 C 
ATOM     19  C   UNL     1       2.682   3.396  17.731  0.00  0.00    +0.000 C 
ATOM     20  C   UNL     1       1.541   2.658  18.439  0.00  0.00    +0.000 C 
ENDBRANCH  17  19
BRANCH  17  21
ATOM     21  N   UNL     1       3.969   1.522  18.801  0.00  0.00    +0.000 NA
ATOM     22  H   UNL     1       3.526   1.607  19.715  0.00  0.00    +0.000 HD
ATOM     23  H   UNL     1       4.919   1.196  18.994  0.00  0.00    +0.000 HD
ENDBRANCH  17  21
ENDBRANCH  16  17
ENDBRANCH  15  16
ENDBRANCH   1  15
TORSDOF 7
ENDMDL
MODEL 4
REMARK VINA RESULT:      -7.2      0.987      1.664
REMARK  Name = 
REMARK  9 active torsions:
REMARK  status: ('A' for Active; 'I' for Inactive)
REMARK    1  A    between atoms: C_1  and  C_2
REMARK    2  A    between atoms: C_2  and  C_3
REMARK    3  A    between atoms: C_2  and  C_4
REMARK    4  A    between atoms: C_4  and  N_5
REMARK    5  A    between atoms: C_4  and  C_6
REMARK    6  A    between atoms: C_6  and  O_7
REMARK    7  A    between atoms: O_7  and  C_8
REMARK    8  A    between atoms: C_12  and  C_13
REMARK    9  A    between atoms: C_14  and  C_15
REMARK                            x       y       z     vdW  Elec       q    Type
REMARK                         _______ _______ _______ _____ _____    ______ ____
ROOT
ATOM      1  C   UNL     1       5.770   5.783  17.502  0.00  0.00    +0.000 A 
ATOM      2  C   UNL     1       6.484   4.921  18.326  0.00  0.00    +0.000 A 
ATOM      3  N   UNL     1       7.644   5.244  18.944  0.00  0.00    +0.000 NA
ATOM      4  C   UNL     1       8.120   6.490  18.718  0.00  0.00    +0.000 A 
ATOM      5  C   UNL     1       7.503   7.432  17.900  0.00  0.00    +0.000 A 
ATOM      6  C   UNL     1       6.296   7.058  17.304  0.00  0.00    +0.000 A 
ENDROOT
BRANCH   5   7
ATOM      7  C   UNL     1       8.085   8.773  17.736  0.00  0.00    +0.000 C 
ATOM      8  C   UNL     1       8.763   9.421  18.699  0.00  0.00    +0.000 C 
BRANCH   8   9
ATOM      9  C   UNL     1       9.337  10.768  18.556  0.00  0.00    +0.000 A 
ATOM     10  C   UNL     1      10.583  11.112  19.081  0.00  0.00    +0.000 A 
ATOM     11  C   UNL     1      11.069  12.390  18.859  0.00  0.00    +0.000 A 
ATOM     12  N   UNL     1      10.412  13.332  18.153  0.00  0.00    +0.000 NA
ATOM     13  C   UNL     1       9.216  12.978  17.640  0.00  0.00    +0.000 A 
ATOM     14  C   UNL     1       8.646  11.725  17.808  0.00  0.00    +0.000 A 
ENDBRANCH   8   9
ENDBRANCH   5   7
BRANCH   1  15
ATOM     15  O   UNL     1       4.609   5.301  16.962  0.00  0.00    +0.000 OA
BRANCH  15  16
ATOM     16  C   UNL     1       4.014   4.198  17.659  0.00  0.00    +0.000 C 
BRANCH  16  17
ATOM     17  C   UNL     1       2.798   4.684  18.474  0.00  0.00    +0.000 C 
BRANCH  17  19
ATOM     18  C   UNL     1       0.973   3.470  19.855  0.00  0.00    +0.000 C 
ATOM     19  C   UNL     1       1.669   3.619  18.498  0.00  0.00    +0.000 C 
ATOM     20  C   UNL     1       2.179   2.252  18.030  0.00  0.00    +0.000 C 
ENDBRANCH  17  19
BRANCH  17  21
ATOM     21  N   UNL     1       2.324   5.988  17.976  0.00  0.00    +0.000 NA
ATOM     22  H   UNL     1       2.829   6.242  17.128  0.00  0.00    +0.000 HD
ATOM     23  H   UNL     1       2.584   6.699  18.663  0.00  0.00    +0.000 HD
ENDBRANCH  17  21
ENDBRANCH  16  17
ENDBRANCH  15  16
ENDBRANCH   1  15
TORSDOF 7
ENDMDL
MODEL 5
REMARK VINA RESULT:      -7.2      3.266      7.011
REMARK  Name = 
REMARK  9 active torsions:
REMARK  status: ('A' for Active; 'I' for Inactive)
REMARK    1  A    between atoms: C_1  and  C_2
REMARK    2  A    between atoms: C_2  and  C_3
REMARK    3  A    between atoms: C_2  and  C_4
REMARK    4  A    between atoms: C_4  and  N_5
REMARK    5  A    between atoms: C_4  and  C_6
REMARK    6  A    between atoms: C_6  and  O_7
REMARK    7  A    between atoms: O_7  and  C_8
REMARK    8  A    between atoms: C_12  and  C_13
REMARK    9  A    between atoms: C_14  and  C_15
REMARK                            x       y       z     vdW  Elec       q    Type
REMARK                         _______ _______ _______ _____ _____    ______ ____
ROOT
ATOM      1  C   UNL     1       4.461   4.146  19.283  0.00  0.00    +0.000 A 
ATOM      2  C   UNL     1       3.734   2.988  19.031  0.00  0.00    +0.000 A 
ATOM      3  N   UNL     1       2.402   2.866  19.233  0.00  0.00    +0.000 NA
ATOM      4  C   UNL     1       1.764   3.954  19.723  0.00  0.00    +0.000 A 
ATOM      5  C   UNL     1       2.388   5.161  20.030  0.00  0.00    +0.000 A 
ATOM      6  C   UNL     1       3.761   5.244  19.780  0.00  0.00    +0.000 A 
ENDROOT
BRANCH   5   7
ATOM      7  C   UNL     1       1.606   6.298  20.535  0.00  0.00    +0.000 C 
ATOM      8  C   UNL     1       1.844   7.580  20.206  0.00  0.00    +0.000 C 
BRANCH   8   9
ATOM      9  C   UNL     1       1.080   8.730  20.715  0.00  0.00    +0.000 A 
ATOM     10  C   UNL     1       0.549   9.708  19.874  0.00  0.00    +0.000 A 
ATOM     11  C   UNL     1      -0.197  10.732  20.433  0.00  0.00    +0.000 A 
ATOM     12  N   UNL     1      -0.454  10.842  21.752  0.00  0.00    +0.000 NA
ATOM     13  C   UNL     1       0.054   9.879  22.549  0.00  0.00    +0.000 A 
ATOM     14  C   UNL     1       0.813   8.816  22.084  0.00  0.00    +0.000 A 
ENDBRANCH   8   9
ENDBRANCH   5   7
BRANCH   1  15
ATOM     15  O   UNL     1       5.801   4.105  19.013  0.00  0.00    +0.000 OA
BRANCH  15  16
ATOM     16  C   UNL     1       6.523   5.315  19.279  0.00  0.00    +0.000 C 
BRANCH  16  17
ATOM     17  C   UNL     1       7.654   5.491  18.244  0.00  0.00    +0.000 C 
BRANCH  17  19
ATOM     18  C   UNL     1       7.840   8.012  17.676  0.00  0.00    +0.000 C 
ATOM     19  C   UNL     1       7.333   6.632  17.242  0.00  0.00    +0.000 C 
ATOM     20  C   UNL     1       5.832   6.708  16.941  0.00  0.00    +0.000 C 
ENDBRANCH  17  19
BRANCH  17  21
ATOM     21  N   UNL     1       7.942   4.216  17.564  0.00  0.00    +0.000 NA
ATOM     22  H   UNL     1       8.655   3.700  18.078  0.00  0.00    +0.000 HD
ATOM     23  H   UNL     1       8.369   4.432  16.660  0.00  0.00    +0.000 HD
ENDBRANCH  17  21
ENDBRANCH  16  17
ENDBRANCH  15  16
ENDBRANCH   1  15
TORSDOF 7
ENDMDL
MODEL 6
REMARK VINA RESULT:      -7.2      1.253      1.519
REMARK  Name = 
REMARK  9 active torsions:
REMARK  status: ('A' for Active; 'I' for Inactive)
REMARK    1  A    between atoms: C_1  and  C_2
REMARK    2  A    between atoms: C_2  and  C_3
REMARK    3  A    between atoms: C_2  and  C_4
REMARK    4  A    between atoms: C_4  and  N_5
REMARK    5  A    between atoms: C_4  and  C_6
REMARK    6  A    between atoms: C_6  and  O_7
REMARK    7  A    between atoms: O_7  and  C_8
REMARK    8  A    between atoms: C_12  and  C_13
REMARK    9  A    between atoms: C_14  and  C_15
REMARK                            x       y       z     vdW  Elec       q    Type
REMARK                         _______ _______ _______ _____ _____    ______ ____
ROOT
ATOM      1  C   UNL     1       5.640   5.848  17.677  0.00  0.00    +0.000 A 
ATOM      2  C   UNL     1       6.324   5.020  18.559  0.00  0.00    +0.000 A 
ATOM      3  N   UNL     1       7.520   5.322  19.117  0.00  0.00    +0.000 NA
ATOM      4  C   UNL     1       8.066   6.509  18.765  0.00  0.00    +0.000 A 
ATOM      5  C   UNL     1       7.484   7.411  17.878  0.00  0.00    +0.000 A 
ATOM      6  C   UNL     1       6.238   7.064  17.349  0.00  0.00    +0.000 A 
ENDROOT
BRANCH   5   7
ATOM      7  C   UNL     1       8.143   8.691  17.577  0.00  0.00    +0.000 C 
ATOM      8  C   UNL     1       8.611   9.534  18.515  0.00  0.00    +0.000 C 
BRANCH   8   9
ATOM      9  C   UNL     1       9.259  10.824  18.230  0.00  0.00    +0.000 A 
ATOM     10  C   UNL     1       8.542  11.947  17.815  0.00  0.00    +0.000 A 
ATOM     11  C   UNL     1       9.225  13.135  17.614  0.00  0.00    +0.000 A 
ATOM     12  N   UNL     1      10.553  13.280  17.802  0.00  0.00    +0.000 NA
ATOM     13  C   UNL     1      11.227  12.189  18.217  0.00  0.00    +0.000 A 
ATOM     14  C   UNL     1      10.633  10.957  18.445  0.00  0.00    +0.000 A 
ENDBRANCH   8   9
ENDBRANCH   5   7
BRANCH   1  15
ATOM     15  O   UNL     1       4.436   5.396  17.213  0.00  0.00    +0.000 OA
BRANCH  15  16
ATOM     16  C   UNL     1       3.280   5.909  17.889  0.00  0.00    +0.000 C 
BRANCH  16  17
ATOM     17  C   UNL     1       2.941   5.018  19.102  0.00  0.00    +0.000 C 
BRANCH  17  19
ATOM     18  C   UNL     1       0.909   3.828  20.181  0.00  0.00    +0.000 C 
ATOM     19  C   UNL     1       1.612   4.247  18.885  0.00  0.00    +0.000 C 
ATOM     20  C   UNL     1       1.815   3.020  17.990  0.00  0.00    +0.000 C 
ENDBRANCH  17  19
BRANCH  17  21
ATOM     21  N   UNL     1       2.931   5.811  20.345  0.00  0.00    +0.000 NA
ATOM     22  H   UNL     1       2.383   6.660  20.212  0.00  0.00    +0.000 HD
ATOM     23  H   UNL     1       3.886   6.134  20.517  0.00  0.00    +0.000 HD
ENDBRANCH  17  21
ENDBRANCH  16  17
ENDBRANCH  15  16
ENDBRANCH   1  15
TORSDOF 7
ENDMDL
MODEL 7
REMARK VINA RESULT:      -7.1      1.620      1.919
REMARK  Name = 
REMARK  9 active torsions:
REMARK  status: ('A' for Active; 'I' for Inactive)
REMARK    1  A    between atoms: C_1  and  C_2
REMARK    2  A    between atoms: C_2  and  C_3
REMARK    3  A    between atoms: C_2  and  C_4
REMARK    4  A    between atoms: C_4  and  N_5
REMARK    5  A    between atoms: C_4  and  C_6
REMARK    6  A    between atoms: C_6  and  O_7
REMARK    7  A    between atoms: O_7  and  C_8
REMARK    8  A    between atoms: C_12  and  C_13
REMARK    9  A    between atoms: C_14  and  C_15
REMARK                            x       y       z     vdW  Elec       q    Type
REMARK                         _______ _______ _______ _____ _____    ______ ____
ROOT
ATOM      1  C   UNL     1       6.341   4.967  18.338  0.00  0.00    +0.000 A 
ATOM      2  C   UNL     1       6.183   4.891  16.959  0.00  0.00    +0.000 A 
ATOM      3  N   UNL     1       6.685   5.793  16.083  0.00  0.00    +0.000 NA
ATOM      4  C   UNL     1       7.371   6.831  16.615  0.00  0.00    +0.000 A 
ATOM      5  C   UNL     1       7.579   7.022  17.979  0.00  0.00    +0.000 A 
ATOM      6  C   UNL     1       7.062   6.049  18.839  0.00  0.00    +0.000 A 
ENDROOT
BRANCH   5   7
ATOM      7  C   UNL     1       8.362   8.169  18.461  0.00  0.00    +0.000 C 
ATOM      8  C   UNL     1       8.219   9.424  17.999  0.00  0.00    +0.000 C 
BRANCH   8   9
ATOM      9  C   UNL     1       9.005  10.579  18.460  0.00  0.00    +0.000 A 
ATOM     10  C   UNL     1       8.966  11.817  17.819  0.00  0.00    +0.000 A 
ATOM     11  C   UNL     1       9.702  12.864  18.348  0.00  0.00    +0.000 A 
ATOM     12  N   UNL     1      10.457  12.766  19.461  0.00  0.00    +0.000 NA
ATOM     13  C   UNL     1      10.472  11.566  20.076  0.00  0.00    +0.000 A 
ATOM     14  C   UNL     1       9.770  10.459  19.624  0.00  0.00    +0.000 A 
ENDBRANCH   8   9
ENDBRANCH   5   7
BRANCH   1  15
ATOM     15  O   UNL     1       5.779   3.965  19.079  0.00  0.00    +0.000 OA
BRANCH  15  16
ATOM     16  C   UNL     1       4.482   3.530  18.649  0.00  0.00    +0.000 C 
BRANCH  16  17
ATOM     17  C   UNL     1       3.414   3.965  19.674  0.00  0.00    +0.000 C 
BRANCH  17  19
ATOM     18  C   UNL     1       1.563   4.161  17.872  0.00  0.00    +0.000 C 
ATOM     19  C   UNL     1       1.988   3.558  19.216  0.00  0.00    +0.000 C 
ATOM     20  C   UNL     1       0.940   3.890  20.283  0.00  0.00    +0.000 C 
ENDBRANCH  17  19
BRANCH  17  21
ATOM     21  N   UNL     1       3.519   5.408  19.957  0.00  0.00    +0.000 NA
ATOM     22  H   UNL     1       4.496   5.670  20.077  0.00  0.00    +0.000 HD
ATOM     23  H   UNL     1       3.083   5.581  20.865  0.00  0.00    +0.000 HD
ENDBRANCH  17  21
ENDBRANCH  16  17
ENDBRANCH  15  16
ENDBRANCH   1  15
TORSDOF 7
ENDMDL
MODEL 8
REMARK VINA RESULT:      -7.1      1.858      2.174
REMARK  Name = 
REMARK  9 active torsions:
REMARK  status: ('A' for Active; 'I' for Inactive)
REMARK    1  A    between atoms: C_1  and  C_2
REMARK    2  A    between atoms: C_2  and  C_3
REMARK    3  A    between atoms: C_2  and  C_4
REMARK    4  A    between atoms: C_4  and  N_5
REMARK    5  A    between atoms: C_4  and  C_6
REMARK    6  A    between atoms: C_6  and  O_7
REMARK    7  A    between atoms: O_7  and  C_8
REMARK    8  A    between atoms: C_12  and  C_13
REMARK    9  A    between atoms: C_14  and  C_15
REMARK                            x       y       z     vdW  Elec       q    Type
REMARK                         _______ _______ _______ _____ _____    ______ ____
ROOT
ATOM      1  C   UNL     1       6.385   4.938  18.335  0.00  0.00    +0.000 A 
ATOM      2  C   UNL     1       6.588   4.362  17.087  0.00  0.00    +0.000 A 
ATOM      3  N   UNL     1       7.174   4.994  16.042  0.00  0.00    +0.000 NA
ATOM      4  C   UNL     1       7.568   6.271  16.255  0.00  0.00    +0.000 A 
ATOM      5  C   UNL     1       7.401   6.957  17.455  0.00  0.00    +0.000 A 
ATOM      6  C   UNL     1       6.813   6.253  18.509  0.00  0.00    +0.000 A 
ENDROOT
BRANCH   5   7
ATOM      7  C   UNL     1       7.886   8.338  17.598  0.00  0.00    +0.000 C 
ATOM      8  C   UNL     1       8.549   8.794  18.676  0.00  0.00    +0.000 C 
BRANCH   8   9
ATOM      9  C   UNL     1       9.026  10.175  18.841  0.00  0.00    +0.000 A 
ATOM     10  C   UNL     1       8.850  11.152  17.860  0.00  0.00    +0.000 A 
ATOM     11  C   UNL     1       9.289  12.440  18.117  0.00  0.00    +0.000 A 
ATOM     12  N   UNL     1       9.877  12.818  19.270  0.00  0.00    +0.000 NA
ATOM     13  C   UNL     1      10.027  11.865  20.212  0.00  0.00    +0.000 A 
ATOM     14  C   UNL     1       9.620  10.549  20.049  0.00  0.00    +0.000 A 
ENDBRANCH   8   9
ENDBRANCH   5   7
BRANCH   1  15
ATOM     15  O   UNL     1       5.787   4.157  19.285  0.00  0.00    +0.000 OA
BRANCH  15  16
ATOM     16  C   UNL     1       4.369   3.993  19.147  0.00  0.00    +0.000 C 
BRANCH  16  17
ATOM     17  C   UNL     1       3.981   2.524  19.415  0.00  0.00    +0.000 C 
BRANCH  17  19
ATOM     18  C   UNL     1       1.508   3.287  19.281  0.00  0.00    +0.000 C 
ATOM     19  C   UNL     1       2.546   2.413  19.996  0.00  0.00    +0.000 C 
ATOM     20  C   UNL     1       2.524   2.715  21.498  0.00  0.00    +0.000 C 
ENDBRANCH  17  19
BRANCH  17  21
ATOM     21  N   UNL     1       4.983   1.868  20.275  0.00  0.00    +0.000 NA
ATOM     22  H   UNL     1       5.870   2.367  20.219  0.00  0.00    +0.000 HD
ATOM     23  H   UNL     1       5.173   0.943  19.884  0.00  0.00    +0.000 HD
ENDBRANCH  17  21
ENDBRANCH  16  17
ENDBRANCH  15  16
ENDBRANCH   1  15
TORSDOF 7
ENDMDL
MODEL 9
REMARK VINA RESULT:      -7.0      4.758      6.022
REMARK  Name = 
REMARK  9 active torsions:
REMARK  status: ('A' for Active; 'I' for Inactive)
REMARK    1  A    between atoms: C_1  and  C_2
REMARK    2  A    between atoms: C_2  and  C_3
REMARK    3  A    between atoms: C_2  and  C_4
REMARK    4  A    between atoms: C_4  and  N_5
REMARK    5  A    between atoms: C_4  and  C_6
REMARK    6  A    between atoms: C_6  and  O_7
REMARK    7  A    between atoms: O_7  and  C_8
REMARK    8  A    between atoms: C_12  and  C_13
REMARK    9  A    between atoms: C_14  and  C_15
REMARK                            x       y       z     vdW  Elec       q    Type
REMARK                         _______ _______ _______ _____ _____    ______ ____
ROOT
ATOM      1  C   UNL     1       5.121   4.598  18.480  0.00  0.00    +0.000 A 
ATOM      2  C   UNL     1       5.827   4.675  17.285  0.00  0.00    +0.000 A 
ATOM      3  N   UNL     1       5.645   5.641  16.353  0.00  0.00    +0.000 NA
ATOM      4  C   UNL     1       4.702   6.571  16.626  0.00  0.00    +0.000 A 
ATOM      5  C   UNL     1       3.921   6.587  17.779  0.00  0.00    +0.000 A 
ATOM      6  C   UNL     1       4.164   5.583  18.720  0.00  0.00    +0.000 A 
ENDROOT
BRANCH   5   7
ATOM      7  C   UNL     1       2.936   7.656  17.999  0.00  0.00    +0.000 C 
ATOM      8  C   UNL     1       2.259   7.830  19.148  0.00  0.00    +0.000 C 
BRANCH   8   9
ATOM      9  C   UNL     1       1.261   8.885  19.378  0.00  0.00    +0.000 A 
ATOM     10  C   UNL     1       0.656   9.088  20.619  0.00  0.00    +0.000 A 
ATOM     11  C   UNL     1      -0.240  10.135  20.760  0.00  0.00    +0.000 A 
ATOM     12  N   UNL     1      -0.563  10.987  19.765  0.00  0.00    +0.000 NA
ATOM     13  C   UNL     1       0.042  10.785  18.577  0.00  0.00    +0.000 A 
ATOM     14  C   UNL     1       0.951   9.766  18.338  0.00  0.00    +0.000 A 
ENDBRANCH   8   9
ENDBRANCH   5   7
BRANCH   1  15
ATOM     15  O   UNL     1       5.435   3.563  19.317  0.00  0.00    +0.000 OA
BRANCH  15  16
ATOM     16  C   UNL     1       4.319   2.825  19.833  0.00  0.00    +0.000 C 
BRANCH  16  17
ATOM     17  C   UNL     1       3.514   2.208  18.671  0.00  0.00    +0.000 C 
BRANCH  17  19
ATOM     18  C   UNL     1       1.287   3.397  18.089  0.00  0.00    +0.000 C 
ATOM     19  C   UNL     1       1.986   2.315  18.920  0.00  0.00    +0.000 C 
ATOM     20  C   UNL     1       1.674   2.526  20.406  0.00  0.00    +0.000 C 
ENDBRANCH  17  19
BRANCH  17  21
ATOM     21  N   UNL     1       3.943   0.820  18.419  0.00  0.00    +0.000 NA
ATOM     22  H   UNL     1       4.275   0.727  17.460  0.00  0.00    +0.000 HD
ATOM     23  H   UNL     1       3.115   0.222  18.473  0.00  0.00    +0.000 HD
ENDBRANCH  17  21
ENDBRANCH  16  17
ENDBRANCH  15  16
ENDBRANCH   1  15
TORSDOF 7
ENDMDL
