MODEL 1
REMARK VINA RESULT:      -9.2      0.000      0.000
REMARK  Name = 
REMARK  9 active torsions:
REMARK  status: ('A' for Active; 'I' for Inactive)
REMARK    1  A    between atoms: C_1  and  N_2
REMARK    2  A    between atoms: C_5  and  C_6
REMARK    3  A    between atoms: N_9  and  C_10
REMARK    4  A    between atoms: C_15  and  C_16
REMARK    5  A    between atoms: N_18  and  C_19
REMARK    6  A    between atoms: C_19  and  C_20
REMARK    7  A    between atoms: C_19  and  C_27
REMARK    8  A    between atoms: C_20  and  C_21
REMARK    9  A    between atoms: C_27  and  C_29
REMARK                            x       y       z     vdW  Elec       q    Type
REMARK                         _______ _______ _______ _____ _____    ______ ____
ROOT
ATOM      1  C   UNL     1       4.086   3.789  18.142  0.00  0.00    +0.000 C 
ATOM      2  O   UNL     1       3.756   3.333  17.048  0.00  0.00    +0.000 OA
ATOM      3  N   UNL     1       5.328   4.350  18.331  0.00  0.00    +0.000 N 
ATOM      4  H   UNL     1       5.666   4.449  19.288  0.00  0.00    +0.000 HD
ENDROOT
BRANCH   1  10
ATOM      5  C   UNL     1       2.223   4.900  19.633  0.00  0.00    +0.000 A 
ATOM      6  N   UNL     1       1.258   4.757  20.610  0.00  0.00    +0.000 NA
ATOM      7  C   UNL     1       1.143   3.579  21.248  0.00  0.00    +0.000 A 
ATOM      8  C   UNL     1       1.917   2.488  20.934  0.00  0.00    +0.000 A 
ATOM      9  C   UNL     1       2.863   2.627  19.918  0.00  0.00    +0.000 A 
ATOM     10  C   UNL     1       3.056   3.851  19.235  0.00  0.00    +0.000 A 
BRANCH   5  14
ATOM     11  C   UNL     1       2.027   8.344  18.937  0.00  0.00    +0.000 A 
ATOM     12  C   UNL     1       2.602   7.915  17.719  0.00  0.00    +0.000 A 
ATOM     13  C   UNL     1       2.766   6.564  17.870  0.00  0.00    +0.000 A 
ATOM     14  N   UNL     1       2.320   6.230  19.134  0.00  0.00    +0.000 N 
ATOM     15  N   UNL     1       1.910   7.334  19.811  0.00  0.00    +0.000 NA
BRANCH  11  20
ATOM     16  C   UNL     1      -0.438  13.513  18.943  0.00  0.00    +0.000 C 
ATOM     17  N   UNL     1       0.059  12.164  18.669  0.00  0.00    +0.000 NA
ATOM     18  C   UNL     1       1.526  12.158  18.640  0.00  0.00    +0.000 C 
ATOM     19  C   UNL     1       2.052  10.771  18.281  0.00  0.00    +0.000 C 
ATOM     20  C   UNL     1       1.556   9.726  19.285  0.00  0.00    +0.000 C 
ATOM     21  C   UNL     1       0.023   9.791  19.377  0.00  0.00    +0.000 C 
ATOM     22  C   UNL     1      -0.462  11.214  19.661  0.00  0.00    +0.000 C 
ENDBRANCH  11  20
ENDBRANCH   5  14
ENDBRANCH   1  10
BRANCH   3  23
ATOM     23  C   UNL     1       6.383   4.369  17.287  0.00  0.00    +0.000 C 
BRANCH  23  24
ATOM     24  C   UNL     1       7.726   4.623  17.986  0.00  0.00    +0.000 C 
ATOM     25  O   UNL     1       8.786   4.062  17.706  0.00  0.00    +0.000 OA
BRANCH  24  26
ATOM     26  C   UNL     1       7.747   5.684  19.091  0.00  0.00    +0.000 C 
ATOM     27  N   UNL     1       8.151   6.925  18.683  0.00  0.00    +0.000 N 
ATOM     28  O   UNL     1       7.425   5.430  20.238  0.00  0.00    +0.000 OA
ATOM     29  H   UNL     1       8.365   7.095  17.706  0.00  0.00    +0.000 HD
ATOM     30  H   UNL     1       8.170   7.691  19.345  0.00  0.00    +0.000 HD
ENDBRANCH  24  26
ENDBRANCH  23  24
BRANCH  23  31
ATOM     31  C   UNL     1       6.132   5.395  16.146  0.00  0.00    +0.000 C 
BRANCH  31  32
ATOM     32  C   UNL     1       6.583   4.855  14.806  0.00  0.00    +0.000 A 
ATOM     33  C   UNL     1       7.625   5.460  14.095  0.00  0.00    +0.000 A 
ATOM     34  C   UNL     1       7.813   5.153  12.747  0.00  0.00    +0.000 A 
ATOM     35  C   UNL     1       6.969   4.241  12.113  0.00  0.00    +0.000 A 
ATOM     36  C   UNL     1       5.997   3.564  12.846  0.00  0.00    +0.000 A 
ATOM     37  C   UNL     1       5.831   3.845  14.196  0.00  0.00    +0.000 A 
ENDBRANCH  31  32
ENDBRANCH  23  31
ENDBRANCH   3  23
TORSDOF 8
ENDMDL
MODEL 2
REMARK VINA RESULT:      -9.1      0.973      1.058
REMARK  Name = 
REMARK  9 active torsions:
REMARK  status: ('A' for Active; 'I' for Inactive)
REMARK    1  A    between atoms: C_1  and  N_2
REMARK    2  A    between atoms: C_5  and  C_6
REMARK    3  A    between atoms: N_9  and  C_10
REMARK    4  A    between atoms: C_15  and  C_16
REMARK    5  A    between atoms: N_18  and  C_19
REMARK    6  A    between atoms: C_19  and  C_20
REMARK    7  A    between atoms: C_19  and  C_27
REMARK    8  A    between atoms: C_20  and  C_21
REMARK    9  A    between atoms: C_27  and  C_29
REMARK                            x       y       z     vdW  Elec       q    Type
REMARK                         _______ _______ _______ _____ _____    ______ ____
ROOT
ATOM      1  C   UNL     1       4.114   3.561  18.302  0.00  0.00    +0.000 C 
ATOM      2  O   UNL     1       3.761   2.908  17.320  0.00  0.00    +0.000 OA
ATOM      3  N   UNL     1       5.263   4.317  18.275  0.00  0.00    +0.000 N 
ATOM      4  H   UNL     1       5.667   4.602  19.167  0.00  0.00    +0.000 HD
ENDROOT
BRANCH   1  10
ATOM      5  C   UNL     1       2.348   4.660  19.916  0.00  0.00    +0.000 A 
ATOM      6  N   UNL     1       1.490   4.522  20.989  0.00  0.00    +0.000 NA
ATOM      7  C   UNL     1       1.498   3.375  21.689  0.00  0.00    +0.000 A 
ATOM      8  C   UNL     1       2.293   2.307  21.352  0.00  0.00    +0.000 A 
ATOM      9  C   UNL     1       3.129   2.437  20.243  0.00  0.00    +0.000 A 
ATOM     10  C   UNL     1       3.192   3.631  19.487  0.00  0.00    +0.000 A 
BRANCH   5  14
ATOM     11  C   UNL     1       1.919   8.052  19.086  0.00  0.00    +0.000 A 
ATOM     12  C   UNL     1       2.373   7.584  17.832  0.00  0.00    +0.000 A 
ATOM     13  C   UNL     1       2.614   6.251  18.026  0.00  0.00    +0.000 A 
ATOM     14  N   UNL     1       2.328   5.965  19.347  0.00  0.00    +0.000 N 
ATOM     15  N   UNL     1       1.947   7.085  20.014  0.00  0.00    +0.000 NA
BRANCH  11  20
ATOM     16  C   UNL     1      -1.264  12.611  20.460  0.00  0.00    +0.000 C 
ATOM     17  N   UNL     1      -0.714  11.297  20.126  0.00  0.00    +0.000 NA
ATOM     18  C   UNL     1      -0.106  11.323  18.790  0.00  0.00    +0.000 C 
ATOM     19  C   UNL     1       0.403   9.938  18.402  0.00  0.00    +0.000 C 
ATOM     20  C   UNL     1       1.427   9.431  19.422  0.00  0.00    +0.000 C 
ATOM     21  C   UNL     1       0.817   9.482  20.831  0.00  0.00    +0.000 C 
ATOM     22  C   UNL     1       0.251  10.868  21.147  0.00  0.00    +0.000 C 
ENDBRANCH  11  20
ENDBRANCH   5  14
ENDBRANCH   1  10
BRANCH   3  23
ATOM     23  C   UNL     1       6.201   4.337  17.125  0.00  0.00    +0.000 C 
BRANCH  23  24
ATOM     24  C   UNL     1       7.560   4.830  17.641  0.00  0.00    +0.000 C 
ATOM     25  O   UNL     1       8.556   4.122  17.799  0.00  0.00    +0.000 OA
BRANCH  24  26
ATOM     26  C   UNL     1       7.689   6.326  17.943  0.00  0.00    +0.000 C 
ATOM     27  N   UNL     1       8.223   6.617  19.168  0.00  0.00    +0.000 N 
ATOM     28  O   UNL     1       7.343   7.179  17.146  0.00  0.00    +0.000 OA
ATOM     29  H   UNL     1       8.537   5.869  19.776  0.00  0.00    +0.000 HD
ATOM     30  H   UNL     1       8.366   7.582  19.438  0.00  0.00    +0.000 HD
ENDBRANCH  24  26
ENDBRANCH  23  24
BRANCH  23  31
ATOM     31  C   UNL     1       5.710   5.182  15.916  0.00  0.00    +0.000 C 
BRANCH  31  32
ATOM     32  C   UNL     1       6.320   4.699  14.618  0.00  0.00    +0.000 A 
ATOM     33  C   UNL     1       7.435   5.337  14.061  0.00  0.00    +0.000 A 
ATOM     34  C   UNL     1       7.784   5.087  12.734  0.00  0.00    +0.000 A 
ATOM     35  C   UNL     1       7.029   4.199  11.967  0.00  0.00    +0.000 A 
ATOM     36  C   UNL     1       5.983   3.490  12.550  0.00  0.00    +0.000 A 
ATOM     37  C   UNL     1       5.655   3.713  13.882  0.00  0.00    +0.000 A 
ENDBRANCH  31  32
ENDBRANCH  23  31
ENDBRANCH   3  23
TORSDOF 8
ENDMDL
MODEL 3
REMARK VINA RESULT:      -8.9      3.248      7.131
REMARK  Name = 
REMARK  9 active torsions:
REMARK  status: ('A' for Active; 'I' for Inactive)
REMARK    1  A    between atoms: C_1  and  N_2
REMARK    2  A    between atoms: C_5  and  C_6
REMARK    3  A    between atoms: N_9  and  C_10
REMARK    4  A    between atoms: C_15  and  C_16
REMARK    5  A    between atoms: N_18  and  C_19
REMARK    6  A    between atoms: C_19  and  C_20
REMARK    7  A    between atoms: C_19  and  C_27
REMARK    8  A    between atoms: C_20  and  C_21
REMARK    9  A    between atoms: C_27  and  C_29
REMARK                            x       y       z     vdW  Elec       q    Type
REMARK                         _______ _______ _______ _____ _____    ______ ____
ROOT
ATOM      1  C   UNL     1       5.055   4.701  18.331  0.00  0.00    +0.000 C 
ATOM      2  O   UNL     1       5.777   4.467  19.299  0.00  0.00    +0.000 OA
ATOM      3  N   UNL     1       3.704   4.907  18.487  0.00  0.00    +0.000 N 
ATOM      4  H   UNL     1       3.109   4.811  17.664  0.00  0.00    +0.000 HD
ENDROOT
BRANCH   1  10
ATOM      5  C   UNL     1       6.771   5.709  16.607  0.00  0.00    +0.000 A 
ATOM      6  N   UNL     1       7.298   5.701  15.331  0.00  0.00    +0.000 NA
ATOM      7  C   UNL     1       6.730   4.923  14.394  0.00  0.00    +0.000 A 
ATOM      8  C   UNL     1       5.669   4.093  14.663  0.00  0.00    +0.000 A 
ATOM      9  C   UNL     1       5.166   4.075  15.965  0.00  0.00    +0.000 A 
ATOM     10  C   UNL     1       5.698   4.897  16.986  0.00  0.00    +0.000 A 
BRANCH   5  14
ATOM     11  C   UNL     1       8.331   8.473  18.125  0.00  0.00    +0.000 A 
ATOM     12  C   UNL     1       8.519   7.530  19.161  0.00  0.00    +0.000 A 
ATOM     13  C   UNL     1       7.918   6.389  18.704  0.00  0.00    +0.000 A 
ATOM     14  N   UNL     1       7.386   6.669  17.460  0.00  0.00    +0.000 N 
ATOM     15  N   UNL     1       7.596   7.969  17.124  0.00  0.00    +0.000 NA
BRANCH  11  20
ATOM     16  C   UNL     1       9.340  14.055  18.916  0.00  0.00    +0.000 C 
ATOM     17  N   UNL     1       8.868  12.670  18.925  0.00  0.00    +0.000 NA
ATOM     18  C   UNL     1       8.359  12.296  17.601  0.00  0.00    +0.000 C 
ATOM     19  C   UNL     1       7.795  10.878  17.620  0.00  0.00    +0.000 C 
ATOM     20  C   UNL     1       8.867   9.874  18.060  0.00  0.00    +0.000 C 
ATOM     21  C   UNL     1       9.458  10.314  19.408  0.00  0.00    +0.000 C 
ATOM     22  C   UNL     1       9.939  11.765  19.364  0.00  0.00    +0.000 C 
ENDBRANCH  11  20
ENDBRANCH   5  14
ENDBRANCH   1  10
BRANCH   3  23
ATOM     23  C   UNL     1       3.003   4.778  19.788  0.00  0.00    +0.000 C 
BRANCH  23  24
ATOM     24  C   UNL     1       1.637   4.131  19.519  0.00  0.00    +0.000 C 
ATOM     25  O   UNL     1       0.645   4.246  20.242  0.00  0.00    +0.000 OA
BRANCH  24  26
ATOM     26  C   UNL     1       1.494   3.313  18.232  0.00  0.00    +0.000 C 
ATOM     27  N   UNL     1       1.691   1.969  18.386  0.00  0.00    +0.000 N 
ATOM     28  O   UNL     1       1.225   3.831  17.163  0.00  0.00    +0.000 OA
ATOM     29  H   UNL     1       1.869   1.583  19.306  0.00  0.00    +0.000 HD
ATOM     30  H   UNL     1       1.591   1.352  17.588  0.00  0.00    +0.000 HD
ENDBRANCH  24  26
ENDBRANCH  23  24
BRANCH  23  31
ATOM     31  C   UNL     1       2.857   6.114  20.570  0.00  0.00    +0.000 C 
BRANCH  31  32
ATOM     32  C   UNL     1       2.213   7.186  19.719  0.00  0.00    +0.000 A 
ATOM     33  C   UNL     1       2.599   7.385  18.388  0.00  0.00    +0.000 A 
ATOM     34  C   UNL     1       2.233   8.557  17.728  0.00  0.00    +0.000 A 
ATOM     35  C   UNL     1       1.477   9.525  18.389  0.00  0.00    +0.000 A 
ATOM     36  C   UNL     1       1.008   9.284  19.678  0.00  0.00    +0.000 A 
ATOM     37  C   UNL     1       1.345   8.101  20.324  0.00  0.00    +0.000 A 
ENDBRANCH  31  32
ENDBRANCH  23  31
ENDBRANCH   3  23
TORSDOF 8
ENDMDL
MODEL 4
REMARK VINA RESULT:      -8.7      0.924      1.232
REMARK  Name = 
REMARK  9 active torsions:
REMARK  status: ('A' for Active; 'I' for Inactive)
REMARK    1  A    between atoms: C_1  and  N_2
REMARK    2  A    between atoms: C_5  and  C_6
REMARK    3  A    between atoms: N_9  and  C_10
REMARK    4  A    between atoms: C_15  and  C_16
REMARK    5  A    between atoms: N_18  and  C_19
REMARK    6  A    between atoms: C_19  and  C_20
REMARK    7  A    between atoms: C_19  and  C_27
REMARK    8  A    between atoms: C_20  and  C_21
REMARK    9  A    between atoms: C_27  and  C_29
REMARK                            x       y       z     vdW  Elec       q    Type
REMARK                         _______ _______ _______ _____ _____    ______ ____
ROOT
ATOM      1  C   UNL     1       4.189   3.579  18.315  0.00  0.00    +0.000 C 
ATOM      2  O   UNL     1       3.871   2.787  17.428  0.00  0.00    +0.000 OA
ATOM      3  N   UNL     1       5.270   4.416  18.164  0.00  0.00    +0.000 N 
ATOM      4  H   UNL     1       5.669   4.837  19.004  0.00  0.00    +0.000 HD
ENDROOT
BRANCH   1  10
ATOM      5  C   UNL     1       2.464   4.775  19.904  0.00  0.00    +0.000 A 
ATOM      6  N   UNL     1       1.624   4.698  20.997  0.00  0.00    +0.000 NA
ATOM      7  C   UNL     1       1.632   3.586  21.752  0.00  0.00    +0.000 A 
ATOM      8  C   UNL     1       2.409   2.494  21.453  0.00  0.00    +0.000 A 
ATOM      9  C   UNL     1       3.226   2.561  20.324  0.00  0.00    +0.000 A 
ATOM     10  C   UNL     1       3.289   3.717  19.511  0.00  0.00    +0.000 A 
BRANCH   5  14
ATOM     11  C   UNL     1       1.934   8.085  18.835  0.00  0.00    +0.000 A 
ATOM     12  C   UNL     1       2.645   7.611  17.710  0.00  0.00    +0.000 A 
ATOM     13  C   UNL     1       2.948   6.311  18.013  0.00  0.00    +0.000 A 
ATOM     14  N   UNL     1       2.448   6.051  19.274  0.00  0.00    +0.000 N 
ATOM     15  N   UNL     1       1.866   7.159  19.803  0.00  0.00    +0.000 NA
BRANCH  11  20
ATOM     16  C   UNL     1       0.702  13.499  20.237  0.00  0.00    +0.000 C 
ATOM     17  N   UNL     1       1.274  12.168  20.033  0.00  0.00    +0.000 NA
ATOM     18  C   UNL     1       0.402  11.143  20.620  0.00  0.00    +0.000 C 
ATOM     19  C   UNL     1       1.026   9.758  20.478  0.00  0.00    +0.000 C 
ATOM     20  C   UNL     1       1.284   9.428  19.004  0.00  0.00    +0.000 C 
ATOM     21  C   UNL     1       2.128  10.544  18.369  0.00  0.00    +0.000 C 
ATOM     22  C   UNL     1       1.504  11.921  18.603  0.00  0.00    +0.000 C 
ENDBRANCH  11  20
ENDBRANCH   5  14
ENDBRANCH   1  10
BRANCH   3  23
ATOM     23  C   UNL     1       6.180   4.373  16.992  0.00  0.00    +0.000 C 
BRANCH  23  24
ATOM     24  C   UNL     1       7.567   4.834  17.461  0.00  0.00    +0.000 C 
ATOM     25  O   UNL     1       8.566   4.116  17.528  0.00  0.00    +0.000 OA
BRANCH  24  26
ATOM     26  C   UNL     1       7.720   6.311  17.837  0.00  0.00    +0.000 C 
ATOM     27  N   UNL     1       8.094   6.534  19.133  0.00  0.00    +0.000 N 
ATOM     28  O   UNL     1       7.523   7.206  17.035  0.00  0.00    +0.000 OA
ATOM     29  H   UNL     1       8.289   5.752  19.748  0.00  0.00    +0.000 HD
ATOM     30  H   UNL     1       8.241   7.482  19.458  0.00  0.00    +0.000 HD
ENDBRANCH  24  26
ENDBRANCH  23  24
BRANCH  23  31
ATOM     31  C   UNL     1       5.687   5.200  15.772  0.00  0.00    +0.000 C 
BRANCH  31  32
ATOM     32  C   UNL     1       6.289   4.694  14.479  0.00  0.00    +0.000 A 
ATOM     33  C   UNL     1       7.403   5.318  13.906  0.00  0.00    +0.000 A 
ATOM     34  C   UNL     1       7.745   5.045  12.582  0.00  0.00    +0.000 A 
ATOM     35  C   UNL     1       6.982   4.148  11.833  0.00  0.00    +0.000 A 
ATOM     36  C   UNL     1       5.936   3.453  12.433  0.00  0.00    +0.000 A 
ATOM     37  C   UNL     1       5.615   3.699  13.762  0.00  0.00    +0.000 A 
ENDBRANCH  31  32
ENDBRANCH  23  31
ENDBRANCH   3  23
TORSDOF 8
ENDMDL
MODEL 5
REMARK VINA RESULT:      -8.7      3.176      6.961
REMARK  Name = 
REMARK  9 active torsions:
REMARK  status: ('A' for Active; 'I' for Inactive)
REMARK    1  A    between atoms: C_1  and  N_2
REMARK    2  A    between atoms: C_5  and  C_6
REMARK    3  A    between atoms: N_9  and  C_10
REMARK    4  A    between atoms: C_15  and  C_16
REMARK    5  A    between atoms: N_18  and  C_19
REMARK    6  A    between atoms: C_19  and  C_20
REMARK    7  A    between atoms: C_19  and  C_27
REMARK    8  A    between atoms: C_20  and  C_21
REMARK    9  A    between atoms: C_27  and  C_29
REMARK                            x       y       z     vdW  Elec       q    Type
REMARK                         _______ _______ _______ _____ _____    ______ ____
ROOT
ATOM      1  C   UNL     1       5.199   4.494  18.166  0.00  0.00    +0.000 C 
ATOM      2  O   UNL     1       5.904   4.132  19.107  0.00  0.00    +0.000 OA
ATOM      3  N   UNL     1       3.864   4.769  18.345  0.00  0.00    +0.000 N 
ATOM      4  H   UNL     1       3.264   4.782  17.520  0.00  0.00    +0.000 HD
ENDROOT
BRANCH   1  10
ATOM      5  C   UNL     1       6.894   5.644  16.511  0.00  0.00    +0.000 A 
ATOM      6  N   UNL     1       7.443   5.706  15.246  0.00  0.00    +0.000 NA
ATOM      7  C   UNL     1       6.929   4.936  14.272  0.00  0.00    +0.000 A 
ATOM      8  C   UNL     1       5.906   4.046  14.493  0.00  0.00    +0.000 A 
ATOM      9  C   UNL     1       5.382   3.958  15.783  0.00  0.00    +0.000 A 
ATOM     10  C   UNL     1       5.855   4.768  16.842  0.00  0.00    +0.000 A 
BRANCH   5  14
ATOM     11  C   UNL     1       8.340   8.404  18.144  0.00  0.00    +0.000 A 
ATOM     12  C   UNL     1       8.458   7.458  19.187  0.00  0.00    +0.000 A 
ATOM     13  C   UNL     1       7.892   6.317  18.685  0.00  0.00    +0.000 A 
ATOM     14  N   UNL     1       7.446   6.601  17.409  0.00  0.00    +0.000 N 
ATOM     15  N   UNL     1       7.677   7.902  17.093  0.00  0.00    +0.000 NA
BRANCH  11  20
ATOM     16  C   UNL     1       9.271  13.989  19.011  0.00  0.00    +0.000 C 
ATOM     17  N   UNL     1       8.803  12.603  18.983  0.00  0.00    +0.000 NA
ATOM     18  C   UNL     1       8.402  12.227  17.622  0.00  0.00    +0.000 C 
ATOM     19  C   UNL     1       7.841  10.807  17.597  0.00  0.00    +0.000 C 
ATOM     20  C   UNL     1       8.876   9.807  18.121  0.00  0.00    +0.000 C 
ATOM     21  C   UNL     1       9.357  10.248  19.513  0.00  0.00    +0.000 C 
ATOM     22  C   UNL     1       9.837  11.700  19.506  0.00  0.00    +0.000 C 
ENDBRANCH  11  20
ENDBRANCH   5  14
ENDBRANCH   1  10
BRANCH   3  23
ATOM     23  C   UNL     1       3.154   4.568  19.633  0.00  0.00    +0.000 C 
BRANCH  23  24
ATOM     24  C   UNL     1       2.926   3.060  19.810  0.00  0.00    +0.000 C 
ATOM     25  O   UNL     1       2.586   2.286  18.914  0.00  0.00    +0.000 OA
BRANCH  24  26
ATOM     26  C   UNL     1       3.181   2.476  21.203  0.00  0.00    +0.000 C 
ATOM     27  N   UNL     1       2.143   2.624  22.082  0.00  0.00    +0.000 N 
ATOM     28  O   UNL     1       4.228   1.925  21.492  0.00  0.00    +0.000 OA
ATOM     29  H   UNL     1       1.276   3.050  21.778  0.00  0.00    +0.000 HD
ATOM     30  H   UNL     1       2.220   2.244  23.018  0.00  0.00    +0.000 HD
ENDBRANCH  24  26
ENDBRANCH  23  24
BRANCH  23  31
ATOM     31  C   UNL     1       1.823   5.363  19.758  0.00  0.00    +0.000 C 
BRANCH  31  32
ATOM     32  C   UNL     1       2.019   6.827  19.430  0.00  0.00    +0.000 A 
ATOM     33  C   UNL     1       1.640   7.828  20.331  0.00  0.00    +0.000 A 
ATOM     34  C   UNL     1       1.534   9.149  19.895  0.00  0.00    +0.000 A 
ATOM     35  C   UNL     1       1.813   9.471  18.567  0.00  0.00    +0.000 A 
ATOM     36  C   UNL     1       2.287   8.493  17.697  0.00  0.00    +0.000 A 
ATOM     37  C   UNL     1       2.425   7.184  18.139  0.00  0.00    +0.000 A 
ENDBRANCH  31  32
ENDBRANCH  23  31
ENDBRANCH   3  23
TORSDOF 8
ENDMDL
MODEL 6
REMARK VINA RESULT:      -8.6      1.896      2.303
REMARK  Name = 
REMARK  9 active torsions:
REMARK  status: ('A' for Active; 'I' for Inactive)
REMARK    1  A    between atoms: C_1  and  N_2
REMARK    2  A    between atoms: C_5  and  C_6
REMARK    3  A    between atoms: N_9  and  C_10
REMARK    4  A    between atoms: C_15  and  C_16
REMARK    5  A    between atoms: N_18  and  C_19
REMARK    6  A    between atoms: C_19  and  C_20
REMARK    7  A    between atoms: C_19  and  C_27
REMARK    8  A    between atoms: C_20  and  C_21
REMARK    9  A    between atoms: C_27  and  C_29
REMARK                            x       y       z     vdW  Elec       q    Type
REMARK                         _______ _______ _______ _____ _____    ______ ____
ROOT
ATOM      1  C   UNL     1       4.886   4.336  18.995  0.00  0.00    +0.000 C 
ATOM      2  O   UNL     1       5.620   4.174  19.969  0.00  0.00    +0.000 OA
ATOM      3  N   UNL     1       5.382   4.818  17.805  0.00  0.00    +0.000 N 
ATOM      4  H   UNL     1       4.718   5.203  17.133  0.00  0.00    +0.000 HD
ENDROOT
BRANCH   1  10
ATOM      5  C   UNL     1       2.269   4.592  19.132  0.00  0.00    +0.000 A 
ATOM      6  N   UNL     1       1.027   3.990  19.120  0.00  0.00    +0.000 NA
ATOM      7  C   UNL     1       0.950   2.648  19.116  0.00  0.00    +0.000 A 
ATOM      8  C   UNL     1       2.063   1.843  19.073  0.00  0.00    +0.000 A 
ATOM      9  C   UNL     1       3.315   2.457  19.044  0.00  0.00    +0.000 A 
ATOM     10  C   UNL     1       3.462   3.864  19.083  0.00  0.00    +0.000 A 
BRANCH   5  14
ATOM     11  C   UNL     1       1.746   7.946  20.057  0.00  0.00    +0.000 A 
ATOM     12  C   UNL     1       2.166   8.158  18.725  0.00  0.00    +0.000 A 
ATOM     13  C   UNL     1       2.439   6.906  18.243  0.00  0.00    +0.000 A 
ATOM     14  N   UNL     1       2.204   6.008  19.266  0.00  0.00    +0.000 N 
ATOM     15  N   UNL     1       1.825   6.652  20.401  0.00  0.00    +0.000 NA
BRANCH  11  20
ATOM     16  C   UNL     1      -1.431  11.724  22.961  0.00  0.00    +0.000 C 
ATOM     17  N   UNL     1      -0.870  10.726  22.051  0.00  0.00    +0.000 NA
ATOM     18  C   UNL     1       0.284  11.280  21.334  0.00  0.00    +0.000 C 
ATOM     19  C   UNL     1       0.830  10.272  20.327  0.00  0.00    +0.000 C 
ATOM     20  C   UNL     1       1.239   8.973  21.028  0.00  0.00    +0.000 C 
ATOM     21  C   UNL     1       0.054   8.437  21.847  0.00  0.00    +0.000 C 
ATOM     22  C   UNL     1      -0.509   9.505  22.785  0.00  0.00    +0.000 C 
ENDBRANCH  11  20
ENDBRANCH   5  14
ENDBRANCH   1  10
BRANCH   3  23
ATOM     23  C   UNL     1       6.786   5.261  17.625  0.00  0.00    +0.000 C 
BRANCH  23  24
ATOM     24  C   UNL     1       6.760   6.738  17.210  0.00  0.00    +0.000 C 
ATOM     25  O   UNL     1       5.972   7.232  16.401  0.00  0.00    +0.000 OA
BRANCH  24  26
ATOM     26  C   UNL     1       7.770   7.670  17.885  0.00  0.00    +0.000 C 
ATOM     27  N   UNL     1       7.807   8.939  17.375  0.00  0.00    +0.000 N 
ATOM     28  O   UNL     1       8.479   7.300  18.804  0.00  0.00    +0.000 OA
ATOM     29  H   UNL     1       7.164   9.210  16.639  0.00  0.00    +0.000 HD
ATOM     30  H   UNL     1       8.431   9.626  17.780  0.00  0.00    +0.000 HD
ENDBRANCH  24  26
ENDBRANCH  23  24
BRANCH  23  31
ATOM     31  C   UNL     1       7.603   4.401  16.619  0.00  0.00    +0.000 C 
BRANCH  31  32
ATOM     32  C   UNL     1       7.026   4.486  15.223  0.00  0.00    +0.000 A 
ATOM     33  C   UNL     1       5.878   3.769  14.868  0.00  0.00    +0.000 A 
ATOM     34  C   UNL     1       5.549   3.609  13.522  0.00  0.00    +0.000 A 
ATOM     35  C   UNL     1       6.358   4.169  12.533  0.00  0.00    +0.000 A 
ATOM     36  C   UNL     1       7.443   4.967  12.889  0.00  0.00    +0.000 A 
ATOM     37  C   UNL     1       7.752   5.154  14.230  0.00  0.00    +0.000 A 
ENDBRANCH  31  32
ENDBRANCH  23  31
ENDBRANCH   3  23
TORSDOF 8
ENDMDL
MODEL 7
REMARK VINA RESULT:      -8.5      3.432      7.644
REMARK  Name = 
REMARK  9 active torsions:
REMARK  status: ('A' for Active; 'I' for Inactive)
REMARK    1  A    between atoms: C_1  and  N_2
REMARK    2  A    between atoms: C_5  and  C_6
REMARK    3  A    between atoms: N_9  and  C_10
REMARK    4  A    between atoms: C_15  and  C_16
REMARK    5  A    between atoms: N_18  and  C_19
REMARK    6  A    between atoms: C_19  and  C_20
REMARK    7  A    between atoms: C_19  and  C_27
REMARK    8  A    between atoms: C_20  and  C_21
REMARK    9  A    between atoms: C_27  and  C_29
REMARK                            x       y       z     vdW  Elec       q    Type
REMARK                         _______ _______ _______ _____ _____    ______ ____
ROOT
ATOM      1  C   UNL     1       4.274   6.353  17.495  0.00  0.00    +0.000 C 
ATOM      2  O   UNL     1       3.970   7.545  17.464  0.00  0.00    +0.000 OA
ATOM      3  N   UNL     1       3.577   5.463  18.278  0.00  0.00    +0.000 N 
ATOM      4  H   UNL     1       4.022   4.572  18.499  0.00  0.00    +0.000 HD
ENDROOT
BRANCH   1  10
ATOM      5  C   UNL     1       6.718   6.056  16.560  0.00  0.00    +0.000 A 
ATOM      6  N   UNL     1       7.565   5.447  15.656  0.00  0.00    +0.000 NA
ATOM      7  C   UNL     1       7.042   4.672  14.690  0.00  0.00    +0.000 A 
ATOM      8  C   UNL     1       5.696   4.419  14.591  0.00  0.00    +0.000 A 
ATOM      9  C   UNL     1       4.848   5.005  15.531  0.00  0.00    +0.000 A 
ATOM     10  C   UNL     1       5.334   5.858  16.550  0.00  0.00    +0.000 A 
BRANCH   5  14
ATOM     11  C   UNL     1       8.421   8.676  18.177  0.00  0.00    +0.000 A 
ATOM     12  C   UNL     1       8.598   7.673  19.157  0.00  0.00    +0.000 A 
ATOM     13  C   UNL     1       7.942   6.581  18.658  0.00  0.00    +0.000 A 
ATOM     14  N   UNL     1       7.390   6.946  17.446  0.00  0.00    +0.000 N 
ATOM     15  N   UNL     1       7.642   8.253  17.171  0.00  0.00    +0.000 NA
BRANCH  11  20
ATOM     16  C   UNL     1       9.539  14.220  19.082  0.00  0.00    +0.000 C 
ATOM     17  N   UNL     1       9.021  12.852  19.040  0.00  0.00    +0.000 NA
ATOM     18  C   UNL     1       8.633  12.495  17.670  0.00  0.00    +0.000 C 
ATOM     19  C   UNL     1       8.021  11.098  17.630  0.00  0.00    +0.000 C 
ATOM     20  C   UNL     1       9.009  10.058  18.169  0.00  0.00    +0.000 C 
ATOM     21  C   UNL     1       9.478  10.476  19.571  0.00  0.00    +0.000 C 
ATOM     22  C   UNL     1      10.011  11.910  19.580  0.00  0.00    +0.000 C 
ENDBRANCH  11  20
ENDBRANCH   5  14
ENDBRANCH   1  10
BRANCH   3  23
ATOM     23  C   UNL     1       2.488   5.867  19.202  0.00  0.00    +0.000 C 
BRANCH  23  24
ATOM     24  C   UNL     1       1.663   4.613  19.526  0.00  0.00    +0.000 C 
ATOM     25  O   UNL     1       1.136   4.375  20.614  0.00  0.00    +0.000 OA
BRANCH  24  26
ATOM     26  C   UNL     1       1.454   3.604  18.393  0.00  0.00    +0.000 C 
ATOM     27  N   UNL     1       1.453   2.295  18.788  0.00  0.00    +0.000 N 
ATOM     28  O   UNL     1       1.301   3.953  17.236  0.00  0.00    +0.000 OA
ATOM     29  H   UNL     1       1.539   2.060  19.770  0.00  0.00    +0.000 HD
ATOM     30  H   UNL     1       1.296   1.564  18.104  0.00  0.00    +0.000 HD
ENDBRANCH  24  26
ENDBRANCH  23  24
BRANCH  23  31
ATOM     31  C   UNL     1       1.589   7.016  18.664  0.00  0.00    +0.000 C 
BRANCH  31  32
ATOM     32  C   UNL     1       1.493   8.155  19.656  0.00  0.00    +0.000 A 
ATOM     33  C   UNL     1       1.500   7.916  21.035  0.00  0.00    +0.000 A 
ATOM     34  C   UNL     1       1.099   8.922  21.914  0.00  0.00    +0.000 A 
ATOM     35  C   UNL     1       0.699  10.164  21.420  0.00  0.00    +0.000 A 
ATOM     36  C   UNL     1       0.788  10.434  20.057  0.00  0.00    +0.000 A 
ATOM     37  C   UNL     1       1.220   9.443  19.184  0.00  0.00    +0.000 A 
ENDBRANCH  31  32
ENDBRANCH  23  31
ENDBRANCH   3  23
TORSDOF 8
ENDMDL
MODEL 8
REMARK VINA RESULT:      -8.5      1.190      1.533
REMARK  Name = 
REMARK  9 active torsions:
REMARK  status: ('A' for Active; 'I' for Inactive)
REMARK    1  A    between atoms: C_1  and  N_2
REMARK    2  A    between atoms: C_5  and  C_6
REMARK    3  A    between atoms: N_9  and  C_10
REMARK    4  A    between atoms: C_15  and  C_16
REMARK    5  A    between atoms: N_18  and  C_19
REMARK    6  A    between atoms: C_19  and  C_20
REMARK    7  A    between atoms: C_19  and  C_27
REMARK    8  A    between atoms: C_20  and  C_21
REMARK    9  A    between atoms: C_27  and  C_29
REMARK                            x       y       z     vdW  Elec       q    Type
REMARK                         _______ _______ _______ _____ _____    ______ ____
ROOT
ATOM      1  C   UNL     1       4.216   4.240  18.065  0.00  0.00    +0.000 C 
ATOM      2  O   UNL     1       3.836   3.663  17.047  0.00  0.00    +0.000 OA
ATOM      3  N   UNL     1       5.303   5.083  18.040  0.00  0.00    +0.000 N 
ATOM      4  H   UNL     1       5.753   5.308  18.927  0.00  0.00    +0.000 HD
ENDROOT
BRANCH   1  10
ATOM      5  C   UNL     1       2.488   5.023  19.892  0.00  0.00    +0.000 A 
ATOM      6  N   UNL     1       1.730   4.713  21.003  0.00  0.00    +0.000 NA
ATOM      7  C   UNL     1       1.891   3.514  21.590  0.00  0.00    +0.000 A 
ATOM      8  C   UNL     1       2.748   2.559  21.101  0.00  0.00    +0.000 A 
ATOM      9  C   UNL     1       3.483   2.863  19.954  0.00  0.00    +0.000 A 
ATOM     10  C   UNL     1       3.384   4.120  19.312  0.00  0.00    +0.000 A 
BRANCH   5  14
ATOM     11  C   UNL     1       1.701   8.420  19.415  0.00  0.00    +0.000 A 
ATOM     12  C   UNL     1       2.104   8.110  18.097  0.00  0.00    +0.000 A 
ATOM     13  C   UNL     1       2.476   6.793  18.148  0.00  0.00    +0.000 A 
ATOM     14  N   UNL     1       2.312   6.366  19.451  0.00  0.00    +0.000 N 
ATOM     15  N   UNL     1       1.882   7.382  20.244  0.00  0.00    +0.000 NA
BRANCH  11  20
ATOM     16  C   UNL     1      -1.817  12.629  21.059  0.00  0.00    +0.000 C 
ATOM     17  N   UNL     1      -1.176  11.402  20.586  0.00  0.00    +0.000 NA
ATOM     18  C   UNL     1      -0.368  11.676  19.392  0.00  0.00    +0.000 C 
ATOM     19  C   UNL     1       0.244  10.388  18.847  0.00  0.00    +0.000 C 
ATOM     20  C   UNL     1       1.115   9.710  19.910  0.00  0.00    +0.000 C 
ATOM     21  C   UNL     1       0.291   9.499  21.190  0.00  0.00    +0.000 C 
ATOM     22  C   UNL     1      -0.367  10.800  21.655  0.00  0.00    +0.000 C 
ENDBRANCH  11  20
ENDBRANCH   5  14
ENDBRANCH   1  10
BRANCH   3  23
ATOM     23  C   UNL     1       6.147   5.290  16.837  0.00  0.00    +0.000 C 
BRANCH  23  24
ATOM     24  C   UNL     1       7.311   6.208  17.237  0.00  0.00    +0.000 C 
ATOM     25  O   UNL     1       7.792   7.092  16.526  0.00  0.00    +0.000 OA
BRANCH  24  26
ATOM     26  C   UNL     1       7.889   6.026  18.643  0.00  0.00    +0.000 C 
ATOM     27  N   UNL     1       8.488   7.141  19.163  0.00  0.00    +0.000 N 
ATOM     28  O   UNL     1       7.814   4.969  19.242  0.00  0.00    +0.000 OA
ATOM     29  H   UNL     1       8.483   8.010  18.641  0.00  0.00    +0.000 HD
ATOM     30  H   UNL     1       8.874   7.115  20.099  0.00  0.00    +0.000 HD
ENDBRANCH  24  26
ENDBRANCH  23  24
BRANCH  23  31
ATOM     31  C   UNL     1       5.378   5.850  15.607  0.00  0.00    +0.000 C 
BRANCH  31  32
ATOM     32  C   UNL     1       5.777   5.137  14.333  0.00  0.00    +0.000 A 
ATOM     33  C   UNL     1       4.943   4.177  13.749  0.00  0.00    +0.000 A 
ATOM     34  C   UNL     1       5.452   3.318  12.775  0.00  0.00    +0.000 A 
ATOM     35  C   UNL     1       6.786   3.421  12.379  0.00  0.00    +0.000 A 
ATOM     36  C   UNL     1       7.587   4.441  12.886  0.00  0.00    +0.000 A 
ATOM     37  C   UNL     1       7.071   5.318  13.832  0.00  0.00    +0.000 A 
ENDBRANCH  31  32
ENDBRANCH  23  31
ENDBRANCH   3  23
TORSDOF 8
ENDMDL
MODEL 9
REMARK VINA RESULT:      -8.3      3.163      7.122
REMARK  Name = 
REMARK  9 active torsions:
REMARK  status: ('A' for Active; 'I' for Inactive)
REMARK    1  A    between atoms: C_1  and  N_2
REMARK    2  A    between atoms: C_5  and  C_6
REMARK    3  A    between atoms: N_9  and  C_10
REMARK    4  A    between atoms: C_15  and  C_16
REMARK    5  A    between atoms: N_18  and  C_19
REMARK    6  A    between atoms: C_19  and  C_20
REMARK    7  A    between atoms: C_19  and  C_27
REMARK    8  A    between atoms: C_20  and  C_21
REMARK    9  A    between atoms: C_27  and  C_29
REMARK                            x       y       z     vdW  Elec       q    Type
REMARK                         _______ _______ _______ _____ _____    ______ ____
ROOT
ATOM      1  C   UNL     1       5.098   4.502  17.936  0.00  0.00    +0.000 C 
ATOM      2  O   UNL     1       5.613   3.742  18.756  0.00  0.00    +0.000 OA
ATOM      3  N   UNL     1       3.949   5.195  18.236  0.00  0.00    +0.000 N 
ATOM      4  H   UNL     1       3.406   5.575  17.461  0.00  0.00    +0.000 HD
ENDROOT
BRANCH   1  10
ATOM      5  C   UNL     1       6.901   5.623  16.378  0.00  0.00    +0.000 A 
ATOM      6  N   UNL     1       7.514   5.680  15.143  0.00  0.00    +0.000 NA
ATOM      7  C   UNL     1       7.034   4.927  14.138  0.00  0.00    +0.000 A 
ATOM      8  C   UNL     1       5.981   4.060  14.300  0.00  0.00    +0.000 A 
ATOM      9  C   UNL     1       5.390   3.976  15.561  0.00  0.00    +0.000 A 
ATOM     10  C   UNL     1       5.827   4.769  16.649  0.00  0.00    +0.000 A 
BRANCH   5  14
ATOM     11  C   UNL     1       8.319   8.342  18.102  0.00  0.00    +0.000 A 
ATOM     12  C   UNL     1       8.371   7.384  19.140  0.00  0.00    +0.000 A 
ATOM     13  C   UNL     1       7.807   6.258  18.602  0.00  0.00    +0.000 A 
ATOM     14  N   UNL     1       7.427   6.562  17.309  0.00  0.00    +0.000 N 
ATOM     15  N   UNL     1       7.697   7.861  17.017  0.00  0.00    +0.000 NA
BRANCH  11  20
ATOM     16  C   UNL     1       9.335  13.890  19.096  0.00  0.00    +0.000 C 
ATOM     17  N   UNL     1       8.842  12.514  19.031  0.00  0.00    +0.000 NA
ATOM     18  C   UNL     1       8.463  12.171  17.655  0.00  0.00    +0.000 C 
ATOM     19  C   UNL     1       7.877  10.764  17.592  0.00  0.00    +0.000 C 
ATOM     20  C   UNL     1       8.882   9.734  18.117  0.00  0.00    +0.000 C 
ATOM     21  C   UNL     1       9.341  10.139  19.527  0.00  0.00    +0.000 C 
ATOM     22  C   UNL     1       9.848  11.582  19.558  0.00  0.00    +0.000 C 
ENDBRANCH  11  20
ENDBRANCH   5  14
ENDBRANCH   1  10
BRANCH   3  23
ATOM     23  C   UNL     1       3.197   5.021  19.503  0.00  0.00    +0.000 C 
BRANCH  23  24
ATOM     24  C   UNL     1       1.854   4.360  19.162  0.00  0.00    +0.000 C 
ATOM     25  O   UNL     1       1.263   4.473  18.087  0.00  0.00    +0.000 OA
BRANCH  24  26
ATOM     26  C   UNL     1       1.226   3.464  20.234  0.00  0.00    +0.000 C 
ATOM     27  N   UNL     1       1.864   3.487  21.443  0.00  0.00    +0.000 N 
ATOM     28  O   UNL     1       0.235   2.790  20.014  0.00  0.00    +0.000 OA
ATOM     29  H   UNL     1       2.659   4.100  21.587  0.00  0.00    +0.000 HD
ATOM     30  H   UNL     1       1.500   2.941  22.215  0.00  0.00    +0.000 HD
ENDBRANCH  24  26
ENDBRANCH  23  24
BRANCH  23  31
ATOM     31  C   UNL     1       2.996   6.334  20.311  0.00  0.00    +0.000 C 
BRANCH  31  32
ATOM     32  C   UNL     1       2.282   7.386  19.491  0.00  0.00    +0.000 A 
ATOM     33  C   UNL     1       2.663   7.657  18.172  0.00  0.00    +0.000 A 
ATOM     34  C   UNL     1       2.217   8.822  17.548  0.00  0.00    +0.000 A 
ATOM     35  C   UNL     1       1.388   9.710  18.235  0.00  0.00    +0.000 A 
ATOM     36  C   UNL     1       0.929   9.391  19.510  0.00  0.00    +0.000 A 
ATOM     37  C   UNL     1       1.346   8.214  20.119  0.00  0.00    +0.000 A 
ENDBRANCH  31  32
ENDBRANCH  23  31
ENDBRANCH   3  23
TORSDOF 8
ENDMDL
