MODEL 1
REMARK VINA RESULT:      -7.4      0.000      0.000
REMARK  Name = 
REMARK  8 active torsions:
REMARK  status: ('A' for Active; 'I' for Inactive)
REMARK    1  A    between atoms: N_1  and  C_2
REMARK    2  A    between atoms: C_2  and  C_3
REMARK    3  A    between atoms: C_3  and  C_4
REMARK    4  A    between atoms: C_3  and  C_18
REMARK    5  A    between atoms: C_4  and  C_5
REMARK    6  A    between atoms: C_5  and  C_6
REMARK    7  A    between atoms: C_6  and  S_7
REMARK    8  A    between atoms: S_7  and  C_8
REMARK                            x       y       z     vdW  Elec       q    Type
REMARK                         _______ _______ _______ _____ _____    ______ ____
ROOT
ATOM      1  C   UNL     1       0.852   3.588  19.596  0.00  0.00    +0.000 C 
ENDROOT
BRANCH   1   2
ATOM      2  C   UNL     1       2.154   4.314  20.059  0.00  0.00    +0.000 C 
BRANCH   2   3
ATOM      3  C   UNL     1       2.032   5.800  19.729  0.00  0.00    +0.000 A 
ATOM      4  C   UNL     1       2.378   6.285  18.452  0.00  0.00    +0.000 A 
ATOM      5  C   UNL     1       2.288   7.654  18.167  0.00  0.00    +0.000 A 
ATOM      6  C   UNL     1       1.856   8.551  19.149  0.00  0.00    +0.000 A 
ATOM      7  F   UNL     1       1.776   9.877  18.872  0.00  0.00    +0.000 F 
ATOM      8  C   UNL     1       1.508   8.083  20.416  0.00  0.00    +0.000 A 
ATOM      9  C   UNL     1       1.592   6.719  20.706  0.00  0.00    +0.000 A 
ENDBRANCH   2   3
BRANCH   2  10
ATOM     10  C   UNL     1       2.537   4.214  21.570  0.00  0.00    +0.000 C 
BRANCH  10  11
ATOM     11  N   UNL     1       2.025   3.036  22.265  0.00  0.00    +0.000 NA
ATOM     12  H   UNL     1       2.733   2.270  22.288  0.00  0.00    +0.000 HD
ATOM     13  H   UNL     1       1.658   3.270  23.216  0.00  0.00    +0.000 HD
ENDBRANCH  10  11
ENDBRANCH   2  10
ENDBRANCH   1   2
BRANCH   1  14
ATOM     14  C   UNL     1       1.062   2.274  18.817  0.00  0.00    +0.000 C 
BRANCH  14  15
ATOM     15  C   UNL     1       2.106   2.417  17.701  0.00  0.00    +0.000 C 
BRANCH  15  16
ATOM     16  S   UNL     1       3.748   1.949  18.364  0.00  0.00    +0.000 S 
BRANCH  16  17
ATOM     17  C   UNL     1       4.629   3.438  17.861  0.00  0.00    +0.000 A 
ATOM     18  C   UNL     1       4.382   4.030  16.616  0.00  0.00    +0.000 A 
ATOM     19  C   UNL     1       5.082   5.172  16.224  0.00  0.00    +0.000 A 
ATOM     20  C   UNL     1       6.051   5.734  17.070  0.00  0.00    +0.000 A 
ATOM     21  C   UNL     1       6.761   6.882  16.687  0.00  0.00    +0.000 A 
ATOM     22  C   UNL     1       7.728   7.427  17.538  0.00  0.00    +0.000 A 
ATOM     23  C   UNL     1       7.993   6.832  18.774  0.00  0.00    +0.000 A 
ATOM     24  C   UNL     1       7.289   5.689  19.169  0.00  0.00    +0.000 A 
ATOM     25  C   UNL     1       6.313   5.133  18.327  0.00  0.00    +0.000 A 
ATOM     26  C   UNL     1       5.598   3.988  18.712  0.00  0.00    +0.000 A 
ENDBRANCH  16  17
ENDBRANCH  15  16
ENDBRANCH  14  15
ENDBRANCH   1  14
TORSDOF 8
ENDMDL
MODEL 2
REMARK VINA RESULT:      -7.3      2.683      5.719
REMARK  Name = 
REMARK  8 active torsions:
REMARK  status: ('A' for Active; 'I' for Inactive)
REMARK    1  A    between atoms: N_1  and  C_2
REMARK    2  A    between atoms: C_2  and  C_3
REMARK    3  A    between atoms: C_3  and  C_4
REMARK    4  A    between atoms: C_3  and  C_18
REMARK    5  A    between atoms: C_4  and  C_5
REMARK    6  A    between atoms: C_5  and  C_6
REMARK    7  A    between atoms: C_6  and  S_7
REMARK    8  A    between atoms: S_7  and  C_8
REMARK                            x       y       z     vdW  Elec       q    Type
REMARK                         _______ _______ _______ _____ _____    ______ ____
ROOT
ATOM      1  C   UNL     1       4.455   3.549  17.164  0.00  0.00    +0.000 C 
ENDROOT
BRANCH   1   2
ATOM      2  C   UNL     1       5.119   4.551  16.168  0.00  0.00    +0.000 C 
BRANCH   2   3
ATOM      3  C   UNL     1       6.083   5.446  16.942  0.00  0.00    +0.000 A 
ATOM      4  C   UNL     1       6.088   6.841  16.744  0.00  0.00    +0.000 A 
ATOM      5  C   UNL     1       6.995   7.652  17.440  0.00  0.00    +0.000 A 
ATOM      6  C   UNL     1       7.906   7.082  18.335  0.00  0.00    +0.000 A 
ATOM      7  F   UNL     1       8.788   7.868  19.001  0.00  0.00    +0.000 F 
ATOM      8  C   UNL     1       7.910   5.702  18.541  0.00  0.00    +0.000 A 
ATOM      9  C   UNL     1       7.006   4.889  17.854  0.00  0.00    +0.000 A 
ENDBRANCH   2   3
BRANCH   2  10
ATOM     10  C   UNL     1       5.919   3.950  14.969  0.00  0.00    +0.000 C 
BRANCH  10  11
ATOM     11  N   UNL     1       6.734   4.905  14.222  0.00  0.00    +0.000 NA
ATOM     12  H   UNL     1       6.898   5.777  14.772  0.00  0.00    +0.000 HD
ATOM     13  H   UNL     1       7.623   4.477  13.875  0.00  0.00    +0.000 HD
ENDBRANCH  10  11
ENDBRANCH   2  10
ENDBRANCH   1   2
BRANCH   1  14
ATOM     14  C   UNL     1       2.943   3.318  16.969  0.00  0.00    +0.000 C 
BRANCH  14  15
ATOM     15  C   UNL     1       2.187   3.236  18.302  0.00  0.00    +0.000 C 
BRANCH  15  16
ATOM     16  S   UNL     1       3.282   3.839  19.642  0.00  0.00    +0.000 S 
BRANCH  16  17
ATOM     17  C   UNL     1       2.604   5.504  19.757  0.00  0.00    +0.000 A 
ATOM     18  C   UNL     1       1.816   5.882  20.853  0.00  0.00    +0.000 A 
ATOM     19  C   UNL     1       1.277   7.168  20.927  0.00  0.00    +0.000 A 
ATOM     20  C   UNL     1       1.509   8.093  19.897  0.00  0.00    +0.000 A 
ATOM     21  C   UNL     1       0.972   9.388  19.960  0.00  0.00    +0.000 A 
ATOM     22  C   UNL     1       1.207  10.297  18.924  0.00  0.00    +0.000 A 
ATOM     23  C   UNL     1       1.976   9.922  17.819  0.00  0.00    +0.000 A 
ATOM     24  C   UNL     1       2.519   8.635  17.746  0.00  0.00    +0.000 A 
ATOM     25  C   UNL     1       2.296   7.713  18.781  0.00  0.00    +0.000 A 
ATOM     26  C   UNL     1       2.837   6.419  18.721  0.00  0.00    +0.000 A 
ENDBRANCH  16  17
ENDBRANCH  15  16
ENDBRANCH  14  15
ENDBRANCH   1  14
TORSDOF 8
ENDMDL
MODEL 3
REMARK VINA RESULT:      -7.1      2.935      6.642
REMARK  Name = 
REMARK  8 active torsions:
REMARK  status: ('A' for Active; 'I' for Inactive)
REMARK    1  A    between atoms: N_1  and  C_2
REMARK    2  A    between atoms: C_2  and  C_3
REMARK    3  A    between atoms: C_3  and  C_4
REMARK    4  A    between atoms: C_3  and  C_18
REMARK    5  A    between atoms: C_4  and  C_5
REMARK    6  A    between atoms: C_5  and  C_6
REMARK    7  A    between atoms: C_6  and  S_7
REMARK    8  A    between atoms: S_7  and  C_8
REMARK                            x       y       z     vdW  Elec       q    Type
REMARK                         _______ _______ _______ _____ _____    ______ ____
ROOT
ATOM      1  C   UNL     1       2.301   4.672  17.831  0.00  0.00    +0.000 C 
ENDROOT
BRANCH   1   2
ATOM      2  C   UNL     1       3.559   3.786  17.569  0.00  0.00    +0.000 C 
BRANCH   2   3
ATOM      3  C   UNL     1       4.809   4.647  17.732  0.00  0.00    +0.000 A 
ATOM      4  C   UNL     1       5.545   4.629  18.933  0.00  0.00    +0.000 A 
ATOM      5  C   UNL     1       6.676   5.443  19.082  0.00  0.00    +0.000 A 
ATOM      6  C   UNL     1       7.082   6.283  18.041  0.00  0.00    +0.000 A 
ATOM      7  F   UNL     1       8.173   7.076  18.191  0.00  0.00    +0.000 F 
ATOM      8  C   UNL     1       6.363   6.308  16.846  0.00  0.00    +0.000 A 
ATOM      9  C   UNL     1       5.237   5.497  16.689  0.00  0.00    +0.000 A 
ENDBRANCH   2   3
BRANCH   2  10
ATOM     10  C   UNL     1       3.753   2.526  18.472  0.00  0.00    +0.000 C 
BRANCH  10  11
ATOM     11  N   UNL     1       2.756   1.474  18.296  0.00  0.00    +0.000 NA
ATOM     12  H   UNL     1       3.182   0.526  18.390  0.00  0.00    +0.000 HD
ATOM     13  H   UNL     1       1.931   1.606  18.926  0.00  0.00    +0.000 HD
ENDBRANCH  10  11
ENDBRANCH   2  10
ENDBRANCH   1   2
BRANCH   1  14
ATOM     14  C   UNL     1       1.888   4.823  19.309  0.00  0.00    +0.000 C 
BRANCH  14  15
ATOM     15  C   UNL     1       2.354   6.156  19.913  0.00  0.00    +0.000 C 
BRANCH  15  16
ATOM     16  S   UNL     1       2.500   7.395  18.571  0.00  0.00    +0.000 S 
BRANCH  16  17
ATOM     17  C   UNL     1       1.466   8.665  19.321  0.00  0.00    +0.000 A 
ATOM     18  C   UNL     1       1.085   9.800  18.593  0.00  0.00    +0.000 A 
ATOM     19  C   UNL     1       0.300  10.790  19.187  0.00  0.00    +0.000 A 
ATOM     20  C   UNL     1      -0.106  10.665  20.525  0.00  0.00    +0.000 A 
ATOM     21  C   UNL     1      -0.894  11.654  21.132  0.00  0.00    +0.000 A 
ATOM     22  C   UNL     1      -1.287  11.518  22.468  0.00  0.00    +0.000 A 
ATOM     23  C   UNL     1      -0.895  10.398  23.206  0.00  0.00    +0.000 A 
ATOM     24  C   UNL     1      -0.111   9.404  22.611  0.00  0.00    +0.000 A 
ATOM     25  C   UNL     1       0.286   9.524  21.269  0.00  0.00    +0.000 A 
ATOM     26  C   UNL     1       1.070   8.532  20.660  0.00  0.00    +0.000 A 
ENDBRANCH  16  17
ENDBRANCH  15  16
ENDBRANCH  14  15
ENDBRANCH   1  14
TORSDOF 8
ENDMDL
MODEL 4
REMARK VINA RESULT:      -6.8      2.798      6.077
REMARK  Name = 
REMARK  8 active torsions:
REMARK  status: ('A' for Active; 'I' for Inactive)
REMARK    1  A    between atoms: N_1  and  C_2
REMARK    2  A    between atoms: C_2  and  C_3
REMARK    3  A    between atoms: C_3  and  C_4
REMARK    4  A    between atoms: C_3  and  C_18
REMARK    5  A    between atoms: C_4  and  C_5
REMARK    6  A    between atoms: C_5  and  C_6
REMARK    7  A    between atoms: C_6  and  S_7
REMARK    8  A    between atoms: S_7  and  C_8
REMARK                            x       y       z     vdW  Elec       q    Type
REMARK                         _______ _______ _______ _____ _____    ______ ____
ROOT
ATOM      1  C   UNL     1       4.898   3.745  17.452  0.00  0.00    +0.000 C 
ENDROOT
BRANCH   1   2
ATOM      2  C   UNL     1       5.178   4.981  16.540  0.00  0.00    +0.000 C 
BRANCH   2   3
ATOM      3  C   UNL     1       6.228   5.860  17.215  0.00  0.00    +0.000 A 
ATOM      4  C   UNL     1       6.993   5.371  18.293  0.00  0.00    +0.000 A 
ATOM      5  C   UNL     1       7.936   6.194  18.923  0.00  0.00    +0.000 A 
ATOM      6  C   UNL     1       8.124   7.510  18.490  0.00  0.00    +0.000 A 
ATOM      7  F   UNL     1       9.032   8.308  19.106  0.00  0.00    +0.000 F 
ATOM      8  C   UNL     1       7.374   8.005  17.422  0.00  0.00    +0.000 A 
ATOM      9  C   UNL     1       6.435   7.190  16.787  0.00  0.00    +0.000 A 
ENDBRANCH   2   3
BRANCH   2  10
ATOM     10  C   UNL     1       5.681   4.706  15.088  0.00  0.00    +0.000 C 
BRANCH  10  11
ATOM     11  N   UNL     1       7.124   4.529  14.951  0.00  0.00    +0.000 NA
ATOM     12  H   UNL     1       7.570   4.308  15.869  0.00  0.00    +0.000 HD
ATOM     13  H   UNL     1       7.366   3.831  14.210  0.00  0.00    +0.000 HD
ENDBRANCH  10  11
ENDBRANCH   2  10
ENDBRANCH   1   2
BRANCH   1  14
ATOM     14  C   UNL     1       3.446   3.225  17.443  0.00  0.00    +0.000 C 
BRANCH  14  15
ATOM     15  C   UNL     1       2.453   4.256  17.997  0.00  0.00    +0.000 C 
BRANCH  15  16
ATOM     16  S   UNL     1       3.153   4.993  19.521  0.00  0.00    +0.000 S 
BRANCH  16  17
ATOM     17  C   UNL     1       2.496   6.655  19.292  0.00  0.00    +0.000 A 
ATOM     18  C   UNL     1       2.675   7.336  18.080  0.00  0.00    +0.000 A 
ATOM     19  C   UNL     1       2.181   8.631  17.917  0.00  0.00    +0.000 A 
ATOM     20  C   UNL     1       1.509   9.271  18.970  0.00  0.00    +0.000 A 
ATOM     21  C   UNL     1       1.008  10.573  18.817  0.00  0.00    +0.000 A 
ATOM     22  C   UNL     1       0.345  11.199  19.877  0.00  0.00    +0.000 A 
ATOM     23  C   UNL     1       0.179  10.534  21.094  0.00  0.00    +0.000 A 
ATOM     24  C   UNL     1       0.671   9.235  21.258  0.00  0.00    +0.000 A 
ATOM     25  C   UNL     1       1.334   8.591  20.201  0.00  0.00    +0.000 A 
ATOM     26  C   UNL     1       1.830   7.287  20.352  0.00  0.00    +0.000 A 
ENDBRANCH  16  17
ENDBRANCH  15  16
ENDBRANCH  14  15
ENDBRANCH   1  14
TORSDOF 8
ENDMDL
MODEL 5
REMARK VINA RESULT:      -6.7      4.449      8.058
REMARK  Name = 
REMARK  8 active torsions:
REMARK  status: ('A' for Active; 'I' for Inactive)
REMARK    1  A    between atoms: N_1  and  C_2
REMARK    2  A    between atoms: C_2  and  C_3
REMARK    3  A    between atoms: C_3  and  C_4
REMARK    4  A    between atoms: C_3  and  C_18
REMARK    5  A    between atoms: C_4  and  C_5
REMARK    6  A    between atoms: C_5  and  C_6
REMARK    7  A    between atoms: C_6  and  S_7
REMARK    8  A    between atoms: S_7  and  C_8
REMARK                            x       y       z     vdW  Elec       q    Type
REMARK                         _______ _______ _______ _____ _____    ______ ____
ROOT
ATOM      1  C   UNL     1       3.614   7.347  17.866  0.00  0.00    +0.000 C 
ENDROOT
BRANCH   1   2
ATOM      2  C   UNL     1       4.081   6.187  18.802  0.00  0.00    +0.000 C 
BRANCH   2   3
ATOM      3  C   UNL     1       3.034   5.077  18.767  0.00  0.00    +0.000 A 
ATOM      4  C   UNL     1       2.251   4.788  19.902  0.00  0.00    +0.000 A 
ATOM      5  C   UNL     1       1.311   3.749  19.868  0.00  0.00    +0.000 A 
ATOM      6  C   UNL     1       1.145   2.986  18.708  0.00  0.00    +0.000 A 
ATOM      7  F   UNL     1       0.241   1.976  18.681  0.00  0.00    +0.000 F 
ATOM      8  C   UNL     1       1.914   3.263  17.577  0.00  0.00    +0.000 A 
ATOM      9  C   UNL     1       2.849   4.300  17.602  0.00  0.00    +0.000 A 
ENDBRANCH   2   3
BRANCH   2  10
ATOM     10  C   UNL     1       5.460   5.523  18.492  0.00  0.00    +0.000 C 
BRANCH  10  11
ATOM     11  N   UNL     1       5.804   4.380  19.333  0.00  0.00    +0.000 NA
ATOM     12  H   UNL     1       6.026   3.537  18.759  0.00  0.00    +0.000 HD
ATOM     13  H   UNL     1       6.562   4.610  20.016  0.00  0.00    +0.000 HD
ENDBRANCH  10  11
ENDBRANCH   2  10
ENDBRANCH   1   2
BRANCH   1  14
ATOM     14  C   UNL     1       2.125   7.732  17.974  0.00  0.00    +0.000 C 
BRANCH  14  15
ATOM     15  C   UNL     1       1.910   9.251  17.943  0.00  0.00    +0.000 C 
BRANCH  15  16
ATOM     16  S   UNL     1       1.260   9.791  19.568  0.00  0.00    +0.000 S 
BRANCH  16  17
ATOM     17  C   UNL     1      -0.329  10.407  18.985  0.00  0.00    +0.000 A 
ATOM     18  C   UNL     1      -1.087  11.288  19.768  0.00  0.00    +0.000 A 
ATOM     19  C   UNL     1      -2.327  11.746  19.318  0.00  0.00    +0.000 A 
ATOM     20  C   UNL     1      -2.834  11.319  18.081  0.00  0.00    +0.000 A 
ATOM     21  C   UNL     1      -4.079  11.772  17.619  0.00  0.00    +0.000 A 
ATOM     22  C   UNL     1      -4.573  11.333  16.386  0.00  0.00    +0.000 A 
ATOM     23  C   UNL     1      -3.831  10.440  15.608  0.00  0.00    +0.000 A 
ATOM     24  C   UNL     1      -2.588   9.983  16.056  0.00  0.00    +0.000 A 
ATOM     25  C   UNL     1      -2.076  10.419  17.289  0.00  0.00    +0.000 A 
ATOM     26  C   UNL     1      -0.828   9.970  17.749  0.00  0.00    +0.000 A 
ENDBRANCH  16  17
ENDBRANCH  15  16
ENDBRANCH  14  15
ENDBRANCH   1  14
TORSDOF 8
ENDMDL
MODEL 6
REMARK VINA RESULT:      -6.7      2.538      6.031
REMARK  Name = 
REMARK  8 active torsions:
REMARK  status: ('A' for Active; 'I' for Inactive)
REMARK    1  A    between atoms: N_1  and  C_2
REMARK    2  A    between atoms: C_2  and  C_3
REMARK    3  A    between atoms: C_3  and  C_4
REMARK    4  A    between atoms: C_3  and  C_18
REMARK    5  A    between atoms: C_4  and  C_5
REMARK    6  A    between atoms: C_5  and  C_6
REMARK    7  A    between atoms: C_6  and  S_7
REMARK    8  A    between atoms: S_7  and  C_8
REMARK                            x       y       z     vdW  Elec       q    Type
REMARK                         _______ _______ _______ _____ _____    ______ ____
ROOT
ATOM      1  C   UNL     1       2.053   4.160  17.802  0.00  0.00    +0.000 C 
ENDROOT
BRANCH   1   2
ATOM      2  C   UNL     1       3.243   3.315  17.249  0.00  0.00    +0.000 C 
BRANCH   2   3
ATOM      3  C   UNL     1       4.450   4.230  17.061  0.00  0.00    +0.000 A 
ATOM      4  C   UNL     1       4.492   5.501  17.667  0.00  0.00    +0.000 A 
ATOM      5  C   UNL     1       5.593   6.346  17.466  0.00  0.00    +0.000 A 
ATOM      6  C   UNL     1       6.658   5.935  16.660  0.00  0.00    +0.000 A 
ATOM      7  F   UNL     1       7.719   6.757  16.461  0.00  0.00    +0.000 F 
ATOM      8  C   UNL     1       6.629   4.678  16.055  0.00  0.00    +0.000 A 
ATOM      9  C   UNL     1       5.538   3.829  16.254  0.00  0.00    +0.000 A 
ENDBRANCH   2   3
BRANCH   2  10
ATOM     10  C   UNL     1       3.723   2.100  18.105  0.00  0.00    +0.000 C 
BRANCH  10  11
ATOM     11  N   UNL     1       4.655   2.426  19.182  0.00  0.00    +0.000 NA
ATOM     12  H   UNL     1       4.956   1.570  19.697  0.00  0.00    +0.000 HD
ATOM     13  H   UNL     1       5.465   2.994  18.842  0.00  0.00    +0.000 HD
ENDBRANCH  10  11
ENDBRANCH   2  10
ENDBRANCH   1   2
BRANCH   1  14
ATOM     14  C   UNL     1       1.185   3.469  18.873  0.00  0.00    +0.000 C 
BRANCH  14  15
ATOM     15  C   UNL     1       0.994   4.340  20.122  0.00  0.00    +0.000 C 
BRANCH  15  16
ATOM     16  S   UNL     1       2.546   5.256  20.449  0.00  0.00    +0.000 S 
BRANCH  16  17
ATOM     17  C   UNL     1       1.865   6.918  20.304  0.00  0.00    +0.000 A 
ATOM     18  C   UNL     1       2.106   7.693  19.162  0.00  0.00    +0.000 A 
ATOM     19  C   UNL     1       1.592   8.987  19.064  0.00  0.00    +0.000 A 
ATOM     20  C   UNL     1       0.837   9.531  20.116  0.00  0.00    +0.000 A 
ATOM     21  C   UNL     1       0.316  10.830  20.030  0.00  0.00    +0.000 A 
ATOM     22  C   UNL     1      -0.430  11.360  21.088  0.00  0.00    +0.000 A 
ATOM     23  C   UNL     1      -0.658  10.600  22.237  0.00  0.00    +0.000 A 
ATOM     24  C   UNL     1      -0.146   9.301  22.334  0.00  0.00    +0.000 A 
ATOM     25  C   UNL     1       0.600   8.754  21.278  0.00  0.00    +0.000 A 
ATOM     26  C   UNL     1       1.117   7.452  21.362  0.00  0.00    +0.000 A 
ENDBRANCH  16  17
ENDBRANCH  15  16
ENDBRANCH  14  15
ENDBRANCH   1  14
TORSDOF 8
ENDMDL
MODEL 7
REMARK VINA RESULT:      -6.7      2.462      5.774
REMARK  Name = 
REMARK  8 active torsions:
REMARK  status: ('A' for Active; 'I' for Inactive)
REMARK    1  A    between atoms: N_1  and  C_2
REMARK    2  A    between atoms: C_2  and  C_3
REMARK    3  A    between atoms: C_3  and  C_4
REMARK    4  A    between atoms: C_3  and  C_18
REMARK    5  A    between atoms: C_4  and  C_5
REMARK    6  A    between atoms: C_5  and  C_6
REMARK    7  A    between atoms: C_6  and  S_7
REMARK    8  A    between atoms: S_7  and  C_8
REMARK                            x       y       z     vdW  Elec       q    Type
REMARK                         _______ _______ _______ _____ _____    ______ ____
ROOT
ATOM      1  C   UNL     1       2.011   3.889  17.929  0.00  0.00    +0.000 C 
ENDROOT
BRANCH   1   2
ATOM      2  C   UNL     1       3.203   3.033  17.394  0.00  0.00    +0.000 C 
BRANCH   2   3
ATOM      3  C   UNL     1       4.374   3.963  17.084  0.00  0.00    +0.000 A 
ATOM      4  C   UNL     1       5.372   3.583  16.164  0.00  0.00    +0.000 A 
ATOM      5  C   UNL     1       6.457   4.432  15.907  0.00  0.00    +0.000 A 
ATOM      6  C   UNL     1       6.560   5.662  16.563  0.00  0.00    +0.000 A 
ATOM      7  F   UNL     1       7.615   6.478  16.317  0.00  0.00    +0.000 F 
ATOM      8  C   UNL     1       5.578   6.050  17.474  0.00  0.00    +0.000 A 
ATOM      9  C   UNL     1       4.491   5.211  17.733  0.00  0.00    +0.000 A 
ENDBRANCH   2   3
BRANCH   2  10
ATOM     10  C   UNL     1       3.752   1.903  18.321  0.00  0.00    +0.000 C 
BRANCH  10  11
ATOM     11  N   UNL     1       4.710   2.339  19.334  0.00  0.00    +0.000 NA
ATOM     12  H   UNL     1       5.447   1.618  19.496  0.00  0.00    +0.000 HD
ATOM     13  H   UNL     1       5.112   3.279  19.116  0.00  0.00    +0.000 HD
ENDBRANCH  10  11
ENDBRANCH   2  10
ENDBRANCH   1   2
BRANCH   1  14
ATOM     14  C   UNL     1       1.233   3.280  19.113  0.00  0.00    +0.000 C 
BRANCH  14  15
ATOM     15  C   UNL     1       0.921   4.317  20.202  0.00  0.00    +0.000 C 
BRANCH  15  16
ATOM     16  S   UNL     1       2.466   5.196  20.643  0.00  0.00    +0.000 S 
BRANCH  16  17
ATOM     17  C   UNL     1       1.928   6.850  20.171  0.00  0.00    +0.000 A 
ATOM     18  C   UNL     1       2.262   7.382  18.919  0.00  0.00    +0.000 A 
ATOM     19  C   UNL     1       1.860   8.671  18.567  0.00  0.00    +0.000 A 
ATOM     20  C   UNL     1       1.125   9.455  19.471  0.00  0.00    +0.000 A 
ATOM     21  C   UNL     1       0.715  10.752  19.129  0.00  0.00    +0.000 A 
ATOM     22  C   UNL     1      -0.012  11.523  20.042  0.00  0.00    +0.000 A 
ATOM     23  C   UNL     1      -0.333  11.007  21.300  0.00  0.00    +0.000 A 
ATOM     24  C   UNL     1       0.067   9.713  21.652  0.00  0.00    +0.000 A 
ATOM     25  C   UNL     1       0.793   8.926  20.744  0.00  0.00    +0.000 A 
ATOM     26  C   UNL     1       1.199   7.626  21.083  0.00  0.00    +0.000 A 
ENDBRANCH  16  17
ENDBRANCH  15  16
ENDBRANCH  14  15
ENDBRANCH   1  14
TORSDOF 8
ENDMDL
MODEL 8
REMARK VINA RESULT:      -6.7      3.675      7.226
REMARK  Name = 
REMARK  8 active torsions:
REMARK  status: ('A' for Active; 'I' for Inactive)
REMARK    1  A    between atoms: N_1  and  C_2
REMARK    2  A    between atoms: C_2  and  C_3
REMARK    3  A    between atoms: C_3  and  C_4
REMARK    4  A    between atoms: C_3  and  C_18
REMARK    5  A    between atoms: C_4  and  C_5
REMARK    6  A    between atoms: C_5  and  C_6
REMARK    7  A    between atoms: C_6  and  S_7
REMARK    8  A    between atoms: S_7  and  C_8
REMARK                            x       y       z     vdW  Elec       q    Type
REMARK                         _______ _______ _______ _____ _____    ______ ____
ROOT
ATOM      1  C   UNL     1       4.500   4.395  16.553  0.00  0.00    +0.000 C 
ENDROOT
BRANCH   1   2
ATOM      2  C   UNL     1       6.013   4.042  16.403  0.00  0.00    +0.000 C 
BRANCH   2   3
ATOM      3  C   UNL     1       6.412   4.204  14.938  0.00  0.00    +0.000 A 
ATOM      4  C   UNL     1       7.419   5.114  14.562  0.00  0.00    +0.000 A 
ATOM      5  C   UNL     1       7.760   5.275  13.212  0.00  0.00    +0.000 A 
ATOM      6  C   UNL     1       7.099   4.536  12.226  0.00  0.00    +0.000 A 
ATOM      7  F   UNL     1       7.425   4.699  10.919  0.00  0.00    +0.000 F 
ATOM      8  C   UNL     1       6.101   3.630  12.586  0.00  0.00    +0.000 A 
ATOM      9  C   UNL     1       5.760   3.461  13.930  0.00  0.00    +0.000 A 
ENDBRANCH   2   3
BRANCH   2  10
ATOM     10  C   UNL     1       7.033   4.870  17.246  0.00  0.00    +0.000 C 
BRANCH  10  11
ATOM     11  N   UNL     1       8.171   4.116  17.766  0.00  0.00    +0.000 NA
ATOM     12  H   UNL     1       7.870   3.196  18.158  0.00  0.00    +0.000 HD
ATOM     13  H   UNL     1       8.935   4.019  17.058  0.00  0.00    +0.000 HD
ENDBRANCH  10  11
ENDBRANCH   2  10
ENDBRANCH   1   2
BRANCH   1  14
ATOM     14  C   UNL     1       3.886   4.119  17.940  0.00  0.00    +0.000 C 
BRANCH  14  15
ATOM     15  C   UNL     1       3.570   5.411  18.708  0.00  0.00    +0.000 C 
BRANCH  15  16
ATOM     16  S   UNL     1       3.718   6.832  17.561  0.00  0.00    +0.000 S 
BRANCH  16  17
ATOM     17  C   UNL     1       2.537   7.914  18.386  0.00  0.00    +0.000 A 
ATOM     18  C   UNL     1       1.965   8.998  17.708  0.00  0.00    +0.000 A 
ATOM     19  C   UNL     1       1.065   9.844  18.359  0.00  0.00    +0.000 A 
ATOM     20  C   UNL     1       0.733   9.624  19.705  0.00  0.00    +0.000 A 
ATOM     21  C   UNL     1      -0.169  10.468  20.370  0.00  0.00    +0.000 A 
ATOM     22  C   UNL     1      -0.487  10.238  21.713  0.00  0.00    +0.000 A 
ATOM     23  C   UNL     1       0.093   9.170  22.400  0.00  0.00    +0.000 A 
ATOM     24  C   UNL     1       0.992   8.320  21.748  0.00  0.00    +0.000 A 
ATOM     25  C   UNL     1       1.317   8.534  20.399  0.00  0.00    +0.000 A 
ATOM     26  C   UNL     1       2.215   7.687  19.731  0.00  0.00    +0.000 A 
ENDBRANCH  16  17
ENDBRANCH  15  16
ENDBRANCH  14  15
ENDBRANCH   1  14
TORSDOF 8
ENDMDL
MODEL 9
REMARK VINA RESULT:      -6.6      3.074      6.820
REMARK  Name = 
REMARK  8 active torsions:
REMARK  status: ('A' for Active; 'I' for Inactive)
REMARK    1  A    between atoms: N_1  and  C_2
REMARK    2  A    between atoms: C_2  and  C_3
REMARK    3  A    between atoms: C_3  and  C_4
REMARK    4  A    between atoms: C_3  and  C_18
REMARK    5  A    between atoms: C_4  and  C_5
REMARK    6  A    between atoms: C_5  and  C_6
REMARK    7  A    between atoms: C_6  and  S_7
REMARK    8  A    between atoms: S_7  and  C_8
REMARK                            x       y       z     vdW  Elec       q    Type
REMARK                         _______ _______ _______ _____ _____    ______ ____
ROOT
ATOM      1  C   UNL     1       4.377   4.270  19.286  0.00  0.00    +0.000 C 
ENDROOT
BRANCH   1   2
ATOM      2  C   UNL     1       3.933   3.725  17.892  0.00  0.00    +0.000 C 
BRANCH   2   3
ATOM      3  C   UNL     1       4.986   4.110  16.857  0.00  0.00    +0.000 A 
ATOM      4  C   UNL     1       6.205   4.695  17.251  0.00  0.00    +0.000 A 
ATOM      5  C   UNL     1       7.155   5.070  16.291  0.00  0.00    +0.000 A 
ATOM      6  C   UNL     1       6.898   4.869  14.931  0.00  0.00    +0.000 A 
ATOM      7  F   UNL     1       7.816   5.239  14.003  0.00  0.00    +0.000 F 
ATOM      8  C   UNL     1       5.695   4.288  14.528  0.00  0.00    +0.000 A 
ATOM      9  C   UNL     1       4.746   3.909  15.479  0.00  0.00    +0.000 A 
ENDBRANCH   2   3
BRANCH   2  10
ATOM     10  C   UNL     1       3.706   2.185  17.760  0.00  0.00    +0.000 C 
BRANCH  10  11
ATOM     11  N   UNL     1       2.320   1.745  17.897  0.00  0.00    +0.000 NA
ATOM     12  H   UNL     1       2.015   1.184  17.072  0.00  0.00    +0.000 HD
ATOM     13  H   UNL     1       2.153   1.248  18.802  0.00  0.00    +0.000 HD
ENDBRANCH  10  11
ENDBRANCH   2  10
ENDBRANCH   1   2
BRANCH   1  14
ATOM     14  C   UNL     1       3.737   5.605  19.715  0.00  0.00    +0.000 C 
BRANCH  14  15
ATOM     15  C   UNL     1       2.519   5.972  18.857  0.00  0.00    +0.000 C 
BRANCH  15  16
ATOM     16  S   UNL     1       2.880   7.520  17.946  0.00  0.00    +0.000 S 
BRANCH  16  17
ATOM     17  C   UNL     1       1.792   8.600  18.892  0.00  0.00    +0.000 A 
ATOM     18  C   UNL     1       1.182   9.708  18.290  0.00  0.00    +0.000 A 
ATOM     19  C   UNL     1       0.356  10.552  19.034  0.00  0.00    +0.000 A 
ATOM     20  C   UNL     1       0.138  10.307  20.399  0.00  0.00    +0.000 A 
ATOM     21  C   UNL     1      -0.690  11.149  21.157  0.00  0.00    +0.000 A 
ATOM     22  C   UNL     1      -0.894  10.894  22.517  0.00  0.00    +0.000 A 
ATOM     23  C   UNL     1      -0.274   9.802  23.129  0.00  0.00    +0.000 A 
ATOM     24  C   UNL     1       0.551   8.953  22.384  0.00  0.00    +0.000 A 
ATOM     25  C   UNL     1       0.761   9.193  21.016  0.00  0.00    +0.000 A 
ATOM     26  C   UNL     1       1.584   8.348  20.256  0.00  0.00    +0.000 A 
ENDBRANCH  16  17
ENDBRANCH  15  16
ENDBRANCH  14  15
ENDBRANCH   1  14
TORSDOF 8
ENDMDL
