MODEL 1
REMARK VINA RESULT:      -8.8      0.000      0.000
REMARK  Name = 
REMARK  7 active torsions:
REMARK  status: ('A' for Active; 'I' for Inactive)
REMARK    1  A    between atoms: C_1  and  C_2
REMARK    2  A    between atoms: C_6  and  C_7
REMARK    3  A    between atoms: C_7  and  N_8
REMARK    4  A    between atoms: C_11  and  C_12
REMARK    5  A    between atoms: C_12  and  O_13
REMARK    6  A    between atoms: O_13  and  C_14
REMARK    7  A    between atoms: C_18  and  C_19
REMARK                            x       y       z     vdW  Elec       q    Type
REMARK                         _______ _______ _______ _____ _____    ______ ____
ROOT
ATOM      1  N   UNL     1       5.716   4.964  16.874  0.00  0.00    +0.000 N 
ATOM      2  C   UNL     1       6.690   4.569  17.719  0.00  0.00    +0.000 A 
ATOM      3  C   UNL     1       7.558   5.495  18.282  0.00  0.00    +0.000 A 
ATOM      4  C   UNL     1       7.473   6.836  17.916  0.00  0.00    +0.000 A 
ATOM      5  C   UNL     1       6.555   7.195  16.929  0.00  0.00    +0.000 A 
ATOM      6  C   UNL     1       5.674   6.239  16.428  0.00  0.00    +0.000 A 
ENDROOT
BRANCH   1   7
ATOM      7  C   UNL     1       4.651   3.995  16.504  0.00  0.00    +0.000 C 
BRANCH   7  13
ATOM      8  C   UNL     1       1.957   5.654  20.395  0.00  0.00    +0.000 C 
ATOM      9  C   UNL     1       2.463   4.499  19.579  0.00  0.00    +0.000 A 
ATOM     10  C   UNL     1       2.217   3.177  19.960  0.00  0.00    +0.000 A 
ATOM     11  C   UNL     1       2.724   2.120  19.204  0.00  0.00    +0.000 A 
ATOM     12  C   UNL     1       3.501   2.374  18.073  0.00  0.00    +0.000 A 
ATOM     13  C   UNL     1       3.766   3.695  17.683  0.00  0.00    +0.000 A 
ATOM     14  C   UNL     1       3.223   4.749  18.431  0.00  0.00    +0.000 A 
ENDBRANCH   7  13
ENDBRANCH   1   7
BRANCH   4  15
ATOM     15  C   UNL     1       8.294   7.871  18.654  0.00  0.00    +0.000 C 
BRANCH  15  16
ATOM     16  O   UNL     1       8.355   9.104  17.946  0.00  0.00    +0.000 OA
BRANCH  16  17
ATOM     17  C   UNL     1       8.987  10.135  18.602  0.00  0.00    +0.000 A 
ATOM     18  C   UNL     1       9.164  10.243  19.995  0.00  0.00    +0.000 A 
ATOM     19  C   UNL     1       9.925  11.285  20.554  0.00  0.00    +0.000 A 
ATOM     20  C   UNL     1      10.429  12.274  19.726  0.00  0.00    +0.000 A 
ATOM     21  C   UNL     1      11.049  13.547  20.143  0.00  0.00    +0.000 A 
ATOM     22  C   UNL     1      12.332  13.925  19.400  0.00  0.00    +0.000 C 
ATOM     23  C   UNL     1      10.042  14.438  20.124  0.00  0.00    +0.000 A 
ATOM     24  C   UNL     1       9.504  14.600  18.722  0.00  0.00    +0.000 A 
ATOM     25  O   UNL     1       8.803  15.553  18.428  0.00  0.00    +0.000 OA
ATOM     26  O   UNL     1       9.822  13.565  17.805  0.00  0.00    +0.000 OA
ATOM     27  C   UNL     1       9.988  12.286  18.401  0.00  0.00    +0.000 A 
ATOM     28  C   UNL     1       9.410  11.182  17.788  0.00  0.00    +0.000 A 
ENDBRANCH  16  17
ENDBRANCH  15  16
ENDBRANCH   4  15
TORSDOF 5
ENDMDL
MODEL 2
REMARK VINA RESULT:      -8.7      0.956      1.481
REMARK  Name = 
REMARK  7 active torsions:
REMARK  status: ('A' for Active; 'I' for Inactive)
REMARK    1  A    between atoms: C_1  and  C_2
REMARK    2  A    between atoms: C_6  and  C_7
REMARK    3  A    between atoms: C_7  and  N_8
REMARK    4  A    between atoms: C_11  and  C_12
REMARK    5  A    between atoms: C_12  and  O_13
REMARK    6  A    between atoms: O_13  and  C_14
REMARK    7  A    between atoms: C_18  and  C_19
REMARK                            x       y       z     vdW  Elec       q    Type
REMARK                         _______ _______ _______ _____ _____    ______ ____
ROOT
ATOM      1  N   UNL     1       5.560   4.953  17.709  0.00  0.00    +0.000 N 
ATOM      2  C   UNL     1       5.375   6.113  17.047  0.00  0.00    +0.000 A 
ATOM      3  C   UNL     1       6.283   7.156  17.179  0.00  0.00    +0.000 A 
ATOM      4  C   UNL     1       7.357   7.032  18.056  0.00  0.00    +0.000 A 
ATOM      5  C   UNL     1       7.443   5.881  18.839  0.00  0.00    +0.000 A 
ATOM      6  C   UNL     1       6.535   4.843  18.638  0.00  0.00    +0.000 A 
ENDROOT
BRANCH   1   7
ATOM      7  C   UNL     1       4.725   3.778  17.343  0.00  0.00    +0.000 C 
BRANCH   7  13
ATOM      8  C   UNL     1       2.352   2.954  21.682  0.00  0.00    +0.000 C 
ATOM      9  C   UNL     1       2.288   3.355  20.237  0.00  0.00    +0.000 A 
ATOM     10  C   UNL     1       1.066   3.601  19.604  0.00  0.00    +0.000 A 
ATOM     11  C   UNL     1       1.028   3.941  18.252  0.00  0.00    +0.000 A 
ATOM     12  C   UNL     1       2.211   4.017  17.513  0.00  0.00    +0.000 A 
ATOM     13  C   UNL     1       3.444   3.763  18.130  0.00  0.00    +0.000 A 
ATOM     14  C   UNL     1       3.472   3.454  19.498  0.00  0.00    +0.000 A 
ENDBRANCH   7  13
ENDBRANCH   1   7
BRANCH   4  15
ATOM     15  C   UNL     1       8.442   8.088  18.071  0.00  0.00    +0.000 C 
BRANCH  15  16
ATOM     16  O   UNL     1       7.905   9.402  17.972  0.00  0.00    +0.000 OA
BRANCH  16  17
ATOM     17  C   UNL     1       8.711  10.410  18.447  0.00  0.00    +0.000 A 
ATOM     18  C   UNL     1       9.506  10.355  19.608  0.00  0.00    +0.000 A 
ATOM     19  C   UNL     1      10.381  11.403  19.943  0.00  0.00    +0.000 A 
ATOM     20  C   UNL     1      10.390  12.550  19.168  0.00  0.00    +0.000 A 
ATOM     21  C   UNL     1      11.062  13.827  19.482  0.00  0.00    +0.000 A 
ATOM     22  C   UNL     1      11.832  14.464  18.324  0.00  0.00    +0.000 C 
ATOM     23  C   UNL     1      10.113  14.574  20.074  0.00  0.00    +0.000 A 
ATOM     24  C   UNL     1       8.980  14.849  19.114  0.00  0.00    +0.000 A 
ATOM     25  O   UNL     1       8.171  15.733  19.339  0.00  0.00    +0.000 OA
ATOM     26  O   UNL     1       8.894  13.995  17.984  0.00  0.00    +0.000 OA
ATOM     27  C   UNL     1       9.386  12.681  18.206  0.00  0.00    +0.000 A 
ATOM     28  C   UNL     1       8.652  11.602  17.731  0.00  0.00    +0.000 A 
ENDBRANCH  16  17
ENDBRANCH  15  16
ENDBRANCH   4  15
TORSDOF 5
ENDMDL
MODEL 3
REMARK VINA RESULT:      -8.5      5.604      9.274
REMARK  Name = 
REMARK  7 active torsions:
REMARK  status: ('A' for Active; 'I' for Inactive)
REMARK    1  A    between atoms: C_1  and  C_2
REMARK    2  A    between atoms: C_6  and  C_7
REMARK    3  A    between atoms: C_7  and  N_8
REMARK    4  A    between atoms: C_11  and  C_12
REMARK    5  A    between atoms: C_12  and  O_13
REMARK    6  A    between atoms: O_13  and  C_14
REMARK    7  A    between atoms: C_18  and  C_19
REMARK                            x       y       z     vdW  Elec       q    Type
REMARK                         _______ _______ _______ _____ _____    ______ ____
ROOT
ATOM      1  N   UNL     1      -0.230  10.516  19.449  0.00  0.00    +0.000 N 
ATOM      2  C   UNL     1      -0.347   9.762  20.561  0.00  0.00    +0.000 A 
ATOM      3  C   UNL     1       0.500   8.683  20.777  0.00  0.00    +0.000 A 
ATOM      4  C   UNL     1       1.432   8.329  19.805  0.00  0.00    +0.000 A 
ATOM      5  C   UNL     1       1.434   9.034  18.601  0.00  0.00    +0.000 A 
ATOM      6  C   UNL     1       0.597  10.137  18.449  0.00  0.00    +0.000 A 
ENDROOT
BRANCH   1   7
ATOM      7  C   UNL     1      -0.965  11.807  19.377  0.00  0.00    +0.000 C 
BRANCH   7  13
ATOM      8  C   UNL     1      -3.306  10.614  15.106  0.00  0.00    +0.000 C 
ATOM      9  C   UNL     1      -3.387  11.080  16.531  0.00  0.00    +0.000 A 
ATOM     10  C   UNL     1      -4.603  11.467  17.101  0.00  0.00    +0.000 A 
ATOM     11  C   UNL     1      -4.651  11.928  18.417  0.00  0.00    +0.000 A 
ATOM     12  C   UNL     1      -3.479  12.026  19.169  0.00  0.00    +0.000 A 
ATOM     13  C   UNL     1      -2.249  11.652  18.609  0.00  0.00    +0.000 A 
ATOM     14  C   UNL     1      -2.218  11.159  17.296  0.00  0.00    +0.000 A 
ENDBRANCH   7  13
ENDBRANCH   1   7
BRANCH   4  15
ATOM     15  C   UNL     1       2.471   7.271  20.110  0.00  0.00    +0.000 C 
BRANCH  15  16
ATOM     16  O   UNL     1       2.098   5.998  19.596  0.00  0.00    +0.000 OA
BRANCH  16  17
ATOM     17  C   UNL     1       3.017   5.400  18.764  0.00  0.00    +0.000 A 
ATOM     18  C   UNL     1       3.502   4.083  18.879  0.00  0.00    +0.000 A 
ATOM     19  C   UNL     1       4.357   3.535  17.907  0.00  0.00    +0.000 A 
ATOM     20  C   UNL     1       4.804   4.335  16.870  0.00  0.00    +0.000 A 
ATOM     21  C   UNL     1       5.866   4.012  15.896  0.00  0.00    +0.000 A 
ATOM     22  C   UNL     1       5.542   4.349  14.439  0.00  0.00    +0.000 C 
ATOM     23  C   UNL     1       6.982   4.551  16.418  0.00  0.00    +0.000 A 
ATOM     24  C   UNL     1       6.852   6.053  16.510  0.00  0.00    +0.000 A 
ATOM     25  O   UNL     1       7.836   6.756  16.674  0.00  0.00    +0.000 OA
ATOM     26  O   UNL     1       5.535   6.574  16.444  0.00  0.00    +0.000 OA
ATOM     27  C   UNL     1       4.535   5.703  16.955  0.00  0.00    +0.000 A 
ATOM     28  C   UNL     1       3.548   6.228  17.778  0.00  0.00    +0.000 A 
ENDBRANCH  16  17
ENDBRANCH  15  16
ENDBRANCH   4  15
TORSDOF 5
ENDMDL
MODEL 4
REMARK VINA RESULT:      -8.5      7.508     10.101
REMARK  Name = 
REMARK  7 active torsions:
REMARK  status: ('A' for Active; 'I' for Inactive)
REMARK    1  A    between atoms: C_1  and  C_2
REMARK    2  A    between atoms: C_6  and  C_7
REMARK    3  A    between atoms: C_7  and  N_8
REMARK    4  A    between atoms: C_11  and  C_12
REMARK    5  A    between atoms: C_12  and  O_13
REMARK    6  A    between atoms: O_13  and  C_14
REMARK    7  A    between atoms: C_18  and  C_19
REMARK                            x       y       z     vdW  Elec       q    Type
REMARK                         _______ _______ _______ _____ _____    ______ ____
ROOT
ATOM      1  N   UNL     1       2.236   7.678  19.154  0.00  0.00    +0.000 N 
ATOM      2  C   UNL     1       2.038   8.399  18.032  0.00  0.00    +0.000 A 
ATOM      3  C   UNL     1       1.383   9.623  18.082  0.00  0.00    +0.000 A 
ATOM      4  C   UNL     1       0.860  10.079  19.289  0.00  0.00    +0.000 A 
ATOM      5  C   UNL     1       0.948   9.247  20.405  0.00  0.00    +0.000 A 
ATOM      6  C   UNL     1       1.655   8.050  20.317  0.00  0.00    +0.000 A 
ENDROOT
BRANCH   1   7
ATOM      7  C   UNL     1       3.163   6.517  19.107  0.00  0.00    +0.000 C 
BRANCH   7  13
ATOM      8  C   UNL     1       1.414   2.604  21.709  0.00  0.00    +0.000 C 
ATOM      9  C   UNL     1       1.558   3.314  20.393  0.00  0.00    +0.000 A 
ATOM     10  C   UNL     1       1.099   2.741  19.204  0.00  0.00    +0.000 A 
ATOM     11  C   UNL     1       1.272   3.403  17.989  0.00  0.00    +0.000 A 
ATOM     12  C   UNL     1       1.926   4.636  17.949  0.00  0.00    +0.000 A 
ATOM     13  C   UNL     1       2.402   5.221  19.131  0.00  0.00    +0.000 A 
ATOM     14  C   UNL     1       2.193   4.560  20.351  0.00  0.00    +0.000 A 
ENDBRANCH   7  13
ENDBRANCH   1   7
BRANCH   4  15
ATOM     15  C   UNL     1       0.305  11.484  19.385  0.00  0.00    +0.000 C 
BRANCH  15  16
ATOM     16  O   UNL     1      -1.109  11.487  19.535  0.00  0.00    +0.000 OA
BRANCH  16  17
ATOM     17  C   UNL     1      -1.578  11.950  20.743  0.00  0.00    +0.000 A 
ATOM     18  C   UNL     1      -1.027  11.664  22.007  0.00  0.00    +0.000 A 
ATOM     19  C   UNL     1      -1.517  12.281  23.171  0.00  0.00    +0.000 A 
ATOM     20  C   UNL     1      -2.621  13.112  23.084  0.00  0.00    +0.000 A 
ATOM     21  C   UNL     1      -3.407  13.663  24.206  0.00  0.00    +0.000 A 
ATOM     22  C   UNL     1      -3.763  15.146  24.090  0.00  0.00    +0.000 C 
ATOM     23  C   UNL     1      -4.424  12.797  24.367  0.00  0.00    +0.000 A 
ATOM     24  C   UNL     1      -5.296  12.770  23.134  0.00  0.00    +0.000 A 
ATOM     25  O   UNL     1      -6.416  12.288  23.172  0.00  0.00    +0.000 OA
ATOM     26  O   UNL     1      -4.719  13.286  21.946  0.00  0.00    +0.000 OA
ATOM     27  C   UNL     1      -3.308  13.137  21.868  0.00  0.00    +0.000 A 
ATOM     28  C   UNL     1      -2.745  12.705  20.675  0.00  0.00    +0.000 A 
ENDBRANCH  16  17
ENDBRANCH  15  16
ENDBRANCH   4  15
TORSDOF 5
ENDMDL
MODEL 5
REMARK VINA RESULT:      -8.5      0.850      1.450
REMARK  Name = 
REMARK  7 active torsions:
REMARK  status: ('A' for Active; 'I' for Inactive)
REMARK    1  A    between atoms: C_1  and  C_2
REMARK    2  A    between atoms: C_6  and  C_7
REMARK    3  A    between atoms: C_7  and  N_8
REMARK    4  A    between atoms: C_11  and  C_12
REMARK    5  A    between atoms: C_12  and  O_13
REMARK    6  A    between atoms: O_13  and  C_14
REMARK    7  A    between atoms: C_18  and  C_19
REMARK                            x       y       z     vdW  Elec       q    Type
REMARK                         _______ _______ _______ _____ _____    ______ ____
ROOT
ATOM      1  N   UNL     1       5.931   5.326  17.520  0.00  0.00    +0.000 N 
ATOM      2  C   UNL     1       6.821   5.040  18.492  0.00  0.00    +0.000 A 
ATOM      3  C   UNL     1       7.741   5.992  18.913  0.00  0.00    +0.000 A 
ATOM      4  C   UNL     1       7.795   7.230  18.278  0.00  0.00    +0.000 A 
ATOM      5  C   UNL     1       6.964   7.448  17.180  0.00  0.00    +0.000 A 
ATOM      6  C   UNL     1       6.026   6.480  16.824  0.00  0.00    +0.000 A 
ENDROOT
BRANCH   1   7
ATOM      7  C   UNL     1       4.802   4.387  17.283  0.00  0.00    +0.000 C 
BRANCH   7  13
ATOM      8  C   UNL     1       0.793   2.544  19.664  0.00  0.00    +0.000 C 
ATOM      9  C   UNL     1       1.788   3.655  19.490  0.00  0.00    +0.000 A 
ATOM     10  C   UNL     1       1.674   4.851  20.203  0.00  0.00    +0.000 A 
ATOM     11  C   UNL     1       2.591   5.883  20.002  0.00  0.00    +0.000 A 
ATOM     12  C   UNL     1       3.619   5.736  19.069  0.00  0.00    +0.000 A 
ATOM     13  C   UNL     1       3.742   4.546  18.337  0.00  0.00    +0.000 A 
ATOM     14  C   UNL     1       2.833   3.504  18.572  0.00  0.00    +0.000 A 
ENDBRANCH   7  13
ENDBRANCH   1   7
BRANCH   4  15
ATOM     15  C   UNL     1       8.668   8.329  18.846  0.00  0.00    +0.000 C 
BRANCH  15  16
ATOM     16  O   UNL     1       8.401   9.586  18.237  0.00  0.00    +0.000 OA
BRANCH  16  17
ATOM     17  C   UNL     1       9.190  10.631  18.661  0.00  0.00    +0.000 A 
ATOM     18  C   UNL     1       9.936  10.671  19.854  0.00  0.00    +0.000 A 
ATOM     19  C   UNL     1      10.799  11.744  20.138  0.00  0.00    +0.000 A 
ATOM     20  C   UNL     1      10.844  12.824  19.273  0.00  0.00    +0.000 A 
ATOM     21  C   UNL     1      11.506  14.123  19.509  0.00  0.00    +0.000 A 
ATOM     22  C   UNL     1      12.325  14.663  18.335  0.00  0.00    +0.000 C 
ATOM     23  C   UNL     1      10.535  14.915  19.997  0.00  0.00    +0.000 A 
ATOM     24  C   UNL     1       9.443  15.109  18.972  0.00  0.00    +0.000 A 
ATOM     25  O   UNL     1       8.628  16.009  19.090  0.00  0.00    +0.000 OA
ATOM     26  O   UNL     1       9.402  14.166  17.913  0.00  0.00    +0.000 OA
ATOM     27  C   UNL     1       9.881  12.874  18.262  0.00  0.00    +0.000 A 
ATOM     28  C   UNL     1       9.164  11.760  17.847  0.00  0.00    +0.000 A 
ENDBRANCH  16  17
ENDBRANCH  15  16
ENDBRANCH   4  15
TORSDOF 5
ENDMDL
MODEL 6
REMARK VINA RESULT:      -8.3      5.658      9.313
REMARK  Name = 
REMARK  7 active torsions:
REMARK  status: ('A' for Active; 'I' for Inactive)
REMARK    1  A    between atoms: C_1  and  C_2
REMARK    2  A    between atoms: C_6  and  C_7
REMARK    3  A    between atoms: C_7  and  N_8
REMARK    4  A    between atoms: C_11  and  C_12
REMARK    5  A    between atoms: C_12  and  O_13
REMARK    6  A    between atoms: O_13  and  C_14
REMARK    7  A    between atoms: C_18  and  C_19
REMARK                            x       y       z     vdW  Elec       q    Type
REMARK                         _______ _______ _______ _____ _____    ______ ____
ROOT
ATOM      1  N   UNL     1       0.125  10.660  19.110  0.00  0.00    +0.000 N 
ATOM      2  C   UNL     1      -0.078   9.999  20.268  0.00  0.00    +0.000 A 
ATOM      3  C   UNL     1       0.632   8.841  20.557  0.00  0.00    +0.000 A 
ATOM      4  C   UNL     1       1.511   8.314  19.614  0.00  0.00    +0.000 A 
ATOM      5  C   UNL     1       1.593   8.933  18.367  0.00  0.00    +0.000 A 
ATOM      6  C   UNL     1       0.896  10.118  18.140  0.00  0.00    +0.000 A 
ENDROOT
BRANCH   1   7
ATOM      7  C   UNL     1      -0.448  12.022  18.951  0.00  0.00    +0.000 C 
BRANCH   7  13
ATOM      8  C   UNL     1      -5.143  12.600  20.613  0.00  0.00    +0.000 C 
ATOM      9  C   UNL     1      -4.210  12.228  19.497  0.00  0.00    +0.000 A 
ATOM     10  C   UNL     1      -4.690  11.728  18.284  0.00  0.00    +0.000 A 
ATOM     11  C   UNL     1      -3.803  11.359  17.272  0.00  0.00    +0.000 A 
ATOM     12  C   UNL     1      -2.426  11.466  17.473  0.00  0.00    +0.000 A 
ATOM     13  C   UNL     1      -1.927  11.956  18.688  0.00  0.00    +0.000 A 
ATOM     14  C   UNL     1      -2.829  12.355  19.685  0.00  0.00    +0.000 A 
ENDBRANCH   7  13
ENDBRANCH   1   7
BRANCH   4  15
ATOM     15  C   UNL     1       2.415   7.160  19.991  0.00  0.00    +0.000 C 
BRANCH  15  16
ATOM     16  O   UNL     1       2.005   5.943  19.378  0.00  0.00    +0.000 OA
BRANCH  16  17
ATOM     17  C   UNL     1       2.945   5.337  18.576  0.00  0.00    +0.000 A 
ATOM     18  C   UNL     1       3.412   4.015  18.706  0.00  0.00    +0.000 A 
ATOM     19  C   UNL     1       4.293   3.458  17.763  0.00  0.00    +0.000 A 
ATOM     20  C   UNL     1       4.783   4.254  16.741  0.00  0.00    +0.000 A 
ATOM     21  C   UNL     1       5.873   3.920  15.802  0.00  0.00    +0.000 A 
ATOM     22  C   UNL     1       5.600   4.260  14.336  0.00  0.00    +0.000 C 
ATOM     23  C   UNL     1       6.977   4.448  16.362  0.00  0.00    +0.000 A 
ATOM     24  C   UNL     1       6.859   5.951  16.450  0.00  0.00    +0.000 A 
ATOM     25  O   UNL     1       7.843   6.644  16.647  0.00  0.00    +0.000 OA
ATOM     26  O   UNL     1       5.550   6.485  16.340  0.00  0.00    +0.000 OA
ATOM     27  C   UNL     1       4.525   5.624  16.818  0.00  0.00    +0.000 A 
ATOM     28  C   UNL     1       3.516   6.159  17.608  0.00  0.00    +0.000 A 
ENDBRANCH  16  17
ENDBRANCH  15  16
ENDBRANCH   4  15
TORSDOF 5
ENDMDL
MODEL 7
REMARK VINA RESULT:      -8.3      6.339      9.143
REMARK  Name = 
REMARK  7 active torsions:
REMARK  status: ('A' for Active; 'I' for Inactive)
REMARK    1  A    between atoms: C_1  and  C_2
REMARK    2  A    between atoms: C_6  and  C_7
REMARK    3  A    between atoms: C_7  and  N_8
REMARK    4  A    between atoms: C_11  and  C_12
REMARK    5  A    between atoms: C_12  and  O_13
REMARK    6  A    between atoms: O_13  and  C_14
REMARK    7  A    between atoms: C_18  and  C_19
REMARK                            x       y       z     vdW  Elec       q    Type
REMARK                         _______ _______ _______ _____ _____    ______ ____
ROOT
ATOM      1  N   UNL     1       2.896   5.234  18.464  0.00  0.00    +0.000 N 
ATOM      2  C   UNL     1       2.536   4.849  19.705  0.00  0.00    +0.000 A 
ATOM      3  C   UNL     1       2.004   5.764  20.605  0.00  0.00    +0.000 A 
ATOM      4  C   UNL     1       1.906   7.107  20.250  0.00  0.00    +0.000 A 
ATOM      5  C   UNL     1       2.421   7.505  19.017  0.00  0.00    +0.000 A 
ATOM      6  C   UNL     1       2.903   6.544  18.130  0.00  0.00    +0.000 A 
ENDROOT
BRANCH   1   7
ATOM      7  C   UNL     1       3.208   4.192  17.451  0.00  0.00    +0.000 C 
BRANCH   7  13
ATOM      8  C   UNL     1       6.448   4.110  13.626  0.00  0.00    +0.000 C 
ATOM      9  C   UNL     1       6.197   4.285  15.096  0.00  0.00    +0.000 A 
ATOM     10  C   UNL     1       7.250   4.461  15.997  0.00  0.00    +0.000 A 
ATOM     11  C   UNL     1       6.996   4.589  17.362  0.00  0.00    +0.000 A 
ATOM     12  C   UNL     1       5.687   4.519  17.843  0.00  0.00    +0.000 A 
ATOM     13  C   UNL     1       4.619   4.332  16.953  0.00  0.00    +0.000 A 
ATOM     14  C   UNL     1       4.884   4.238  15.579  0.00  0.00    +0.000 A 
ENDBRANCH   7  13
ENDBRANCH   1   7
BRANCH   4  15
ATOM     15  C   UNL     1       1.167   8.071  21.153  0.00  0.00    +0.000 C 
BRANCH  15  16
ATOM     16  O   UNL     1       0.552   9.121  20.417  0.00  0.00    +0.000 OA
BRANCH  16  17
ATOM     17  C   UNL     1      -0.195  10.008  21.159  0.00  0.00    +0.000 A 
ATOM     18  C   UNL     1      -0.546   9.861  22.515  0.00  0.00    +0.000 A 
ATOM     19  C   UNL     1      -1.219  10.882  23.208  0.00  0.00    +0.000 A 
ATOM     20  C   UNL     1      -1.627  12.012  22.520  0.00  0.00    +0.000 A 
ATOM     21  C   UNL     1      -2.528  13.073  23.012  0.00  0.00    +0.000 A 
ATOM     22  C   UNL     1      -2.075  14.504  22.719  0.00  0.00    +0.000 C 
ATOM     23  C   UNL     1      -3.748  12.712  22.577  0.00  0.00    +0.000 A 
ATOM     24  C   UNL     1      -3.792  12.705  21.068  0.00  0.00    +0.000 A 
ATOM     25  O   UNL     1      -4.857  12.696  20.473  0.00  0.00    +0.000 OA
ATOM     26  O   UNL     1      -2.539  12.661  20.404  0.00  0.00    +0.000 OA
ATOM     27  C   UNL     1      -1.517  11.988  21.128  0.00  0.00    +0.000 A 
ATOM     28  C   UNL     1      -0.694  11.098  20.451  0.00  0.00    +0.000 A 
ENDBRANCH  16  17
ENDBRANCH  15  16
ENDBRANCH   4  15
TORSDOF 5
ENDMDL
MODEL 8
REMARK VINA RESULT:      -8.3      6.322      8.742
REMARK  Name = 
REMARK  7 active torsions:
REMARK  status: ('A' for Active; 'I' for Inactive)
REMARK    1  A    between atoms: C_1  and  C_2
REMARK    2  A    between atoms: C_6  and  C_7
REMARK    3  A    between atoms: C_7  and  N_8
REMARK    4  A    between atoms: C_11  and  C_12
REMARK    5  A    between atoms: C_12  and  O_13
REMARK    6  A    between atoms: O_13  and  C_14
REMARK    7  A    between atoms: C_18  and  C_19
REMARK                            x       y       z     vdW  Elec       q    Type
REMARK                         _______ _______ _______ _____ _____    ______ ____
ROOT
ATOM      1  N   UNL     1       3.041   4.438  18.524  0.00  0.00    +0.000 N 
ATOM      2  C   UNL     1       2.941   5.627  17.896  0.00  0.00    +0.000 A 
ATOM      3  C   UNL     1       2.471   6.746  18.571  0.00  0.00    +0.000 A 
ATOM      4  C   UNL     1       2.031   6.628  19.887  0.00  0.00    +0.000 A 
ATOM      5  C   UNL     1       2.006   5.358  20.465  0.00  0.00    +0.000 A 
ATOM      6  C   UNL     1       2.531   4.274  19.765  0.00  0.00    +0.000 A 
ENDROOT
BRANCH   1   7
ATOM      7  C   UNL     1       3.789   3.337  17.860  0.00  0.00    +0.000 C 
BRANCH   7  13
ATOM      8  C   UNL     1       6.262   3.961  13.543  0.00  0.00    +0.000 C 
ATOM      9  C   UNL     1       6.195   4.166  15.029  0.00  0.00    +0.000 A 
ATOM     10  C   UNL     1       7.261   4.734  15.733  0.00  0.00    +0.000 A 
ATOM     11  C   UNL     1       7.190   4.887  17.118  0.00  0.00    +0.000 A 
ATOM     12  C   UNL     1       6.062   4.452  17.815  0.00  0.00    +0.000 A 
ATOM     13  C   UNL     1       4.988   3.870  17.126  0.00  0.00    +0.000 A 
ATOM     14  C   UNL     1       5.057   3.752  15.730  0.00  0.00    +0.000 A 
ENDBRANCH   7  13
ENDBRANCH   1   7
BRANCH   4  15
ATOM     15  C   UNL     1       1.688   7.870  20.680  0.00  0.00    +0.000 C 
BRANCH  15  16
ATOM     16  O   UNL     1       0.316   7.897  21.057  0.00  0.00    +0.000 OA
BRANCH  16  17
ATOM     17  C   UNL     1      -0.143   9.099  21.544  0.00  0.00    +0.000 A 
ATOM     18  C   UNL     1      -0.524   9.361  22.873  0.00  0.00    +0.000 A 
ATOM     19  C   UNL     1      -0.873  10.658  23.289  0.00  0.00    +0.000 A 
ATOM     20  C   UNL     1      -0.934  11.676  22.352  0.00  0.00    +0.000 A 
ATOM     21  C   UNL     1      -1.488  13.030  22.549  0.00  0.00    +0.000 A 
ATOM     22  C   UNL     1      -0.639  14.173  21.990  0.00  0.00    +0.000 C 
ATOM     23  C   UNL     1      -2.760  12.942  22.120  0.00  0.00    +0.000 A 
ATOM     24  C   UNL     1      -2.801  12.613  20.646  0.00  0.00    +0.000 A 
ATOM     25  O   UNL     1      -3.822  12.774  19.998  0.00  0.00    +0.000 OA
ATOM     26  O   UNL     1      -1.613  12.071  20.092  0.00  0.00    +0.000 OA
ATOM     27  C   UNL     1      -0.833  11.314  21.007  0.00  0.00    +0.000 A 
ATOM     28  C   UNL     1      -0.302  10.101  20.590  0.00  0.00    +0.000 A 
ENDBRANCH  16  17
ENDBRANCH  15  16
ENDBRANCH   4  15
TORSDOF 5
ENDMDL
MODEL 9
REMARK VINA RESULT:      -8.3      7.346     10.232
REMARK  Name = 
REMARK  7 active torsions:
REMARK  status: ('A' for Active; 'I' for Inactive)
REMARK    1  A    between atoms: C_1  and  C_2
REMARK    2  A    between atoms: C_6  and  C_7
REMARK    3  A    between atoms: C_7  and  N_8
REMARK    4  A    between atoms: C_11  and  C_12
REMARK    5  A    between atoms: C_12  and  O_13
REMARK    6  A    between atoms: O_13  and  C_14
REMARK    7  A    between atoms: C_18  and  C_19
REMARK                            x       y       z     vdW  Elec       q    Type
REMARK                         _______ _______ _______ _____ _____    ______ ____
ROOT
ATOM      1  N   UNL     1       2.237   7.674  19.186  0.00  0.00    +0.000 N 
ATOM      2  C   UNL     1       2.021   8.547  18.182  0.00  0.00    +0.000 A 
ATOM      3  C   UNL     1       1.378   9.755  18.419  0.00  0.00    +0.000 A 
ATOM      4  C   UNL     1       0.887  10.040  19.691  0.00  0.00    +0.000 A 
ATOM      5  C   UNL     1       0.993   9.059  20.676  0.00  0.00    +0.000 A 
ATOM      6  C   UNL     1       1.686   7.882  20.403  0.00  0.00    +0.000 A 
ENDROOT
BRANCH   1   7
ATOM      7  C   UNL     1       3.153   6.526  18.954  0.00  0.00    +0.000 C 
BRANCH   7  13
ATOM      8  C   UNL     1       1.565   2.651  21.712  0.00  0.00    +0.000 C 
ATOM      9  C   UNL     1       1.644   3.333  20.377  0.00  0.00    +0.000 A 
ATOM     10  C   UNL     1       1.143   2.728  19.221  0.00  0.00    +0.000 A 
ATOM     11  C   UNL     1       1.256   3.366  17.986  0.00  0.00    +0.000 A 
ATOM     12  C   UNL     1       1.891   4.605  17.891  0.00  0.00    +0.000 A 
ATOM     13  C   UNL     1       2.410   5.221  19.039  0.00  0.00    +0.000 A 
ATOM     14  C   UNL     1       2.261   4.586  20.280  0.00  0.00    +0.000 A 
ENDBRANCH   7  13
ENDBRANCH   1   7
BRANCH   4  15
ATOM     15  C   UNL     1       0.348  11.421  19.997  0.00  0.00    +0.000 C 
BRANCH  15  16
ATOM     16  O   UNL     1       0.138  11.611  21.391  0.00  0.00    +0.000 OA
BRANCH  16  17
ATOM     17  C   UNL     1      -1.134  11.991  21.754  0.00  0.00    +0.000 A 
ATOM     18  C   UNL     1      -1.758  11.716  22.986  0.00  0.00    +0.000 A 
ATOM     19  C   UNL     1      -3.022  12.248  23.296  0.00  0.00    +0.000 A 
ATOM     20  C   UNL     1      -3.704  12.977  22.337  0.00  0.00    +0.000 A 
ATOM     21  C   UNL     1      -5.112  13.418  22.394  0.00  0.00    +0.000 A 
ATOM     22  C   UNL     1      -5.362  14.866  21.968  0.00  0.00    +0.000 C 
ATOM     23  C   UNL     1      -5.795  12.459  21.744  0.00  0.00    +0.000 A 
ATOM     24  C   UNL     1      -5.368  12.392  20.297  0.00  0.00    +0.000 A 
ATOM     25  O   UNL     1      -6.051  11.810  19.471  0.00  0.00    +0.000 OA
ATOM     26  O   UNL     1      -4.125  12.997  19.981  0.00  0.00    +0.000 OA
ATOM     27  C   UNL     1      -3.180  12.979  21.043  0.00  0.00    +0.000 A 
ATOM     28  C   UNL     1      -1.864  12.639  20.761  0.00  0.00    +0.000 A 
ENDBRANCH  16  17
ENDBRANCH  15  16
ENDBRANCH   4  15
TORSDOF 5
ENDMDL
