MODEL 1
REMARK VINA RESULT:      -8.5      0.000      0.000
REMARK  Name = 
REMARK  7 active torsions:
REMARK  status: ('A' for Active; 'I' for Inactive)
REMARK    1  A    between atoms: C_1  and  C_2
REMARK    2  A    between atoms: N_4  and  C_5
REMARK    3  A    between atoms: C_5  and  C_6
REMARK    4  A    between atoms: C_15  and  C_16
REMARK    5  A    between atoms: N_18  and  C_19
REMARK    6  A    between atoms: C_19  and  C_20
REMARK    7  A    between atoms: C_20  and  C_21
REMARK                            x       y       z     vdW  Elec       q    Type
REMARK                         _______ _______ _______ _____ _____    ______ ____
ROOT
ATOM      1  C   UNL     1       7.918   5.494  20.154  0.00  0.00    +0.000 C 
ATOM      2  C   UNL     1       6.887   5.195  19.123  0.00  0.00    +0.000 A 
ATOM      3  N   UNL     1       6.019   4.191  19.324  0.00  0.00    +0.000 NA
ATOM      4  N   UNL     1       5.199   4.245  18.247  0.00  0.00    +0.000 N 
ATOM      5  C   UNL     1       5.511   5.280  17.416  0.00  0.00    +0.000 A 
ATOM      6 CL   UNL     1       4.499   5.696  16.109  0.00  0.00    +0.000 Cl
ATOM      7  C   UNL     1       6.679   5.845  17.871  0.00  0.00    +0.000 A 
ENDROOT
BRANCH   7   8
ATOM      8  C   UNL     1       7.478   6.888  17.257  0.00  0.00    +0.000 C 
ATOM      9  O   UNL     1       7.902   6.793  16.110  0.00  0.00    +0.000 OA
ATOM     10  N   UNL     1       7.659   8.020  18.026  0.00  0.00    +0.000 N 
ATOM     11  H   UNL     1       7.218   8.079  18.934  0.00  0.00    +0.000 HD
BRANCH  10  12
ATOM     12  C   UNL     1       8.413   9.146  17.514  0.00  0.00    +0.000 C 
BRANCH  12  13
ATOM     13  C   UNL     1       8.234  10.427  18.334  0.00  0.00    +0.000 C 
BRANCH  13  14
ATOM     14  C   UNL     1       9.578  10.980  18.746  0.00  0.00    +0.000 A 
ATOM     15  C   UNL     1       9.855  11.233  20.098  0.00  0.00    +0.000 A 
ATOM     16  C   UNL     1      11.065  11.820  20.474  0.00  0.00    +0.000 A 
ATOM     17  C   UNL     1      12.007  12.160  19.505  0.00  0.00    +0.000 A 
ATOM     18  C   UNL     1      11.744  11.908  18.161  0.00  0.00    +0.000 A 
ATOM     19  C   UNL     1      10.535  11.320  17.782  0.00  0.00    +0.000 A 
ENDBRANCH  13  14
ENDBRANCH  12  13
ENDBRANCH  10  12
ENDBRANCH   7   8
BRANCH   4  20
ATOM     20  C   UNL     1       4.200   3.195  18.058  0.00  0.00    +0.000 C 
BRANCH  20  21
ATOM     21  C   UNL     1       3.170   3.214  19.158  0.00  0.00    +0.000 A 
ATOM     22  C   UNL     1       3.460   2.543  20.363  0.00  0.00    +0.000 A 
ATOM     23  C   UNL     1       2.595   2.628  21.458  0.00  0.00    +0.000 A 
ATOM     24  C   UNL     1       1.428   3.372  21.360  0.00  0.00    +0.000 A 
ATOM     25  C   UNL     1       1.094   3.991  20.159  0.00  0.00    +0.000 A 
ATOM     26  C   UNL     1       1.951   3.900  19.055  0.00  0.00    +0.000 A 
ATOM     27 CL   UNL     1       1.424   4.641  17.586  0.00  0.00    +0.000 Cl
ENDBRANCH  20  21
ENDBRANCH   4  20
TORSDOF 6
ENDMDL
MODEL 2
REMARK VINA RESULT:      -8.4      0.975      1.400
REMARK  Name = 
REMARK  7 active torsions:
REMARK  status: ('A' for Active; 'I' for Inactive)
REMARK    1  A    between atoms: C_1  and  C_2
REMARK    2  A    between atoms: N_4  and  C_5
REMARK    3  A    between atoms: C_5  and  C_6
REMARK    4  A    between atoms: C_15  and  C_16
REMARK    5  A    between atoms: N_18  and  C_19
REMARK    6  A    between atoms: C_19  and  C_20
REMARK    7  A    between atoms: C_20  and  C_21
REMARK                            x       y       z     vdW  Elec       q    Type
REMARK                         _______ _______ _______ _____ _____    ______ ____
ROOT
ATOM      1  C   UNL     1       7.705   5.389  20.031  0.00  0.00    +0.000 C 
ATOM      2  C   UNL     1       6.735   5.438  18.904  0.00  0.00    +0.000 A 
ATOM      3  N   UNL     1       5.764   4.516  18.823  0.00  0.00    +0.000 NA
ATOM      4  N   UNL     1       5.040   4.895  17.742  0.00  0.00    +0.000 N 
ATOM      5  C   UNL     1       5.513   6.047  17.186  0.00  0.00    +0.000 A 
ATOM      6 CL   UNL     1       4.650   6.848  15.953  0.00  0.00    +0.000 Cl
ATOM      7  C   UNL     1       6.689   6.366  17.822  0.00  0.00    +0.000 A 
ENDROOT
BRANCH   7   8
ATOM      8  C   UNL     1       7.628   7.425  17.506  0.00  0.00    +0.000 C 
ATOM      9  O   UNL     1       8.331   7.394  16.501  0.00  0.00    +0.000 OA
ATOM     10  N   UNL     1       7.616   8.500  18.372  0.00  0.00    +0.000 N 
ATOM     11  H   UNL     1       6.958   8.512  19.140  0.00  0.00    +0.000 HD
BRANCH  10  12
ATOM     12  C   UNL     1       8.487   9.636  18.149  0.00  0.00    +0.000 C 
BRANCH  12  13
ATOM     13  C   UNL     1       9.290  10.045  19.387  0.00  0.00    +0.000 C 
BRANCH  13  14
ATOM     14  C   UNL     1      10.232  11.178  19.052  0.00  0.00    +0.000 A 
ATOM     15  C   UNL     1      10.439  11.556  17.718  0.00  0.00    +0.000 A 
ATOM     16  C   UNL     1      11.370  12.547  17.399  0.00  0.00    +0.000 A 
ATOM     17  C   UNL     1      12.103  13.167  18.410  0.00  0.00    +0.000 A 
ATOM     18  C   UNL     1      11.901  12.803  19.739  0.00  0.00    +0.000 A 
ATOM     19  C   UNL     1      10.970  11.812  20.060  0.00  0.00    +0.000 A 
ENDBRANCH  13  14
ENDBRANCH  12  13
ENDBRANCH  10  12
ENDBRANCH   7   8
BRANCH   4  20
ATOM     20  C   UNL     1       3.965   4.027  17.265  0.00  0.00    +0.000 C 
BRANCH  20  21
ATOM     21  C   UNL     1       2.933   3.793  18.338  0.00  0.00    +0.000 A 
ATOM     22  C   UNL     1       2.746   2.481  18.817  0.00  0.00    +0.000 A 
ATOM     23  C   UNL     1       1.890   2.224  19.892  0.00  0.00    +0.000 A 
ATOM     24  C   UNL     1       1.203   3.269  20.493  0.00  0.00    +0.000 A 
ATOM     25  C   UNL     1       1.327   4.563  19.994  0.00  0.00    +0.000 A 
ATOM     26  C   UNL     1       2.174   4.825  18.910  0.00  0.00    +0.000 A 
ATOM     27 CL   UNL     1       2.213   6.446  18.314  0.00  0.00    +0.000 Cl
ENDBRANCH  20  21
ENDBRANCH   4  20
TORSDOF 6
ENDMDL
MODEL 3
REMARK VINA RESULT:      -8.1      0.980      1.060
REMARK  Name = 
REMARK  7 active torsions:
REMARK  status: ('A' for Active; 'I' for Inactive)
REMARK    1  A    between atoms: C_1  and  C_2
REMARK    2  A    between atoms: N_4  and  C_5
REMARK    3  A    between atoms: C_5  and  C_6
REMARK    4  A    between atoms: C_15  and  C_16
REMARK    5  A    between atoms: N_18  and  C_19
REMARK    6  A    between atoms: C_19  and  C_20
REMARK    7  A    between atoms: C_20  and  C_21
REMARK                            x       y       z     vdW  Elec       q    Type
REMARK                         _______ _______ _______ _____ _____    ______ ____
ROOT
ATOM      1  C   UNL     1       8.099   5.462  20.120  0.00  0.00    +0.000 C 
ATOM      2  C   UNL     1       7.018   5.466  19.097  0.00  0.00    +0.000 A 
ATOM      3  N   UNL     1       6.070   4.517  19.130  0.00  0.00    +0.000 NA
ATOM      4  N   UNL     1       5.230   4.858  18.123  0.00  0.00    +0.000 N 
ATOM      5  C   UNL     1       5.611   6.012  17.504  0.00  0.00    +0.000 A 
ATOM      6 CL   UNL     1       4.606   6.768  16.354  0.00  0.00    +0.000 Cl
ATOM      7  C   UNL     1       6.837   6.373  18.012  0.00  0.00    +0.000 A 
ENDROOT
BRANCH   7   8
ATOM      8  C   UNL     1       7.709   7.450  17.586  0.00  0.00    +0.000 C 
ATOM      9  O   UNL     1       8.221   7.472  16.472  0.00  0.00    +0.000 OA
ATOM     10  N   UNL     1       7.858   8.480  18.494  0.00  0.00    +0.000 N 
ATOM     11  H   UNL     1       7.348   8.450  19.366  0.00  0.00    +0.000 HD
BRANCH  10  12
ATOM     12  C   UNL     1       8.680   9.629  18.175  0.00  0.00    +0.000 C 
BRANCH  12  13
ATOM     13  C   UNL     1       9.425  10.203  19.383  0.00  0.00    +0.000 C 
BRANCH  13  14
ATOM     14  C   UNL     1      10.193  11.443  18.988  0.00  0.00    +0.000 A 
ATOM     15  C   UNL     1      10.370  12.489  19.905  0.00  0.00    +0.000 A 
ATOM     16  C   UNL     1      11.008  13.670  19.518  0.00  0.00    +0.000 A 
ATOM     17  C   UNL     1      11.472  13.816  18.212  0.00  0.00    +0.000 A 
ATOM     18  C   UNL     1      11.307  12.781  17.295  0.00  0.00    +0.000 A 
ATOM     19  C   UNL     1      10.670  11.599  17.680  0.00  0.00    +0.000 A 
ENDBRANCH  13  14
ENDBRANCH  12  13
ENDBRANCH  10  12
ENDBRANCH   7   8
BRANCH   4  20
ATOM     20  C   UNL     1       4.136   3.954  17.771  0.00  0.00    +0.000 C 
BRANCH  20  21
ATOM     21  C   UNL     1       3.157   3.809  18.907  0.00  0.00    +0.000 A 
ATOM     22  C   UNL     1       3.139   2.599  19.629  0.00  0.00    +0.000 A 
ATOM     23  C   UNL     1       2.337   2.453  20.765  0.00  0.00    +0.000 A 
ATOM     24  C   UNL     1       1.539   3.506  21.187  0.00  0.00    +0.000 A 
ATOM     25  C   UNL     1       1.497   4.688  20.452  0.00  0.00    +0.000 A 
ATOM     26  C   UNL     1       2.289   4.836  19.307  0.00  0.00    +0.000 A 
ATOM     27 CL   UNL     1       2.121   6.308  18.419  0.00  0.00    +0.000 Cl
ENDBRANCH  20  21
ENDBRANCH   4  20
TORSDOF 6
ENDMDL
MODEL 4
REMARK VINA RESULT:      -8.1      3.689      6.003
REMARK  Name = 
REMARK  7 active torsions:
REMARK  status: ('A' for Active; 'I' for Inactive)
REMARK    1  A    between atoms: C_1  and  C_2
REMARK    2  A    between atoms: N_4  and  C_5
REMARK    3  A    between atoms: C_5  and  C_6
REMARK    4  A    between atoms: C_15  and  C_16
REMARK    5  A    between atoms: N_18  and  C_19
REMARK    6  A    between atoms: C_19  and  C_20
REMARK    7  A    between atoms: C_20  and  C_21
REMARK                            x       y       z     vdW  Elec       q    Type
REMARK                         _______ _______ _______ _____ _____    ______ ____
ROOT
ATOM      1  C   UNL     1       0.802   2.361  18.710  0.00  0.00    +0.000 C 
ATOM      2  C   UNL     1       1.638   3.532  19.090  0.00  0.00    +0.000 A 
ATOM      3  N   UNL     1       1.148   4.450  19.937  0.00  0.00    +0.000 NA
ATOM      4  N   UNL     1       2.175   5.316  20.114  0.00  0.00    +0.000 N 
ATOM      5  C   UNL     1       3.294   4.930  19.435  0.00  0.00    +0.000 A 
ATOM      6 CL   UNL     1       4.783   5.727  19.666  0.00  0.00    +0.000 Cl
ATOM      7  C   UNL     1       2.957   3.852  18.652  0.00  0.00    +0.000 A 
ENDROOT
BRANCH   7   8
ATOM      8  C   UNL     1       3.764   3.169  17.659  0.00  0.00    +0.000 C 
ATOM      9  O   UNL     1       3.736   1.950  17.524  0.00  0.00    +0.000 OA
ATOM     10  N   UNL     1       4.501   3.992  16.832  0.00  0.00    +0.000 N 
ATOM     11  H   UNL     1       4.423   4.995  16.934  0.00  0.00    +0.000 HD
BRANCH  10  12
ATOM     12  C   UNL     1       5.324   3.433  15.780  0.00  0.00    +0.000 C 
BRANCH  12  13
ATOM     13  C   UNL     1       6.486   4.340  15.364  0.00  0.00    +0.000 C 
BRANCH  13  14
ATOM     14  C   UNL     1       6.954   5.167  16.539  0.00  0.00    +0.000 A 
ATOM     15  C   UNL     1       6.847   6.565  16.508  0.00  0.00    +0.000 A 
ATOM     16  C   UNL     1       7.353   7.337  17.556  0.00  0.00    +0.000 A 
ATOM     17  C   UNL     1       7.971   6.720  18.641  0.00  0.00    +0.000 A 
ATOM     18  C   UNL     1       8.078   5.332  18.685  0.00  0.00    +0.000 A 
ATOM     19  C   UNL     1       7.572   4.558  17.638  0.00  0.00    +0.000 A 
ENDBRANCH  13  14
ENDBRANCH  12  13
ENDBRANCH  10  12
ENDBRANCH   7   8
BRANCH   4  20
ATOM     20  C   UNL     1       1.952   6.540  20.881  0.00  0.00    +0.000 C 
BRANCH  20  21
ATOM     21  C   UNL     1       1.789   7.733  19.975  0.00  0.00    +0.000 A 
ATOM     22  C   UNL     1       2.306   7.660  18.667  0.00  0.00    +0.000 A 
ATOM     23  C   UNL     1       2.079   8.688  17.746  0.00  0.00    +0.000 A 
ATOM     24  C   UNL     1       1.345   9.803  18.124  0.00  0.00    +0.000 A 
ATOM     25  C   UNL     1       0.879   9.921  19.430  0.00  0.00    +0.000 A 
ATOM     26  C   UNL     1       1.112   8.900  20.359  0.00  0.00    +0.000 A 
ATOM     27 CL   UNL     1       0.558   9.163  21.975  0.00  0.00    +0.000 Cl
ENDBRANCH  20  21
ENDBRANCH   4  20
TORSDOF 6
ENDMDL
MODEL 5
REMARK VINA RESULT:      -8.1      1.589      2.008
REMARK  Name = 
REMARK  7 active torsions:
REMARK  status: ('A' for Active; 'I' for Inactive)
REMARK    1  A    between atoms: C_1  and  C_2
REMARK    2  A    between atoms: N_4  and  C_5
REMARK    3  A    between atoms: C_5  and  C_6
REMARK    4  A    between atoms: C_15  and  C_16
REMARK    5  A    between atoms: N_18  and  C_19
REMARK    6  A    between atoms: C_19  and  C_20
REMARK    7  A    between atoms: C_20  and  C_21
REMARK                            x       y       z     vdW  Elec       q    Type
REMARK                         _______ _______ _______ _____ _____    ______ ____
ROOT
ATOM      1  C   UNL     1       6.858   5.330  15.074  0.00  0.00    +0.000 C 
ATOM      2  C   UNL     1       6.017   4.817  16.189  0.00  0.00    +0.000 A 
ATOM      3  N   UNL     1       4.915   4.102  15.915  0.00  0.00    +0.000 NA
ATOM      4  N   UNL     1       4.443   3.746  17.134  0.00  0.00    +0.000 N 
ATOM      5  C   UNL     1       5.248   4.183  18.144  0.00  0.00    +0.000 A 
ATOM      6 CL   UNL     1       4.994   3.682  19.753  0.00  0.00    +0.000 Cl
ATOM      7  C   UNL     1       6.210   4.995  17.591  0.00  0.00    +0.000 A 
ENDROOT
BRANCH   7   8
ATOM      8  C   UNL     1       7.214   5.796  18.265  0.00  0.00    +0.000 C 
ATOM      9  O   UNL     1       7.919   5.339  19.159  0.00  0.00    +0.000 OA
ATOM     10  N   UNL     1       7.369   7.078  17.777  0.00  0.00    +0.000 N 
ATOM     11  H   UNL     1       6.818   7.377  16.983  0.00  0.00    +0.000 HD
BRANCH  10  12
ATOM     12  C   UNL     1       8.360   7.968  18.345  0.00  0.00    +0.000 C 
BRANCH  12  13
ATOM     13  C   UNL     1       8.116   9.444  18.021  0.00  0.00    +0.000 C 
BRANCH  13  14
ATOM     14  C   UNL     1       9.206  10.302  18.620  0.00  0.00    +0.000 A 
ATOM     15  C   UNL     1       9.269  10.503  20.006  0.00  0.00    +0.000 A 
ATOM     16  C   UNL     1      10.225  11.360  20.555  0.00  0.00    +0.000 A 
ATOM     17  C   UNL     1      11.125  12.025  19.725  0.00  0.00    +0.000 A 
ATOM     18  C   UNL     1      11.075  11.828  18.346  0.00  0.00    +0.000 A 
ATOM     19  C   UNL     1      10.120  10.971  17.795  0.00  0.00    +0.000 A 
ENDBRANCH  13  14
ENDBRANCH  12  13
ENDBRANCH  10  12
ENDBRANCH   7   8
BRANCH   4  20
ATOM     20  C   UNL     1       3.154   3.063  17.228  0.00  0.00    +0.000 C 
BRANCH  20  21
ATOM     21  C   UNL     1       2.467   3.365  18.534  0.00  0.00    +0.000 A 
ATOM     22  C   UNL     1       2.222   2.304  19.427  0.00  0.00    +0.000 A 
ATOM     23  C   UNL     1       1.697   2.544  20.701  0.00  0.00    +0.000 A 
ATOM     24  C   UNL     1       1.400   3.841  21.092  0.00  0.00    +0.000 A 
ATOM     25  C   UNL     1       1.577   4.896  20.201  0.00  0.00    +0.000 A 
ATOM     26  C   UNL     1       2.092   4.661  18.920  0.00  0.00    +0.000 A 
ATOM     27 CL   UNL     1       2.213   6.018  17.858  0.00  0.00    +0.000 Cl
ENDBRANCH  20  21
ENDBRANCH   4  20
TORSDOF 6
ENDMDL
MODEL 6
REMARK VINA RESULT:      -8.1      1.838      2.477
REMARK  Name = 
REMARK  7 active torsions:
REMARK  status: ('A' for Active; 'I' for Inactive)
REMARK    1  A    between atoms: C_1  and  C_2
REMARK    2  A    between atoms: N_4  and  C_5
REMARK    3  A    between atoms: C_5  and  C_6
REMARK    4  A    between atoms: C_15  and  C_16
REMARK    5  A    between atoms: N_18  and  C_19
REMARK    6  A    between atoms: C_19  and  C_20
REMARK    7  A    between atoms: C_20  and  C_21
REMARK                            x       y       z     vdW  Elec       q    Type
REMARK                         _______ _______ _______ _____ _____    ______ ____
ROOT
ATOM      1  C   UNL     1       3.663   7.995  17.635  0.00  0.00    +0.000 C 
ATOM      2  C   UNL     1       3.997   6.561  17.423  0.00  0.00    +0.000 A 
ATOM      3  N   UNL     1       3.056   5.624  17.619  0.00  0.00    +0.000 NA
ATOM      4  N   UNL     1       3.670   4.466  17.275  0.00  0.00    +0.000 N 
ATOM      5  C   UNL     1       4.943   4.671  16.831  0.00  0.00    +0.000 A 
ATOM      6 CL   UNL     1       5.848   3.406  16.135  0.00  0.00    +0.000 Cl
ATOM      7  C   UNL     1       5.247   5.997  17.033  0.00  0.00    +0.000 A 
ENDROOT
BRANCH   7   8
ATOM      8  C   UNL     1       6.517   6.672  16.842  0.00  0.00    +0.000 C 
ATOM      9  O   UNL     1       7.322   6.315  15.989  0.00  0.00    +0.000 OA
ATOM     10  N   UNL     1       6.716   7.784  17.635  0.00  0.00    +0.000 N 
ATOM     11  H   UNL     1       5.984   8.082  18.266  0.00  0.00    +0.000 HD
BRANCH  10  12
ATOM     12  C   UNL     1       7.932   8.563  17.519  0.00  0.00    +0.000 C 
BRANCH  12  13
ATOM     13  C   UNL     1       8.666   8.756  18.849  0.00  0.00    +0.000 C 
BRANCH  13  14
ATOM     14  C   UNL     1       9.116  10.190  18.999  0.00  0.00    +0.000 A 
ATOM     15  C   UNL     1       9.039  11.074  17.913  0.00  0.00    +0.000 A 
ATOM     16  C   UNL     1       9.529  12.377  18.024  0.00  0.00    +0.000 A 
ATOM     17  C   UNL     1      10.102  12.807  19.219  0.00  0.00    +0.000 A 
ATOM     18  C   UNL     1      10.178  11.939  20.306  0.00  0.00    +0.000 A 
ATOM     19  C   UNL     1       9.688  10.636  20.197  0.00  0.00    +0.000 A 
ENDBRANCH  13  14
ENDBRANCH  12  13
ENDBRANCH  10  12
ENDBRANCH   7   8
BRANCH   4  20
ATOM     20  C   UNL     1       2.976   3.199  17.498  0.00  0.00    +0.000 C 
BRANCH  20  21
ATOM     21  C   UNL     1       2.459   3.098  18.910  0.00  0.00    +0.000 A 
ATOM     22  C   UNL     1       1.082   3.288  19.137  0.00  0.00    +0.000 A 
ATOM     23  C   UNL     1       0.529   3.089  20.406  0.00  0.00    +0.000 A 
ATOM     24  C   UNL     1       1.344   2.710  21.462  0.00  0.00    +0.000 A 
ATOM     25  C   UNL     1       2.717   2.578  21.272  0.00  0.00    +0.000 A 
ATOM     26  C   UNL     1       3.278   2.787  20.006  0.00  0.00    +0.000 A 
ATOM     27 CL   UNL     1       4.997   2.669  19.877  0.00  0.00    +0.000 Cl
ENDBRANCH  20  21
ENDBRANCH   4  20
TORSDOF 6
ENDMDL
MODEL 7
REMARK VINA RESULT:      -7.9      1.628      2.393
REMARK  Name = 
REMARK  7 active torsions:
REMARK  status: ('A' for Active; 'I' for Inactive)
REMARK    1  A    between atoms: C_1  and  C_2
REMARK    2  A    between atoms: N_4  and  C_5
REMARK    3  A    between atoms: C_5  and  C_6
REMARK    4  A    between atoms: C_15  and  C_16
REMARK    5  A    between atoms: N_18  and  C_19
REMARK    6  A    between atoms: C_19  and  C_20
REMARK    7  A    between atoms: C_20  and  C_21
REMARK                            x       y       z     vdW  Elec       q    Type
REMARK                         _______ _______ _______ _____ _____    ______ ____
ROOT
ATOM      1  C   UNL     1       5.023   6.703  15.659  0.00  0.00    +0.000 C 
ATOM      2  C   UNL     1       5.430   6.209  17.002  0.00  0.00    +0.000 A 
ATOM      3  N   UNL     1       4.649   5.330  17.651  0.00  0.00    +0.000 NA
ATOM      4  N   UNL     1       5.341   5.049  18.782  0.00  0.00    +0.000 N 
ATOM      5  C   UNL     1       6.541   5.694  18.823  0.00  0.00    +0.000 A 
ATOM      6 CL   UNL     1       7.690   5.341  20.032  0.00  0.00    +0.000 Cl
ATOM      7  C   UNL     1       6.587   6.561  17.757  0.00  0.00    +0.000 A 
ENDROOT
BRANCH   7   8
ATOM      8  C   UNL     1       7.597   7.554  17.442  0.00  0.00    +0.000 C 
ATOM      9  O   UNL     1       8.357   7.430  16.488  0.00  0.00    +0.000 OA
ATOM     10  N   UNL     1       7.585   8.678  18.244  0.00  0.00    +0.000 N 
ATOM     11  H   UNL     1       6.882   8.766  18.965  0.00  0.00    +0.000 HD
BRANCH  10  12
ATOM     12  C   UNL     1       8.524   9.757  18.013  0.00  0.00    +0.000 C 
BRANCH  12  13
ATOM     13  C   UNL     1       9.300  10.172  19.265  0.00  0.00    +0.000 C 
BRANCH  13  14
ATOM     14  C   UNL     1      10.309  11.245  18.928  0.00  0.00    +0.000 A 
ATOM     15  C   UNL     1      10.370  11.777  17.632  0.00  0.00    +0.000 A 
ATOM     16  C   UNL     1      11.354  12.709  17.295  0.00  0.00    +0.000 A 
ATOM     17  C   UNL     1      12.285  13.116  18.248  0.00  0.00    +0.000 A 
ATOM     18  C   UNL     1      12.230  12.598  19.540  0.00  0.00    +0.000 A 
ATOM     19  C   UNL     1      11.247  11.666  19.879  0.00  0.00    +0.000 A 
ENDBRANCH  13  14
ENDBRANCH  12  13
ENDBRANCH  10  12
ENDBRANCH   7   8
BRANCH   4  20
ATOM     20  C   UNL     1       4.717   4.217  19.810  0.00  0.00    +0.000 C 
BRANCH  20  21
ATOM     21  C   UNL     1       3.400   3.657  19.338  0.00  0.00    +0.000 A 
ATOM     22  C   UNL     1       3.413   2.562  18.452  0.00  0.00    +0.000 A 
ATOM     23  C   UNL     1       2.225   1.928  18.077  0.00  0.00    +0.000 A 
ATOM     24  C   UNL     1       1.012   2.386  18.571  0.00  0.00    +0.000 A 
ATOM     25  C   UNL     1       0.974   3.505  19.398  0.00  0.00    +0.000 A 
ATOM     26  C   UNL     1       2.160   4.151  19.768  0.00  0.00    +0.000 A 
ATOM     27 CL   UNL     1       2.012   5.572  20.740  0.00  0.00    +0.000 Cl
ENDBRANCH  20  21
ENDBRANCH   4  20
TORSDOF 6
ENDMDL
MODEL 8
REMARK VINA RESULT:      -7.9      5.930      7.779
REMARK  Name = 
REMARK  7 active torsions:
REMARK  status: ('A' for Active; 'I' for Inactive)
REMARK    1  A    between atoms: C_1  and  C_2
REMARK    2  A    between atoms: N_4  and  C_5
REMARK    3  A    between atoms: C_5  and  C_6
REMARK    4  A    between atoms: C_15  and  C_16
REMARK    5  A    between atoms: N_18  and  C_19
REMARK    6  A    between atoms: C_19  and  C_20
REMARK    7  A    between atoms: C_20  and  C_21
REMARK                            x       y       z     vdW  Elec       q    Type
REMARK                         _______ _______ _______ _____ _____    ______ ____
ROOT
ATOM      1  C   UNL     1       0.950   9.097  22.808  0.00  0.00    +0.000 C 
ATOM      2  C   UNL     1       0.946   9.319  21.337  0.00  0.00    +0.000 A 
ATOM      3  N   UNL     1       0.495  10.482  20.842  0.00  0.00    +0.000 NA
ATOM      4  N   UNL     1       0.697  10.371  19.507  0.00  0.00    +0.000 N 
ATOM      5  C   UNL     1       1.300   9.194  19.175  0.00  0.00    +0.000 A 
ATOM      6 CL   UNL     1       1.858   8.906  17.590  0.00  0.00    +0.000 Cl
ATOM      7  C   UNL     1       1.362   8.421  20.310  0.00  0.00    +0.000 A 
ENDROOT
BRANCH   7   8
ATOM      8  C   UNL     1       1.798   7.044  20.444  0.00  0.00    +0.000 C 
ATOM      9  O   UNL     1       1.156   6.217  21.083  0.00  0.00    +0.000 OA
ATOM     10  N   UNL     1       2.938   6.717  19.738  0.00  0.00    +0.000 N 
ATOM     11  H   UNL     1       3.383   7.418  19.161  0.00  0.00    +0.000 HD
BRANCH  10  12
ATOM     12  C   UNL     1       3.459   5.366  19.765  0.00  0.00    +0.000 C 
BRANCH  12  13
ATOM     13  C   UNL     1       4.129   4.941  18.455  0.00  0.00    +0.000 C 
BRANCH  13  14
ATOM     14  C   UNL     1       5.467   5.626  18.302  0.00  0.00    +0.000 A 
ATOM     15  C   UNL     1       6.525   5.314  19.168  0.00  0.00    +0.000 A 
ATOM     16  C   UNL     1       7.737   6.003  19.082  0.00  0.00    +0.000 A 
ATOM     17  C   UNL     1       7.901   7.010  18.133  0.00  0.00    +0.000 A 
ATOM     18  C   UNL     1       6.858   7.324  17.264  0.00  0.00    +0.000 A 
ATOM     19  C   UNL     1       5.646   6.636  17.348  0.00  0.00    +0.000 A 
ENDBRANCH  13  14
ENDBRANCH  12  13
ENDBRANCH  10  12
ENDBRANCH   7   8
BRANCH   4  20
ATOM     20  C   UNL     1       0.187  11.415  18.620  0.00  0.00    +0.000 C 
BRANCH  20  21
ATOM     21  C   UNL     1      -1.266  11.192  18.288  0.00  0.00    +0.000 A 
ATOM     22  C   UNL     1      -1.595  10.198  17.345  0.00  0.00    +0.000 A 
ATOM     23  C   UNL     1      -2.929   9.866  17.087  0.00  0.00    +0.000 A 
ATOM     24  C   UNL     1      -3.947  10.529  17.757  0.00  0.00    +0.000 A 
ATOM     25  C   UNL     1      -3.643  11.556  18.647  0.00  0.00    +0.000 A 
ATOM     26  C   UNL     1      -2.310  11.900  18.901  0.00  0.00    +0.000 A 
ATOM     27 CL   UNL     1      -2.029  13.232  19.965  0.00  0.00    +0.000 Cl
ENDBRANCH  20  21
ENDBRANCH   4  20
TORSDOF 6
ENDMDL
MODEL 9
REMARK VINA RESULT:      -7.8      1.240      1.737
REMARK  Name = 
REMARK  7 active torsions:
REMARK  status: ('A' for Active; 'I' for Inactive)
REMARK    1  A    between atoms: C_1  and  C_2
REMARK    2  A    between atoms: N_4  and  C_5
REMARK    3  A    between atoms: C_5  and  C_6
REMARK    4  A    between atoms: C_15  and  C_16
REMARK    5  A    between atoms: N_18  and  C_19
REMARK    6  A    between atoms: C_19  and  C_20
REMARK    7  A    between atoms: C_20  and  C_21
REMARK                            x       y       z     vdW  Elec       q    Type
REMARK                         _______ _______ _______ _____ _____    ______ ____
ROOT
ATOM      1  C   UNL     1       8.073   5.525  20.137  0.00  0.00    +0.000 C 
ATOM      2  C   UNL     1       6.974   5.397  19.142  0.00  0.00    +0.000 A 
ATOM      3  N   UNL     1       6.034   4.454  19.309  0.00  0.00    +0.000 NA
ATOM      4  N   UNL     1       5.173   4.664  18.285  0.00  0.00    +0.000 N 
ATOM      5  C   UNL     1       5.533   5.735  17.522  0.00  0.00    +0.000 A 
ATOM      6 CL   UNL     1       4.501   6.339  16.307  0.00  0.00    +0.000 Cl
ATOM      7  C   UNL     1       6.765   6.163  17.958  0.00  0.00    +0.000 A 
ENDROOT
BRANCH   7   8
ATOM      8  C   UNL     1       7.621   7.185  17.386  0.00  0.00    +0.000 C 
ATOM      9  O   UNL     1       8.044   7.111  16.237  0.00  0.00    +0.000 OA
ATOM     10  N   UNL     1       7.859   8.275  18.198  0.00  0.00    +0.000 N 
ATOM     11  H   UNL     1       7.418   8.323  19.107  0.00  0.00    +0.000 HD
BRANCH  10  12
ATOM     12  C   UNL     1       8.674   9.378  17.731  0.00  0.00    +0.000 C 
BRANCH  12  13
ATOM     13  C   UNL     1       8.373  10.703  18.437  0.00  0.00    +0.000 C 
BRANCH  13  14
ATOM     14  C   UNL     1       9.610  11.570  18.478  0.00  0.00    +0.000 A 
ATOM     15  C   UNL     1       9.729  12.676  17.625  0.00  0.00    +0.000 A 
ATOM     16  C   UNL     1      10.904  13.430  17.603  0.00  0.00    +0.000 A 
ATOM     17  C   UNL     1      11.970  13.085  18.431  0.00  0.00    +0.000 A 
ATOM     18  C   UNL     1      11.861  11.991  19.287  0.00  0.00    +0.000 A 
ATOM     19  C   UNL     1      10.686  11.236  19.311  0.00  0.00    +0.000 A 
ENDBRANCH  13  14
ENDBRANCH  12  13
ENDBRANCH  10  12
ENDBRANCH   7   8
BRANCH   4  20
ATOM     20  C   UNL     1       4.080   3.717  18.068  0.00  0.00    +0.000 C 
BRANCH  20  21
ATOM     21  C   UNL     1       3.182   3.631  19.275  0.00  0.00    +0.000 A 
ATOM     22  C   UNL     1       2.085   4.510  19.362  0.00  0.00    +0.000 A 
ATOM     23  C   UNL     1       1.152   4.395  20.398  0.00  0.00    +0.000 A 
ATOM     24  C   UNL     1       1.310   3.410  21.362  0.00  0.00    +0.000 A 
ATOM     25  C   UNL     1       2.421   2.572  21.328  0.00  0.00    +0.000 A 
ATOM     26  C   UNL     1       3.364   2.690  20.300  0.00  0.00    +0.000 A 
ATOM     27 CL   UNL     1       4.746   1.655  20.376  0.00  0.00    +0.000 Cl
ENDBRANCH  20  21
ENDBRANCH   4  20
TORSDOF 6
ENDMDL
