MODEL 1
REMARK VINA RESULT:      -6.4      0.000      0.000
REMARK  Name = 
REMARK  7 active torsions:
REMARK  status: ('A' for Active; 'I' for Inactive)
REMARK    1  A    between atoms: C_1  and  C_2
REMARK    2  A    between atoms: C_3  and  O_4
REMARK    3  A    between atoms: N_9  and  C_10
REMARK    4  A    between atoms: C_10  and  C_11
REMARK    5  A    between atoms: C_11  and  C_12
REMARK    6  A    between atoms: N_14  and  C_15
REMARK    7  A    between atoms: N_14  and  C_16
REMARK                            x       y       z     vdW  Elec       q    Type
REMARK                         _______ _______ _______ _____ _____    ______ ____
ROOT
ATOM      1  C   UNL     1       5.492   4.589  15.105  0.00  0.00    +0.000 C 
ATOM      2  C   UNL     1       5.757   4.930  16.555  0.00  0.00    +0.000 A 
ATOM      3  C   UNL     1       6.818   5.711  16.892  0.00  0.00    +0.000 A 
ATOM      4  C   UNL     1       7.131   5.931  18.345  0.00  0.00    +0.000 A 
ATOM      5  O   UNL     1       8.065   6.630  18.727  0.00  0.00    +0.000 OA
ATOM      6  C   UNL     1       6.261   5.274  19.335  0.00  0.00    +0.000 A 
ATOM      7  C   UNL     1       5.241   4.544  18.882  0.00  0.00    +0.000 A 
ATOM      8  N   UNL     1       4.903   4.362  17.543  0.00  0.00    +0.000 N 
ENDROOT
BRANCH   3   9
ATOM      9  O   UNL     1       7.665   6.326  15.987  0.00  0.00    +0.000 OA
ATOM     10  H   UNL     1       7.661   5.822  15.160  0.00  0.00    +0.000 HD
ENDBRANCH   3   9
BRANCH   8  11
ATOM     11  C   UNL     1       3.680   3.561  17.226  0.00  0.00    +0.000 C 
BRANCH  11  12
ATOM     12  C   UNL     1       2.468   4.111  17.985  0.00  0.00    +0.000 C 
BRANCH  12  13
ATOM     13  C   UNL     1       1.918   3.156  19.028  0.00  0.00    +0.000 C 
ATOM     14  O   UNL     1       1.634   1.993  18.735  0.00  0.00    +0.000 OA
ATOM     15  N   UNL     1       1.769   3.674  20.313  0.00  0.00    +0.000 N 
ATOM     16  C   UNL     1       2.071   5.045  20.710  0.00  0.00    +0.000 C 
ATOM     17  C   UNL     1       1.271   2.816  21.380  0.00  0.00    +0.000 C 
ENDBRANCH  12  13
ENDBRANCH  11  12
ENDBRANCH   8  11
TORSDOF 4
ENDMDL
MODEL 2
REMARK VINA RESULT:      -6.2      2.175      5.511
REMARK  Name = 
REMARK  7 active torsions:
REMARK  status: ('A' for Active; 'I' for Inactive)
REMARK    1  A    between atoms: C_1  and  C_2
REMARK    2  A    between atoms: C_3  and  O_4
REMARK    3  A    between atoms: N_9  and  C_10
REMARK    4  A    between atoms: C_10  and  C_11
REMARK    5  A    between atoms: C_11  and  C_12
REMARK    6  A    between atoms: N_14  and  C_15
REMARK    7  A    between atoms: N_14  and  C_16
REMARK                            x       y       z     vdW  Elec       q    Type
REMARK                         _______ _______ _______ _____ _____    ______ ____
ROOT
ATOM      1  C   UNL     1       3.128   6.604  18.481  0.00  0.00    +0.000 C 
ATOM      2  C   UNL     1       3.114   5.216  19.086  0.00  0.00    +0.000 A 
ATOM      3  C   UNL     1       2.558   5.009  20.310  0.00  0.00    +0.000 A 
ATOM      4  C   UNL     1       2.668   3.649  20.940  0.00  0.00    +0.000 A 
ATOM      5  O   UNL     1       2.184   3.382  22.036  0.00  0.00    +0.000 OA
ATOM      6  C   UNL     1       3.387   2.607  20.189  0.00  0.00    +0.000 A 
ATOM      7  C   UNL     1       3.876   2.927  18.990  0.00  0.00    +0.000 A 
ATOM      8  N   UNL     1       3.749   4.165  18.365  0.00  0.00    +0.000 N 
ENDROOT
BRANCH   3   9
ATOM      9  O   UNL     1       1.893   5.971  21.049  0.00  0.00    +0.000 OA
ATOM     10  H   UNL     1       1.199   5.542  21.571  0.00  0.00    +0.000 HD
ENDBRANCH   3   9
BRANCH   8  11
ATOM     11  C   UNL     1       4.307   4.321  16.985  0.00  0.00    +0.000 C 
BRANCH  11  12
ATOM     12  C   UNL     1       5.829   4.478  17.038  0.00  0.00    +0.000 C 
BRANCH  12  13
ATOM     13  C   UNL     1       6.304   5.897  16.787  0.00  0.00    +0.000 C 
ATOM     14  O   UNL     1       5.918   6.530  15.802  0.00  0.00    +0.000 OA
ATOM     15  N   UNL     1       7.181   6.425  17.733  0.00  0.00    +0.000 N 
ATOM     16  C   UNL     1       7.684   5.716  18.905  0.00  0.00    +0.000 C 
ATOM     17  C   UNL     1       7.665   7.791  17.582  0.00  0.00    +0.000 C 
ENDBRANCH  12  13
ENDBRANCH  11  12
ENDBRANCH   8  11
TORSDOF 4
ENDMDL
MODEL 3
REMARK VINA RESULT:      -6.1      1.892      5.682
REMARK  Name = 
REMARK  7 active torsions:
REMARK  status: ('A' for Active; 'I' for Inactive)
REMARK    1  A    between atoms: C_1  and  C_2
REMARK    2  A    between atoms: C_3  and  O_4
REMARK    3  A    between atoms: N_9  and  C_10
REMARK    4  A    between atoms: C_10  and  C_11
REMARK    5  A    between atoms: C_11  and  C_12
REMARK    6  A    between atoms: N_14  and  C_15
REMARK    7  A    between atoms: N_14  and  C_16
REMARK                            x       y       z     vdW  Elec       q    Type
REMARK                         _______ _______ _______ _____ _____    ______ ____
ROOT
ATOM      1  C   UNL     1       1.742   5.180  17.926  0.00  0.00    +0.000 C 
ATOM      2  C   UNL     1       2.488   4.195  18.800  0.00  0.00    +0.000 A 
ATOM      3  C   UNL     1       1.925   3.737  19.950  0.00  0.00    +0.000 A 
ATOM      4  C   UNL     1       2.735   2.859  20.861  0.00  0.00    +0.000 A 
ATOM      5  O   UNL     1       2.294   2.400  21.910  0.00  0.00    +0.000 OA
ATOM      6  C   UNL     1       4.115   2.546  20.454  0.00  0.00    +0.000 A 
ATOM      7  C   UNL     1       4.551   3.041  19.294  0.00  0.00    +0.000 A 
ATOM      8  N   UNL     1       3.806   3.819  18.412  0.00  0.00    +0.000 N 
ENDROOT
BRANCH   3   9
ATOM      9  O   UNL     1       0.639   4.029  20.370  0.00  0.00    +0.000 OA
ATOM     10  H   UNL     1       0.266   4.709  19.791  0.00  0.00    +0.000 HD
ENDBRANCH   3   9
BRANCH   8  11
ATOM     11  C   UNL     1       4.443   4.231  17.122  0.00  0.00    +0.000 C 
BRANCH  11  12
ATOM     12  C   UNL     1       5.945   4.462  17.316  0.00  0.00    +0.000 C 
BRANCH  12  13
ATOM     13  C   UNL     1       6.394   5.870  16.973  0.00  0.00    +0.000 C 
ATOM     14  O   UNL     1       6.000   6.429  15.948  0.00  0.00    +0.000 OA
ATOM     15  N   UNL     1       7.256   6.476  17.885  0.00  0.00    +0.000 N 
ATOM     16  C   UNL     1       7.767   5.856  19.103  0.00  0.00    +0.000 C 
ATOM     17  C   UNL     1       7.715   7.838  17.645  0.00  0.00    +0.000 C 
ENDBRANCH  12  13
ENDBRANCH  11  12
ENDBRANCH   8  11
TORSDOF 4
ENDMDL
MODEL 4
REMARK VINA RESULT:      -6.1      1.635      1.811
REMARK  Name = 
REMARK  7 active torsions:
REMARK  status: ('A' for Active; 'I' for Inactive)
REMARK    1  A    between atoms: C_1  and  C_2
REMARK    2  A    between atoms: C_3  and  O_4
REMARK    3  A    between atoms: N_9  and  C_10
REMARK    4  A    between atoms: C_10  and  C_11
REMARK    5  A    between atoms: C_11  and  C_12
REMARK    6  A    between atoms: N_14  and  C_15
REMARK    7  A    between atoms: N_14  and  C_16
REMARK                            x       y       z     vdW  Elec       q    Type
REMARK                         _______ _______ _______ _____ _____    ______ ____
ROOT
ATOM      1  C   UNL     1       4.872   6.719  15.450  0.00  0.00    +0.000 C 
ATOM      2  C   UNL     1       5.462   6.009  16.650  0.00  0.00    +0.000 A 
ATOM      3  C   UNL     1       6.713   5.479  16.585  0.00  0.00    +0.000 A 
ATOM      4  C   UNL     1       7.225   4.673  17.745  0.00  0.00    +0.000 A 
ATOM      5  O   UNL     1       8.345   4.172  17.765  0.00  0.00    +0.000 OA
ATOM      6  C   UNL     1       6.328   4.495  18.899  0.00  0.00    +0.000 A 
ATOM      7  C   UNL     1       5.128   5.077  18.852  0.00  0.00    +0.000 A 
ATOM      8  N   UNL     1       4.648   5.865  17.809  0.00  0.00    +0.000 N 
ENDROOT
BRANCH   3   9
ATOM      9  O   UNL     1       7.573   5.612  15.509  0.00  0.00    +0.000 OA
ATOM     10  H   UNL     1       8.485   5.612  15.834  0.00  0.00    +0.000 HD
ENDBRANCH   3   9
BRANCH   8  11
ATOM     11  C   UNL     1       3.298   6.493  17.962  0.00  0.00    +0.000 C 
BRANCH  11  12
ATOM     12  C   UNL     1       2.484   5.759  19.033  0.00  0.00    +0.000 C 
BRANCH  12  13
ATOM     13  C   UNL     1       1.743   4.544  18.507  0.00  0.00    +0.000 C 
ATOM     14  O   UNL     1       1.395   4.475  17.327  0.00  0.00    +0.000 OA
ATOM     15  N   UNL     1       1.497   3.531  19.432  0.00  0.00    +0.000 N 
ATOM     16  C   UNL     1       1.869   3.567  20.842  0.00  0.00    +0.000 C 
ATOM     17  C   UNL     1       0.812   2.317  19.004  0.00  0.00    +0.000 C 
ENDBRANCH  12  13
ENDBRANCH  11  12
ENDBRANCH   8  11
TORSDOF 4
ENDMDL
MODEL 5
REMARK VINA RESULT:      -6.0      1.741      2.388
REMARK  Name = 
REMARK  7 active torsions:
REMARK  status: ('A' for Active; 'I' for Inactive)
REMARK    1  A    between atoms: C_1  and  C_2
REMARK    2  A    between atoms: C_3  and  O_4
REMARK    3  A    between atoms: N_9  and  C_10
REMARK    4  A    between atoms: C_10  and  C_11
REMARK    5  A    between atoms: C_11  and  C_12
REMARK    6  A    between atoms: N_14  and  C_15
REMARK    7  A    between atoms: N_14  and  C_16
REMARK                            x       y       z     vdW  Elec       q    Type
REMARK                         _______ _______ _______ _____ _____    ______ ____
ROOT
ATOM      1  C   UNL     1       3.423   6.341  17.518  0.00  0.00    +0.000 C 
ATOM      2  C   UNL     1       4.831   5.819  17.330  0.00  0.00    +0.000 A 
ATOM      3  C   UNL     1       5.525   6.114  16.199  0.00  0.00    +0.000 A 
ATOM      4  C   UNL     1       6.871   5.481  15.983  0.00  0.00    +0.000 A 
ATOM      5  O   UNL     1       7.561   5.706  14.993  0.00  0.00    +0.000 OA
ATOM      6  C   UNL     1       7.364   4.560  17.019  0.00  0.00    +0.000 A 
ATOM      7  C   UNL     1       6.598   4.361  18.093  0.00  0.00    +0.000 A 
ATOM      8  N   UNL     1       5.369   4.969  18.339  0.00  0.00    +0.000 N 
ENDROOT
BRANCH   3   9
ATOM      9  O   UNL     1       5.082   6.961  15.198  0.00  0.00    +0.000 OA
ATOM     10  H   UNL     1       5.799   7.565  14.957  0.00  0.00    +0.000 HD
ENDBRANCH   3   9
BRANCH   8  11
ATOM     11  C   UNL     1       4.681   4.674  19.634  0.00  0.00    +0.000 C 
BRANCH  11  12
ATOM     12  C   UNL     1       4.330   3.186  19.728  0.00  0.00    +0.000 C 
BRANCH  12  13
ATOM     13  C   UNL     1       3.128   2.790  18.891  0.00  0.00    +0.000 C 
ATOM     14  O   UNL     1       3.242   2.564  17.685  0.00  0.00    +0.000 OA
ATOM     15  N   UNL     1       1.915   2.694  19.571  0.00  0.00    +0.000 N 
ATOM     16  C   UNL     1       1.720   2.967  20.990  0.00  0.00    +0.000 C 
ATOM     17  C   UNL     1       0.715   2.294  18.847  0.00  0.00    +0.000 C 
ENDBRANCH  12  13
ENDBRANCH  11  12
ENDBRANCH   8  11
TORSDOF 4
ENDMDL
MODEL 6
REMARK VINA RESULT:      -6.0      1.934      5.635
REMARK  Name = 
REMARK  7 active torsions:
REMARK  status: ('A' for Active; 'I' for Inactive)
REMARK    1  A    between atoms: C_1  and  C_2
REMARK    2  A    between atoms: C_3  and  O_4
REMARK    3  A    between atoms: N_9  and  C_10
REMARK    4  A    between atoms: C_10  and  C_11
REMARK    5  A    between atoms: C_11  and  C_12
REMARK    6  A    between atoms: N_14  and  C_15
REMARK    7  A    between atoms: N_14  and  C_16
REMARK                            x       y       z     vdW  Elec       q    Type
REMARK                         _______ _______ _______ _____ _____    ______ ____
ROOT
ATOM      1  C   UNL     1       2.863   3.488  16.903  0.00  0.00    +0.000 C 
ATOM      2  C   UNL     1       2.653   3.863  18.355  0.00  0.00    +0.000 A 
ATOM      3  C   UNL     1       2.279   2.918  19.258  0.00  0.00    +0.000 A 
ATOM      4  C   UNL     1       1.957   3.340  20.664  0.00  0.00    +0.000 A 
ATOM      5  O   UNL     1       1.623   2.545  21.538  0.00  0.00    +0.000 OA
ATOM      6  C   UNL     1       2.061   4.773  20.985  0.00  0.00    +0.000 A 
ATOM      7  C   UNL     1       2.453   5.602  20.017  0.00  0.00    +0.000 A 
ATOM      8  N   UNL     1       2.800   5.231  18.720  0.00  0.00    +0.000 N 
ENDROOT
BRANCH   3   9
ATOM      9  O   UNL     1       2.154   1.568  18.984  0.00  0.00    +0.000 OA
ATOM     10  H   UNL     1       1.356   1.232  19.417  0.00  0.00    +0.000 HD
ENDBRANCH   3   9
BRANCH   8  11
ATOM     11  C   UNL     1       3.283   6.296  17.786  0.00  0.00    +0.000 C 
BRANCH  11  12
ATOM     12  C   UNL     1       4.814   6.356  17.788  0.00  0.00    +0.000 C 
BRANCH  12  13
ATOM     13  C   UNL     1       5.433   6.124  16.422  0.00  0.00    +0.000 C 
ATOM     14  O   UNL     1       5.032   6.737  15.431  0.00  0.00    +0.000 OA
ATOM     15  N   UNL     1       6.472   5.196  16.372  0.00  0.00    +0.000 N 
ATOM     16  C   UNL     1       6.975   4.430  17.508  0.00  0.00    +0.000 C 
ATOM     17  C   UNL     1       7.140   4.932  15.104  0.00  0.00    +0.000 C 
ENDBRANCH  12  13
ENDBRANCH  11  12
ENDBRANCH   8  11
TORSDOF 4
ENDMDL
MODEL 7
REMARK VINA RESULT:      -6.0      1.610      2.575
REMARK  Name = 
REMARK  7 active torsions:
REMARK  status: ('A' for Active; 'I' for Inactive)
REMARK    1  A    between atoms: C_1  and  C_2
REMARK    2  A    between atoms: C_3  and  O_4
REMARK    3  A    between atoms: N_9  and  C_10
REMARK    4  A    between atoms: C_10  and  C_11
REMARK    5  A    between atoms: C_11  and  C_12
REMARK    6  A    between atoms: N_14  and  C_15
REMARK    7  A    between atoms: N_14  and  C_16
REMARK                            x       y       z     vdW  Elec       q    Type
REMARK                         _______ _______ _______ _____ _____    ______ ____
ROOT
ATOM      1  C   UNL     1       5.349   4.396  19.554  0.00  0.00    +0.000 C 
ATOM      2  C   UNL     1       5.426   5.043  18.187  0.00  0.00    +0.000 A 
ATOM      3  C   UNL     1       6.502   4.826  17.386  0.00  0.00    +0.000 A 
ATOM      4  C   UNL     1       6.611   5.578  16.090  0.00  0.00    +0.000 A 
ATOM      5  O   UNL     1       7.547   5.428  15.310  0.00  0.00    +0.000 OA
ATOM      6  C   UNL     1       5.534   6.526  15.761  0.00  0.00    +0.000 A 
ATOM      7  C   UNL     1       4.521   6.642  16.620  0.00  0.00    +0.000 A 
ATOM      8  N   UNL     1       4.374   5.924  17.805  0.00  0.00    +0.000 N 
ENDROOT
BRANCH   3   9
ATOM      9  O   UNL     1       7.540   3.957  17.675  0.00  0.00    +0.000 OA
ATOM     10  H   UNL     1       8.023   3.763  16.859  0.00  0.00    +0.000 HD
ENDBRANCH   3   9
BRANCH   8  11
ATOM     11  C   UNL     1       3.132   6.140  18.612  0.00  0.00    +0.000 C 
BRANCH  11  12
ATOM     12  C   UNL     1       1.927   5.491  17.924  0.00  0.00    +0.000 C 
BRANCH  12  13
ATOM     13  C   UNL     1       1.953   3.974  17.954  0.00  0.00    +0.000 C 
ATOM     14  O   UNL     1       2.337   3.328  16.977  0.00  0.00    +0.000 OA
ATOM     15  N   UNL     1       1.530   3.379  19.141  0.00  0.00    +0.000 N 
ATOM     16  C   UNL     1       1.050   4.092  20.318  0.00  0.00    +0.000 C 
ATOM     17  C   UNL     1       1.548   1.926  19.262  0.00  0.00    +0.000 C 
ENDBRANCH  12  13
ENDBRANCH  11  12
ENDBRANCH   8  11
TORSDOF 4
ENDMDL
MODEL 8
REMARK VINA RESULT:      -6.0      1.905      2.623
REMARK  Name = 
REMARK  7 active torsions:
REMARK  status: ('A' for Active; 'I' for Inactive)
REMARK    1  A    between atoms: C_1  and  C_2
REMARK    2  A    between atoms: C_3  and  O_4
REMARK    3  A    between atoms: N_9  and  C_10
REMARK    4  A    between atoms: C_10  and  C_11
REMARK    5  A    between atoms: C_11  and  C_12
REMARK    6  A    between atoms: N_14  and  C_15
REMARK    7  A    between atoms: N_14  and  C_16
REMARK                            x       y       z     vdW  Elec       q    Type
REMARK                         _______ _______ _______ _____ _____    ______ ____
ROOT
ATOM      1  C   UNL     1       3.478   6.438  17.500  0.00  0.00    +0.000 C 
ATOM      2  C   UNL     1       4.865   5.871  17.286  0.00  0.00    +0.000 A 
ATOM      3  C   UNL     1       5.540   6.129  16.135  0.00  0.00    +0.000 A 
ATOM      4  C   UNL     1       6.861   5.452  15.896  0.00  0.00    +0.000 A 
ATOM      5  O   UNL     1       7.534   5.642  14.887  0.00  0.00    +0.000 OA
ATOM      6  C   UNL     1       7.350   4.531  16.934  0.00  0.00    +0.000 A 
ATOM      7  C   UNL     1       6.605   4.370  18.029  0.00  0.00    +0.000 A 
ATOM      8  N   UNL     1       5.401   5.019  18.294  0.00  0.00    +0.000 N 
ENDROOT
BRANCH   3   9
ATOM      9  O   UNL     1       5.099   6.974  15.132  0.00  0.00    +0.000 OA
ATOM     10  H   UNL     1       4.755   7.785  15.534  0.00  0.00    +0.000 HD
ENDBRANCH   3   9
BRANCH   8  11
ATOM     11  C   UNL     1       4.736   4.763  19.610  0.00  0.00    +0.000 C 
BRANCH  11  12
ATOM     12  C   UNL     1       4.383   3.280  19.752  0.00  0.00    +0.000 C 
BRANCH  12  13
ATOM     13  C   UNL     1       2.906   3.025  19.989  0.00  0.00    +0.000 C 
ATOM     14  O   UNL     1       2.427   3.080  21.123  0.00  0.00    +0.000 OA
ATOM     15  N   UNL     1       2.146   2.739  18.856  0.00  0.00    +0.000 N 
ATOM     16  C   UNL     1       2.663   2.643  17.496  0.00  0.00    +0.000 C 
ATOM     17  C   UNL     1       0.714   2.507  18.992  0.00  0.00    +0.000 C 
ENDBRANCH  12  13
ENDBRANCH  11  12
ENDBRANCH   8  11
TORSDOF 4
ENDMDL
MODEL 9
REMARK VINA RESULT:      -6.0      1.371      2.375
REMARK  Name = 
REMARK  7 active torsions:
REMARK  status: ('A' for Active; 'I' for Inactive)
REMARK    1  A    between atoms: C_1  and  C_2
REMARK    2  A    between atoms: C_3  and  O_4
REMARK    3  A    between atoms: N_9  and  C_10
REMARK    4  A    between atoms: C_10  and  C_11
REMARK    5  A    between atoms: C_11  and  C_12
REMARK    6  A    between atoms: N_14  and  C_15
REMARK    7  A    between atoms: N_14  and  C_16
REMARK                            x       y       z     vdW  Elec       q    Type
REMARK                         _______ _______ _______ _____ _____    ______ ____
ROOT
ATOM      1  C   UNL     1       3.976   5.725  19.196  0.00  0.00    +0.000 C 
ATOM      2  C   UNL     1       4.731   5.005  18.100  0.00  0.00    +0.000 A 
ATOM      3  C   UNL     1       6.077   5.156  17.982  0.00  0.00    +0.000 A 
ATOM      4  C   UNL     1       6.783   4.531  16.812  0.00  0.00    +0.000 A 
ATOM      5  O   UNL     1       7.996   4.615  16.643  0.00  0.00    +0.000 OA
ATOM      6  C   UNL     1       5.963   3.786  15.842  0.00  0.00    +0.000 A 
ATOM      7  C   UNL     1       4.653   3.694  16.074  0.00  0.00    +0.000 A 
ATOM      8  N   UNL     1       3.982   4.225  17.173  0.00  0.00    +0.000 N 
ENDROOT
BRANCH   3   9
ATOM      9  O   UNL     1       6.873   5.865  18.865  0.00  0.00    +0.000 OA
ATOM     10  H   UNL     1       7.732   6.030  18.450  0.00  0.00    +0.000 HD
ENDBRANCH   3   9
BRANCH   8  11
ATOM     11  C   UNL     1       2.514   3.963  17.299  0.00  0.00    +0.000 C 
BRANCH  11  12
ATOM     12  C   UNL     1       2.268   2.572  17.891  0.00  0.00    +0.000 C 
BRANCH  12  13
ATOM     13  C   UNL     1       1.451   2.591  19.170  0.00  0.00    +0.000 C 
ATOM     14  O   UNL     1       0.221   2.657  19.137  0.00  0.00    +0.000 OA
ATOM     15  N   UNL     1       2.176   2.519  20.359  0.00  0.00    +0.000 N 
ATOM     16  C   UNL     1       3.630   2.457  20.458  0.00  0.00    +0.000 C 
ATOM     17  C   UNL     1       1.468   2.505  21.632  0.00  0.00    +0.000 C 
ENDBRANCH  12  13
ENDBRANCH  11  12
ENDBRANCH   8  11
TORSDOF 4
ENDMDL
