MODEL 1
REMARK VINA RESULT:      -3.9      0.000      0.000
REMARK  Name = 
REMARK  4 active torsions:
REMARK  status: ('A' for Active; 'I' for Inactive)
REMARK    1  A    between atoms: C_1  and  C_2
REMARK    2  A    between atoms: C_2  and  C_3
REMARK    3  A    between atoms: C_3  and  C_4
REMARK    4  A    between atoms: C_4  and  C_5
REMARK                            x       y       z     vdW  Elec       q    Type
REMARK                         _______ _______ _______ _____ _____    ______ ____
ROOT
ATOM      1  C   UNL     1       8.998   5.213  28.129  0.00  0.00    +0.000 C 
ENDROOT
BRANCH   1   2
ATOM      2  C   UNL     1       7.663   4.652  27.672  0.00  0.00    +0.000 C 
ATOM      3  C   UNL     1       6.425   5.358  28.159  0.00  0.00    +0.000 C 
ATOM      4  O   UNL     1       7.571   3.667  26.939  0.00  0.00    +0.000 OA
ENDBRANCH   1   2
BRANCH   1   6
ATOM      5  C   UNL     1      11.502   5.092  27.867  0.00  0.00    +0.000 C 
ATOM      6  C   UNL     1      10.179   4.379  27.641  0.00  0.00    +0.000 C 
ENDBRANCH   1   6
TORSDOF 2
ENDMDL
MODEL 2
REMARK VINA RESULT:      -3.9      0.983      1.307
REMARK  Name = 
REMARK  4 active torsions:
REMARK  status: ('A' for Active; 'I' for Inactive)
REMARK    1  A    between atoms: C_1  and  C_2
REMARK    2  A    between atoms: C_2  and  C_3
REMARK    3  A    between atoms: C_3  and  C_4
REMARK    4  A    between atoms: C_4  and  C_5
REMARK                            x       y       z     vdW  Elec       q    Type
REMARK                         _______ _______ _______ _____ _____    ______ ____
ROOT
ATOM      1  C   UNL     1       9.954   4.086  27.320  0.00  0.00    +0.000 C 
ENDROOT
BRANCH   1   2
ATOM      2  C   UNL     1       8.493   4.416  27.573  0.00  0.00    +0.000 C 
ATOM      3  C   UNL     1       8.207   5.591  28.469  0.00  0.00    +0.000 C 
ATOM      4  O   UNL     1       7.571   3.767  27.080  0.00  0.00    +0.000 OA
ENDBRANCH   1   2
BRANCH   1   6
ATOM      5  C   UNL     1      12.063   3.998  28.698  0.00  0.00    +0.000 C 
ATOM      6  C   UNL     1      10.894   4.856  28.245  0.00  0.00    +0.000 C 
ENDBRANCH   1   6
TORSDOF 2
ENDMDL
MODEL 3
REMARK VINA RESULT:      -3.8     16.821     17.450
REMARK  Name = 
REMARK  4 active torsions:
REMARK  status: ('A' for Active; 'I' for Inactive)
REMARK    1  A    between atoms: C_1  and  C_2
REMARK    2  A    between atoms: C_2  and  C_3
REMARK    3  A    between atoms: C_3  and  C_4
REMARK    4  A    between atoms: C_4  and  C_5
REMARK                            x       y       z     vdW  Elec       q    Type
REMARK                         _______ _______ _______ _____ _____    ______ ____
ROOT
ATOM      1  C   UNL     1       4.062   3.484  11.615  0.00  0.00    +0.000 C 
ENDROOT
BRANCH   1   2
ATOM      2  C   UNL     1       5.409   2.789  11.721  0.00  0.00    +0.000 C 
ATOM      3  C   UNL     1       6.547   3.595  12.288  0.00  0.00    +0.000 C 
ATOM      4  O   UNL     1       5.586   1.624  11.365  0.00  0.00    +0.000 OA
ENDBRANCH   1   2
BRANCH   1   6
ATOM      5  C   UNL     1       2.884   4.325   9.551  0.00  0.00    +0.000 C 
ATOM      6  C   UNL     1       3.307   3.100  10.345  0.00  0.00    +0.000 C 
ENDBRANCH   1   6
TORSDOF 2
ENDMDL
MODEL 4
REMARK VINA RESULT:      -3.7     16.692     17.323
REMARK  Name = 
REMARK  4 active torsions:
REMARK  status: ('A' for Active; 'I' for Inactive)
REMARK    1  A    between atoms: C_1  and  C_2
REMARK    2  A    between atoms: C_2  and  C_3
REMARK    3  A    between atoms: C_3  and  C_4
REMARK    4  A    between atoms: C_4  and  C_5
REMARK                            x       y       z     vdW  Elec       q    Type
REMARK                         _______ _______ _______ _____ _____    ______ ____
ROOT
ATOM      1  C   UNL     1       4.295   3.522  11.803  0.00  0.00    +0.000 C 
ENDROOT
BRANCH   1   2
ATOM      2  C   UNL     1       5.702   2.951  11.852  0.00  0.00    +0.000 C 
ATOM      3  C   UNL     1       5.885   1.549  11.334  0.00  0.00    +0.000 C 
ATOM      4  O   UNL     1       6.661   3.584  12.290  0.00  0.00    +0.000 OA
ENDBRANCH   1   2
BRANCH   1   6
ATOM      5  C   UNL     1       3.013   4.177   9.733  0.00  0.00    +0.000 C 
ATOM      6  C   UNL     1       3.506   3.025  10.594  0.00  0.00    +0.000 C 
ENDBRANCH   1   6
TORSDOF 2
ENDMDL
MODEL 5
REMARK VINA RESULT:      -3.6     14.518     15.056
REMARK  Name = 
REMARK  4 active torsions:
REMARK  status: ('A' for Active; 'I' for Inactive)
REMARK    1  A    between atoms: C_1  and  C_2
REMARK    2  A    between atoms: C_2  and  C_3
REMARK    3  A    between atoms: C_3  and  C_4
REMARK    4  A    between atoms: C_4  and  C_5
REMARK                            x       y       z     vdW  Elec       q    Type
REMARK                         _______ _______ _______ _____ _____    ______ ____
ROOT
ATOM      1  C   UNL     1       6.057   3.873  13.707  0.00  0.00    +0.000 C 
ENDROOT
BRANCH   1   2
ATOM      2  C   UNL     1       7.170   4.887  13.911  0.00  0.00    +0.000 C 
ATOM      3  C   UNL     1       7.913   5.339  12.682  0.00  0.00    +0.000 C 
ATOM      4  O   UNL     1       7.469   5.332  15.019  0.00  0.00    +0.000 OA
ENDBRANCH   1   2
BRANCH   1   6
ATOM      5  C   UNL     1       4.620   3.291  11.720  0.00  0.00    +0.000 C 
ATOM      6  C   UNL     1       6.030   3.316  12.286  0.00  0.00    +0.000 C 
ENDBRANCH   1   6
TORSDOF 2
ENDMDL
MODEL 6
REMARK VINA RESULT:      -3.6     10.356     11.481
REMARK  Name = 
REMARK  4 active torsions:
REMARK  status: ('A' for Active; 'I' for Inactive)
REMARK    1  A    between atoms: C_1  and  C_2
REMARK    2  A    between atoms: C_2  and  C_3
REMARK    3  A    between atoms: C_3  and  C_4
REMARK    4  A    between atoms: C_4  and  C_5
REMARK                            x       y       z     vdW  Elec       q    Type
REMARK                         _______ _______ _______ _____ _____    ______ ____
ROOT
ATOM      1  C   UNL     1       0.718   3.133  19.388  0.00  0.00    +0.000 C 
ENDROOT
BRANCH   1   2
ATOM      2  C   UNL     1       1.637   3.332  18.195  0.00  0.00    +0.000 C 
ATOM      3  C   UNL     1       2.005   4.751  17.849  0.00  0.00    +0.000 C 
ATOM      4  O   UNL     1       2.071   2.395  17.526  0.00  0.00    +0.000 OA
ENDBRANCH   1   2
BRANCH   1   6
ATOM      5  C   UNL     1       1.806   2.784  21.635  0.00  0.00    +0.000 C 
ATOM      6  C   UNL     1       1.252   3.802  20.653  0.00  0.00    +0.000 C 
ENDBRANCH   1   6
TORSDOF 2
ENDMDL
MODEL 7
REMARK VINA RESULT:      -3.5     15.242     15.637
REMARK  Name = 
REMARK  4 active torsions:
REMARK  status: ('A' for Active; 'I' for Inactive)
REMARK    1  A    between atoms: C_1  and  C_2
REMARK    2  A    between atoms: C_2  and  C_3
REMARK    3  A    between atoms: C_3  and  C_4
REMARK    4  A    between atoms: C_4  and  C_5
REMARK                            x       y       z     vdW  Elec       q    Type
REMARK                         _______ _______ _______ _____ _____    ______ ____
ROOT
ATOM      1  C   UNL     1       6.376   3.574  12.486  0.00  0.00    +0.000 C 
ENDROOT
BRANCH   1   2
ATOM      2  C   UNL     1       5.433   2.682  11.697  0.00  0.00    +0.000 C 
ATOM      3  C   UNL     1       4.100   3.270  11.317  0.00  0.00    +0.000 C 
ATOM      4  O   UNL     1       5.722   1.531  11.373  0.00  0.00    +0.000 OA
ENDBRANCH   1   2
BRANCH   1   6
ATOM      5  C   UNL     1       6.832   4.693  14.699  0.00  0.00    +0.000 C 
ATOM      6  C   UNL     1       5.803   3.971  13.845  0.00  0.00    +0.000 C 
ENDBRANCH   1   6
TORSDOF 2
ENDMDL
MODEL 8
REMARK VINA RESULT:      -3.5     12.775     13.227
REMARK  Name = 
REMARK  4 active torsions:
REMARK  status: ('A' for Active; 'I' for Inactive)
REMARK    1  A    between atoms: C_1  and  C_2
REMARK    2  A    between atoms: C_2  and  C_3
REMARK    3  A    between atoms: C_3  and  C_4
REMARK    4  A    between atoms: C_4  and  C_5
REMARK                            x       y       z     vdW  Elec       q    Type
REMARK                         _______ _______ _______ _____ _____    ______ ____
ROOT
ATOM      1  C   UNL     1       6.862   4.771  14.497  0.00  0.00    +0.000 C 
ENDROOT
BRANCH   1   2
ATOM      2  C   UNL     1       6.865   4.505  15.993  0.00  0.00    +0.000 C 
ATOM      3  C   UNL     1       5.529   4.254  16.641  0.00  0.00    +0.000 C 
ATOM      4  O   UNL     1       7.896   4.493  16.664  0.00  0.00    +0.000 OA
ENDBRANCH   1   2
BRANCH   1   6
ATOM      5  C   UNL     1       6.380   3.534  12.354  0.00  0.00    +0.000 C 
ATOM      6  C   UNL     1       5.879   3.875  13.748  0.00  0.00    +0.000 C 
ENDBRANCH   1   6
TORSDOF 2
ENDMDL
MODEL 9
REMARK VINA RESULT:      -3.5     13.696     14.181
REMARK  Name = 
REMARK  4 active torsions:
REMARK  status: ('A' for Active; 'I' for Inactive)
REMARK    1  A    between atoms: C_1  and  C_2
REMARK    2  A    between atoms: C_2  and  C_3
REMARK    3  A    between atoms: C_3  and  C_4
REMARK    4  A    between atoms: C_4  and  C_5
REMARK                            x       y       z     vdW  Elec       q    Type
REMARK                         _______ _______ _______ _____ _____    ______ ____
ROOT
ATOM      1  C   UNL     1       5.743   3.900  14.258  0.00  0.00    +0.000 C 
ENDROOT
BRANCH   1   2
ATOM      2  C   UNL     1       6.411   5.087  14.931  0.00  0.00    +0.000 C 
ATOM      3  C   UNL     1       5.543   5.949  15.808  0.00  0.00    +0.000 C 
ATOM      4  O   UNL     1       7.604   5.352  14.780  0.00  0.00    +0.000 OA
ENDBRANCH   1   2
BRANCH   1   6
ATOM      5  C   UNL     1       5.154   3.180  11.915  0.00  0.00    +0.000 C 
ATOM      6  C   UNL     1       6.257   3.668  12.839  0.00  0.00    +0.000 C 
ENDBRANCH   1   6
TORSDOF 2
ENDMDL
