MODEL 1
REMARK VINA RESULT:      -9.3      0.000      0.000
REMARK  Name = 
REMARK  5 active torsions:
REMARK  status: ('A' for Active; 'I' for Inactive)
REMARK    1  A    between atoms: C_1  and  C_2
REMARK    2  A    between atoms: N_8  and  C_9
REMARK    3  A    between atoms: C_9  and  C_10
REMARK    4  A    between atoms: C_9  and  C_17
REMARK    5  A    between atoms: C_10  and  C_11
REMARK                            x       y       z     vdW  Elec       q    Type
REMARK                         _______ _______ _______ _____ _____    ______ ____
ROOT
ATOM      1  C   UNL     1       3.556   5.245  17.982  0.00  0.00    +0.000 C 
ENDROOT
BRANCH   1   9
ATOM      2  C   UNL     1      -0.630  10.135  23.035  0.00  0.00    +0.000 C 
ATOM      3  C   UNL     1      -0.017   9.654  21.748  0.00  0.00    +0.000 A 
ATOM      4  C   UNL     1      -0.247  10.381  20.565  0.00  0.00    +0.000 A 
ATOM      5  C   UNL     1       0.378  10.040  19.364  0.00  0.00    +0.000 A 
ATOM      6  C   UNL     1       1.221   8.941  19.416  0.00  0.00    +0.000 A 
ATOM      7  O   UNL     1       1.980   8.456  18.403  0.00  0.00    +0.000 OA
ATOM      8  C   UNL     1       2.559   7.329  18.914  0.00  0.00    +0.000 A 
ATOM      9  N   UNL     1       3.281   6.672  17.997  0.00  0.00    +0.000 N 
ATOM     10  N   UNL     1       2.267   7.090  20.176  0.00  0.00    +0.000 NA
ATOM     11  C   UNL     1       1.443   8.145  20.527  0.00  0.00    +0.000 A 
ATOM     12  C   UNL     1       0.830   8.519  21.737  0.00  0.00    +0.000 A 
ATOM     13  H   UNL     1       4.051   7.231  17.639  0.00  0.00    +0.000 HD
ENDBRANCH   1   9
BRANCH   1  14
ATOM     14  C   UNL     1       4.820   4.989  17.165  0.00  0.00    +0.000 A 
ATOM     15  C   UNL     1       4.824   4.073  16.106  0.00  0.00    +0.000 A 
ATOM     16  C   UNL     1       5.978   3.885  15.344  0.00  0.00    +0.000 A 
ATOM     17  C   UNL     1       7.108   4.617  15.666  0.00  0.00    +0.000 A 
ATOM     18  N   UNL     1       7.156   5.503  16.679  0.00  0.00    +0.000 NA
ATOM     19  C   UNL     1       6.018   5.671  17.394  0.00  0.00    +0.000 A 
ENDBRANCH   1  14
BRANCH   1  20
ATOM     20  C   UNL     1       2.372   4.345  17.518  0.00  0.00    +0.000 C 
BRANCH  20  21
ATOM     21  C   UNL     1       2.030   3.068  18.335  0.00  0.00    +0.000 C 
ATOM     22  C   UNL     1       3.219   2.368  19.027  0.00  0.00    +0.000 C 
ATOM     23  C   UNL     1       3.457   2.655  20.509  0.00  0.00    +0.000 C 
ATOM     24  C   UNL     1       2.176   2.764  21.314  0.00  0.00    +0.000 C 
ATOM     25  C   UNL     1       1.265   3.801  20.683  0.00  0.00    +0.000 C 
ATOM     26  C   UNL     1       0.850   3.340  19.293  0.00  0.00    +0.000 C 
ENDBRANCH  20  21
ENDBRANCH   1  20
TORSDOF 4
ENDMDL
MODEL 2
REMARK VINA RESULT:      -9.1      0.840      1.090
REMARK  Name = 
REMARK  5 active torsions:
REMARK  status: ('A' for Active; 'I' for Inactive)
REMARK    1  A    between atoms: C_1  and  C_2
REMARK    2  A    between atoms: N_8  and  C_9
REMARK    3  A    between atoms: C_9  and  C_10
REMARK    4  A    between atoms: C_9  and  C_17
REMARK    5  A    between atoms: C_10  and  C_11
REMARK                            x       y       z     vdW  Elec       q    Type
REMARK                         _______ _______ _______ _____ _____    ______ ____
ROOT
ATOM      1  C   UNL     1       3.271   5.603  18.418  0.00  0.00    +0.000 C 
ENDROOT
BRANCH   1   9
ATOM      2  C   UNL     1      -1.040  10.778  23.066  0.00  0.00    +0.000 C 
ATOM      3  C   UNL     1      -0.397  10.222  21.825  0.00  0.00    +0.000 A 
ATOM      4  C   UNL     1      -0.604  10.872  20.594  0.00  0.00    +0.000 A 
ATOM      5  C   UNL     1       0.047  10.460  19.430  0.00  0.00    +0.000 A 
ATOM      6  C   UNL     1       0.893   9.370  19.569  0.00  0.00    +0.000 A 
ATOM      7  O   UNL     1       1.675   8.827  18.604  0.00  0.00    +0.000 OA
ATOM      8  C   UNL     1       2.247   7.737  19.197  0.00  0.00    +0.000 A 
ATOM      9  N   UNL     1       2.990   7.027  18.338  0.00  0.00    +0.000 N 
ATOM     10  N   UNL     1       1.929   7.575  20.464  0.00  0.00    +0.000 NA
ATOM     11  C   UNL     1       1.093   8.646  20.731  0.00  0.00    +0.000 A 
ATOM     12  C   UNL     1       0.454   9.091  21.902  0.00  0.00    +0.000 A 
ATOM     13  H   UNL     1       3.766   7.566  17.962  0.00  0.00    +0.000 HD
ENDBRANCH   1   9
BRANCH   1  14
ATOM     14  C   UNL     1       4.637   5.327  17.794  0.00  0.00    +0.000 A 
ATOM     15  C   UNL     1       5.748   5.028  18.590  0.00  0.00    +0.000 A 
ATOM     16  C   UNL     1       6.979   4.736  17.998  0.00  0.00    +0.000 A 
ATOM     17  C   UNL     1       7.068   4.757  16.617  0.00  0.00    +0.000 A 
ATOM     18  N   UNL     1       6.030   5.047  15.810  0.00  0.00    +0.000 NA
ATOM     19  C   UNL     1       4.847   5.316  16.412  0.00  0.00    +0.000 A 
ENDBRANCH   1  14
BRANCH   1  20
ATOM     20  C   UNL     1       2.165   4.675  17.830  0.00  0.00    +0.000 C 
BRANCH  20  21
ATOM     21  C   UNL     1       1.736   3.414  18.630  0.00  0.00    +0.000 C 
ATOM     22  C   UNL     1       2.848   2.383  18.920  0.00  0.00    +0.000 C 
ATOM     23  C   UNL     1       3.521   2.420  20.291  0.00  0.00    +0.000 C 
ATOM     24  C   UNL     1       2.559   2.711  21.427  0.00  0.00    +0.000 C 
ATOM     25  C   UNL     1       1.806   3.997  21.139  0.00  0.00    +0.000 C 
ATOM     26  C   UNL     1       0.947   3.820  19.895  0.00  0.00    +0.000 C 
ENDBRANCH  20  21
ENDBRANCH   1  20
TORSDOF 4
ENDMDL
MODEL 3
REMARK VINA RESULT:      -8.8      1.516      6.658
REMARK  Name = 
REMARK  5 active torsions:
REMARK  status: ('A' for Active; 'I' for Inactive)
REMARK    1  A    between atoms: C_1  and  C_2
REMARK    2  A    between atoms: N_8  and  C_9
REMARK    3  A    between atoms: C_9  and  C_10
REMARK    4  A    between atoms: C_9  and  C_17
REMARK    5  A    between atoms: C_10  and  C_11
REMARK                            x       y       z     vdW  Elec       q    Type
REMARK                         _______ _______ _______ _____ _____    ______ ____
ROOT
ATOM      1  C   UNL     1       2.152   6.115  19.962  0.00  0.00    +0.000 C 
ENDROOT
BRANCH   1   9
ATOM      2  C   UNL     1       6.906   4.544  13.489  0.00  0.00    +0.000 C 
ATOM      3  C   UNL     1       6.526   4.702  14.936  0.00  0.00    +0.000 A 
ATOM      4  C   UNL     1       7.468   4.381  15.931  0.00  0.00    +0.000 A 
ATOM      5  C   UNL     1       7.207   4.604  17.284  0.00  0.00    +0.000 A 
ATOM      6  C   UNL     1       5.964   5.145  17.575  0.00  0.00    +0.000 A 
ATOM      7  O   UNL     1       5.505   5.504  18.799  0.00  0.00    +0.000 OA
ATOM      8  C   UNL     1       4.215   5.898  18.583  0.00  0.00    +0.000 A 
ATOM      9  N   UNL     1       3.583   6.203  19.724  0.00  0.00    +0.000 N 
ATOM     10  N   UNL     1       3.838   5.863  17.322  0.00  0.00    +0.000 NA
ATOM     11  C   UNL     1       4.968   5.424  16.654  0.00  0.00    +0.000 A 
ATOM     12  C   UNL     1       5.258   5.223  15.292  0.00  0.00    +0.000 A 
ATOM     13  H   UNL     1       4.022   6.978  20.213  0.00  0.00    +0.000 HD
ENDBRANCH   1   9
BRANCH   1  14
ATOM     14  C   UNL     1       1.594   7.519  20.180  0.00  0.00    +0.000 A 
ATOM     15  C   UNL     1       0.993   7.879  21.391  0.00  0.00    +0.000 A 
ATOM     16  C   UNL     1       0.528   9.180  21.586  0.00  0.00    +0.000 A 
ATOM     17  C   UNL     1       0.672  10.093  20.556  0.00  0.00    +0.000 A 
ATOM     18  N   UNL     1       1.235   9.794  19.371  0.00  0.00    +0.000 NA
ATOM     19  C   UNL     1       1.686   8.526  19.214  0.00  0.00    +0.000 A 
ENDBRANCH   1  14
BRANCH   1  20
ATOM     20  C   UNL     1       1.726   5.137  21.099  0.00  0.00    +0.000 C 
BRANCH  20  21
ATOM     21  C   UNL     1       1.424   3.655  20.745  0.00  0.00    +0.000 C 
ATOM     22  C   UNL     1       0.897   3.392  19.318  0.00  0.00    +0.000 C 
ATOM     23  C   UNL     1       1.896   2.928  18.259  0.00  0.00    +0.000 C 
ATOM     24  C   UNL     1       2.924   1.946  18.789  0.00  0.00    +0.000 C 
ATOM     25  C   UNL     1       3.625   2.547  19.994  0.00  0.00    +0.000 C 
ATOM     26  C   UNL     1       2.623   2.755  21.119  0.00  0.00    +0.000 C 
ENDBRANCH  20  21
ENDBRANCH   1  20
TORSDOF 4
ENDMDL
MODEL 4
REMARK VINA RESULT:      -8.2      1.347      1.614
REMARK  Name = 
REMARK  5 active torsions:
REMARK  status: ('A' for Active; 'I' for Inactive)
REMARK    1  A    between atoms: C_1  and  C_2
REMARK    2  A    between atoms: N_8  and  C_9
REMARK    3  A    between atoms: C_9  and  C_10
REMARK    4  A    between atoms: C_9  and  C_17
REMARK    5  A    between atoms: C_10  and  C_11
REMARK                            x       y       z     vdW  Elec       q    Type
REMARK                         _______ _______ _______ _____ _____    ______ ____
ROOT
ATOM      1  C   UNL     1       3.327   6.292  18.236  0.00  0.00    +0.000 C 
ENDROOT
BRANCH   1   9
ATOM      2  C   UNL     1      -1.398  11.772  22.059  0.00  0.00    +0.000 C 
ATOM      3  C   UNL     1      -0.772  11.029  20.911  0.00  0.00    +0.000 A 
ATOM      4  C   UNL     1      -1.181  11.326  19.598  0.00  0.00    +0.000 A 
ATOM      5  C   UNL     1      -0.565  10.741  18.490  0.00  0.00    +0.000 A 
ATOM      6  C   UNL     1       0.457   9.849  18.772  0.00  0.00    +0.000 A 
ATOM      7  O   UNL     1       1.239   9.205  17.872  0.00  0.00    +0.000 OA
ATOM      8  C   UNL     1       2.029   8.383  18.625  0.00  0.00    +0.000 A 
ATOM      9  N   UNL     1       2.809   7.600  17.869  0.00  0.00    +0.000 N 
ATOM     10  N   UNL     1       1.844   8.489  19.925  0.00  0.00    +0.000 NA
ATOM     11  C   UNL     1       0.867   9.463  20.038  0.00  0.00    +0.000 A 
ATOM     12  C   UNL     1       0.257  10.084  21.143  0.00  0.00    +0.000 A 
ATOM     13  H   UNL     1       3.453   8.136  17.294  0.00  0.00    +0.000 HD
ENDBRANCH   1   9
BRANCH   1  14
ATOM     14  C   UNL     1       4.711   6.111  17.618  0.00  0.00    +0.000 A 
ATOM     15  C   UNL     1       5.799   5.692  18.391  0.00  0.00    +0.000 A 
ATOM     16  C   UNL     1       7.047   5.490  17.797  0.00  0.00    +0.000 A 
ATOM     17  C   UNL     1       7.176   5.721  16.439  0.00  0.00    +0.000 A 
ATOM     18  N   UNL     1       6.161   6.132  15.655  0.00  0.00    +0.000 NA
ATOM     19  C   UNL     1       4.961   6.309  16.257  0.00  0.00    +0.000 A 
ENDBRANCH   1  14
BRANCH   1  20
ATOM     20  C   UNL     1       2.385   5.092  17.917  0.00  0.00    +0.000 C 
BRANCH  20  21
ATOM     21  C   UNL     1       2.622   3.736  18.638  0.00  0.00    +0.000 C 
ATOM     22  C   UNL     1       3.291   3.814  20.027  0.00  0.00    +0.000 C 
ATOM     23  C   UNL     1       2.392   3.752  21.261  0.00  0.00    +0.000 C 
ATOM     24  C   UNL     1       1.243   2.772  21.121  0.00  0.00    +0.000 C 
ATOM     25  C   UNL     1       0.450   3.095  19.867  0.00  0.00    +0.000 C 
ATOM     26  C   UNL     1       1.327   2.893  18.640  0.00  0.00    +0.000 C 
ENDBRANCH  20  21
ENDBRANCH   1  20
TORSDOF 4
ENDMDL
MODEL 5
REMARK VINA RESULT:      -8.2      1.053      1.608
REMARK  Name = 
REMARK  5 active torsions:
REMARK  status: ('A' for Active; 'I' for Inactive)
REMARK    1  A    between atoms: C_1  and  C_2
REMARK    2  A    between atoms: N_8  and  C_9
REMARK    3  A    between atoms: C_9  and  C_10
REMARK    4  A    between atoms: C_9  and  C_17
REMARK    5  A    between atoms: C_10  and  C_11
REMARK                            x       y       z     vdW  Elec       q    Type
REMARK                         _______ _______ _______ _____ _____    ______ ____
ROOT
ATOM      1  C   UNL     1       3.224   5.940  18.119  0.00  0.00    +0.000 C 
ENDROOT
BRANCH   1   9
ATOM      2  C   UNL     1      -1.025  11.024  22.921  0.00  0.00    +0.000 C 
ATOM      3  C   UNL     1      -0.443  10.462  21.653  0.00  0.00    +0.000 A 
ATOM      4  C   UNL     1      -0.776  11.059  20.423  0.00  0.00    +0.000 A 
ATOM      5  C   UNL     1      -0.188  10.645  19.226  0.00  0.00    +0.000 A 
ATOM      6  C   UNL     1       0.726   9.608  19.333  0.00  0.00    +0.000 A 
ATOM      7  O   UNL     1       1.466   9.076  18.330  0.00  0.00    +0.000 OA
ATOM      8  C   UNL     1       2.140   8.039  18.909  0.00  0.00    +0.000 A 
ATOM      9  N   UNL     1       2.859   7.343  18.019  0.00  0.00    +0.000 N 
ATOM     10  N   UNL     1       1.925   7.902  20.201  0.00  0.00    +0.000 NA
ATOM     11  C   UNL     1       1.051   8.934  20.499  0.00  0.00    +0.000 A 
ATOM     12  C   UNL     1       0.474   9.383  21.700  0.00  0.00    +0.000 A 
ATOM     13  H   UNL     1       3.573   7.910  17.571  0.00  0.00    +0.000 HD
ENDBRANCH   1   9
BRANCH   1  14
ATOM     14  C   UNL     1       4.503   5.699  17.320  0.00  0.00    +0.000 A 
ATOM     15  C   UNL     1       5.633   6.503  17.504  0.00  0.00    +0.000 A 
ATOM     16  C   UNL     1       6.806   6.239  16.794  0.00  0.00    +0.000 A 
ATOM     17  C   UNL     1       6.817   5.174  15.910  0.00  0.00    +0.000 A 
ATOM     18  N   UNL     1       5.754   4.378  15.693  0.00  0.00    +0.000 NA
ATOM     19  C   UNL     1       4.633   4.652  16.403  0.00  0.00    +0.000 A 
ENDBRANCH   1  14
BRANCH   1  20
ATOM     20  C   UNL     1       2.100   4.931  17.736  0.00  0.00    +0.000 C 
BRANCH  20  21
ATOM     21  C   UNL     1       1.887   3.669  18.616  0.00  0.00    +0.000 C 
ATOM     22  C   UNL     1       2.147   2.311  17.930  0.00  0.00    +0.000 C 
ATOM     23  C   UNL     1       3.500   1.639  18.158  0.00  0.00    +0.000 C 
ATOM     24  C   UNL     1       4.013   1.786  19.578  0.00  0.00    +0.000 C 
ATOM     25  C   UNL     1       4.047   3.255  19.957  0.00  0.00    +0.000 C 
ATOM     26  C   UNL     1       2.633   3.817  19.961  0.00  0.00    +0.000 C 
ENDBRANCH  20  21
ENDBRANCH   1  20
TORSDOF 4
ENDMDL
MODEL 6
REMARK VINA RESULT:      -8.2      1.306      1.592
REMARK  Name = 
REMARK  5 active torsions:
REMARK  status: ('A' for Active; 'I' for Inactive)
REMARK    1  A    between atoms: C_1  and  C_2
REMARK    2  A    between atoms: N_8  and  C_9
REMARK    3  A    between atoms: C_9  and  C_10
REMARK    4  A    between atoms: C_9  and  C_17
REMARK    5  A    between atoms: C_10  and  C_11
REMARK                            x       y       z     vdW  Elec       q    Type
REMARK                         _______ _______ _______ _____ _____    ______ ____
ROOT
ATOM      1  C   UNL     1       3.494   5.891  18.209  0.00  0.00    +0.000 C 
ENDROOT
BRANCH   1   9
ATOM      2  C   UNL     1      -1.155  11.497  21.942  0.00  0.00    +0.000 C 
ATOM      3  C   UNL     1      -0.560  10.709  20.807  0.00  0.00    +0.000 A 
ATOM      4  C   UNL     1      -1.012  10.947  19.496  0.00  0.00    +0.000 A 
ATOM      5  C   UNL     1      -0.425  10.320  18.395  0.00  0.00    +0.000 A 
ATOM      6  C   UNL     1       0.613   9.448  18.683  0.00  0.00    +0.000 A 
ATOM      7  O   UNL     1       1.372   8.771  17.787  0.00  0.00    +0.000 OA
ATOM      8  C   UNL     1       2.191   7.988  18.549  0.00  0.00    +0.000 A 
ATOM      9  N   UNL     1       2.954   7.179  17.803  0.00  0.00    +0.000 N 
ATOM     10  N   UNL     1       2.046   8.148  19.848  0.00  0.00    +0.000 NA
ATOM     11  C   UNL     1       1.064   9.119  19.950  0.00  0.00    +0.000 A 
ATOM     12  C   UNL     1       0.484   9.782  21.047  0.00  0.00    +0.000 A 
ATOM     13  H   UNL     1       3.575   7.694  17.185  0.00  0.00    +0.000 HD
ENDBRANCH   1   9
BRANCH   1  14
ATOM     14  C   UNL     1       5.019   5.962  18.195  0.00  0.00    +0.000 A 
ATOM     15  C   UNL     1       5.778   5.409  19.232  0.00  0.00    +0.000 A 
ATOM     16  C   UNL     1       7.173   5.446  19.179  0.00  0.00    +0.000 A 
ATOM     17  C   UNL     1       7.776   6.044  18.086  0.00  0.00    +0.000 A 
ATOM     18  N   UNL     1       7.089   6.596  17.068  0.00  0.00    +0.000 NA
ATOM     19  C   UNL     1       5.737   6.536  17.143  0.00  0.00    +0.000 A 
ENDBRANCH   1  14
BRANCH   1  20
ATOM     20  C   UNL     1       2.961   4.665  17.408  0.00  0.00    +0.000 C 
BRANCH  20  21
ATOM     21  C   UNL     1       2.378   3.453  18.185  0.00  0.00    +0.000 C 
ATOM     22  C   UNL     1       3.400   2.574  18.938  0.00  0.00    +0.000 C 
ATOM     23  C   UNL     1       3.589   2.815  20.435  0.00  0.00    +0.000 C 
ATOM     24  C   UNL     1       2.293   3.117  21.164  0.00  0.00    +0.000 C 
ATOM     25  C   UNL     1       1.592   4.285  20.494  0.00  0.00    +0.000 C 
ATOM     26  C   UNL     1       1.197   3.899  19.076  0.00  0.00    +0.000 C 
ENDBRANCH  20  21
ENDBRANCH   1  20
TORSDOF 4
ENDMDL
MODEL 7
REMARK VINA RESULT:      -8.1      1.909      4.110
REMARK  Name = 
REMARK  5 active torsions:
REMARK  status: ('A' for Active; 'I' for Inactive)
REMARK    1  A    between atoms: C_1  and  C_2
REMARK    2  A    between atoms: N_8  and  C_9
REMARK    3  A    between atoms: C_9  and  C_10
REMARK    4  A    between atoms: C_9  and  C_17
REMARK    5  A    between atoms: C_10  and  C_11
REMARK                            x       y       z     vdW  Elec       q    Type
REMARK                         _______ _______ _______ _____ _____    ______ ____
ROOT
ATOM      1  C   UNL     1       3.966   5.590  18.835  0.00  0.00    +0.000 C 
ENDROOT
BRANCH   1   9
ATOM      2  C   UNL     1      -0.686  12.317  18.550  0.00  0.00    +0.000 C 
ATOM      3  C   UNL     1       0.091  11.182  19.160  0.00  0.00    +0.000 A 
ATOM      4  C   UNL     1       0.222  11.115  20.559  0.00  0.00    +0.000 A 
ATOM      5  C   UNL     1       0.843  10.032  21.185  0.00  0.00    +0.000 A 
ATOM      6  C   UNL     1       1.327   9.046  20.339  0.00  0.00    +0.000 A 
ATOM      7  O   UNL     1       1.911   7.880  20.708  0.00  0.00    +0.000 OA
ATOM      8  C   UNL     1       2.289   7.296  19.532  0.00  0.00    +0.000 A 
ATOM      9  N   UNL     1       2.972   6.160  19.729  0.00  0.00    +0.000 N 
ATOM     10  N   UNL     1       1.951   7.971  18.453  0.00  0.00    +0.000 NA
ATOM     11  C   UNL     1       1.290   9.079  18.955  0.00  0.00    +0.000 A 
ATOM     12  C   UNL     1       0.634  10.162  18.341  0.00  0.00    +0.000 A 
ATOM     13  H   UNL     1       2.420   5.457  20.212  0.00  0.00    +0.000 HD
ENDBRANCH   1   9
BRANCH   1  14
ATOM     14  C   UNL     1       3.705   4.092  18.688  0.00  0.00    +0.000 A 
ATOM     15  C   UNL     1       2.872   3.599  17.678  0.00  0.00    +0.000 A 
ATOM     16  C   UNL     1       2.680   2.224  17.534  0.00  0.00    +0.000 A 
ATOM     17  C   UNL     1       3.326   1.372  18.413  0.00  0.00    +0.000 A 
ATOM     18  N   UNL     1       4.130   1.799  19.405  0.00  0.00    +0.000 NA
ATOM     19  C   UNL     1       4.305   3.138  19.514  0.00  0.00    +0.000 A 
ENDBRANCH   1  14
BRANCH   1  20
ATOM     20  C   UNL     1       5.448   5.887  19.213  0.00  0.00    +0.000 C 
BRANCH  20  21
ATOM     21  C   UNL     1       6.499   6.043  18.080  0.00  0.00    +0.000 C 
ATOM     22  C   UNL     1       7.107   4.733  17.534  0.00  0.00    +0.000 C 
ATOM     23  C   UNL     1       6.526   4.154  16.245  0.00  0.00    +0.000 C 
ATOM     24  C   UNL     1       6.170   5.212  15.217  0.00  0.00    +0.000 C 
ATOM     25  C   UNL     1       5.238   6.235  15.841  0.00  0.00    +0.000 C 
ATOM     26  C   UNL     1       5.958   6.965  16.965  0.00  0.00    +0.000 C 
ENDBRANCH  20  21
ENDBRANCH   1  20
TORSDOF 4
ENDMDL
MODEL 8
REMARK VINA RESULT:      -8.0      2.514      4.536
REMARK  Name = 
REMARK  5 active torsions:
REMARK  status: ('A' for Active; 'I' for Inactive)
REMARK    1  A    between atoms: C_1  and  C_2
REMARK    2  A    between atoms: N_8  and  C_9
REMARK    3  A    between atoms: C_9  and  C_10
REMARK    4  A    between atoms: C_9  and  C_17
REMARK    5  A    between atoms: C_10  and  C_11
REMARK                            x       y       z     vdW  Elec       q    Type
REMARK                         _______ _______ _______ _____ _____    ______ ____
ROOT
ATOM      1  C   UNL     1       4.714   6.208  16.609  0.00  0.00    +0.000 C 
ENDROOT
BRANCH   1   9
ATOM      2  C   UNL     1      -0.435   9.098  22.274  0.00  0.00    +0.000 C 
ATOM      3  C   UNL     1       0.245   8.978  20.938  0.00  0.00    +0.000 A 
ATOM      4  C   UNL     1      -0.194   9.784  19.871  0.00  0.00    +0.000 A 
ATOM      5  C   UNL     1       0.464   9.788  18.639  0.00  0.00    +0.000 A 
ATOM      6  C   UNL     1       1.559   8.944  18.540  0.00  0.00    +0.000 A 
ATOM      7  O   UNL     1       2.388   8.818  17.475  0.00  0.00    +0.000 OA
ATOM      8  C   UNL     1       3.247   7.815  17.823  0.00  0.00    +0.000 A 
ATOM      9  N   UNL     1       4.087   7.501  16.828  0.00  0.00    +0.000 N 
ATOM     10  N   UNL     1       3.060   7.331  19.034  0.00  0.00    +0.000 NA
ATOM     11  C   UNL     1       2.005   8.080  19.526  0.00  0.00    +0.000 A 
ATOM     12  C   UNL     1       1.351   8.109  20.771  0.00  0.00    +0.000 A 
ATOM     13  H   UNL     1       4.681   8.282  16.563  0.00  0.00    +0.000 HD
ENDBRANCH   1   9
BRANCH   1  14
ATOM     14  C   UNL     1       5.842   6.022  17.621  0.00  0.00    +0.000 A 
ATOM     15  C   UNL     1       6.994   6.816  17.574  0.00  0.00    +0.000 A 
ATOM     16  C   UNL     1       7.995   6.660  18.535  0.00  0.00    +0.000 A 
ATOM     17  C   UNL     1       7.820   5.704  19.520  0.00  0.00    +0.000 A 
ATOM     18  N   UNL     1       6.735   4.912  19.603  0.00  0.00    +0.000 NA
ATOM     19  C   UNL     1       5.776   5.093  18.663  0.00  0.00    +0.000 A 
ENDBRANCH   1  14
BRANCH   1  20
ATOM     20  C   UNL     1       5.193   5.941  15.150  0.00  0.00    +0.000 C 
BRANCH  20  21
ATOM     21  C   UNL     1       5.969   4.631  14.840  0.00  0.00    +0.000 C 
ATOM     22  C   UNL     1       5.236   3.601  13.954  0.00  0.00    +0.000 C 
ATOM     23  C   UNL     1       5.568   3.570  12.464  0.00  0.00    +0.000 C 
ATOM     24  C   UNL     1       7.041   3.784  12.170  0.00  0.00    +0.000 C 
ATOM     25  C   UNL     1       7.507   5.073  12.820  0.00  0.00    +0.000 C 
ATOM     26  C   UNL     1       7.393   4.955  14.333  0.00  0.00    +0.000 C 
ENDBRANCH  20  21
ENDBRANCH   1  20
TORSDOF 4
ENDMDL
MODEL 9
REMARK VINA RESULT:      -8.0      2.050      4.510
REMARK  Name = 
REMARK  5 active torsions:
REMARK  status: ('A' for Active; 'I' for Inactive)
REMARK    1  A    between atoms: C_1  and  C_2
REMARK    2  A    between atoms: N_8  and  C_9
REMARK    3  A    between atoms: C_9  and  C_10
REMARK    4  A    between atoms: C_9  and  C_17
REMARK    5  A    between atoms: C_10  and  C_11
REMARK                            x       y       z     vdW  Elec       q    Type
REMARK                         _______ _______ _______ _____ _____    ______ ____
ROOT
ATOM      1  C   UNL     1       3.168   5.948  17.743  0.00  0.00    +0.000 C 
ENDROOT
BRANCH   1   9
ATOM      2  C   UNL     1       1.811  13.991  18.398  0.00  0.00    +0.000 C 
ATOM      3  C   UNL     1       1.738  12.530  18.750  0.00  0.00    +0.000 A 
ATOM      4  C   UNL     1       1.084  12.142  19.934  0.00  0.00    +0.000 A 
ATOM      5  C   UNL     1       0.898  10.797  20.260  0.00  0.00    +0.000 A 
ATOM      6  C   UNL     1       1.408   9.883  19.351  0.00  0.00    +0.000 A 
ATOM      7  O   UNL     1       1.300   8.534  19.416  0.00  0.00    +0.000 OA
ATOM      8  C   UNL     1       2.028   8.077  18.354  0.00  0.00    +0.000 A 
ATOM      9  N   UNL     1       2.098   6.740  18.327  0.00  0.00    +0.000 N 
ATOM     10  N   UNL     1       2.545   9.025  17.599  0.00  0.00    +0.000 NA
ATOM     11  C   UNL     1       2.116  10.194  18.202  0.00  0.00    +0.000 A 
ATOM     12  C   UNL     1       2.269  11.553  17.872  0.00  0.00    +0.000 A 
ATOM     13  H   UNL     1       1.183   6.307  18.230  0.00  0.00    +0.000 HD
ENDBRANCH   1   9
BRANCH   1  14
ATOM     14  C   UNL     1       2.824   4.466  17.881  0.00  0.00    +0.000 A 
ATOM     15  C   UNL     1       3.825   3.488  17.867  0.00  0.00    +0.000 A 
ATOM     16  C   UNL     1       3.494   2.142  18.037  0.00  0.00    +0.000 A 
ATOM     17  C   UNL     1       2.163   1.807  18.213  0.00  0.00    +0.000 A 
ATOM     18  N   UNL     1       1.165   2.711  18.226  0.00  0.00    +0.000 NA
ATOM     19  C   UNL     1       1.517   4.009  18.068  0.00  0.00    +0.000 A 
ENDBRANCH   1  14
BRANCH   1  20
ATOM     20  C   UNL     1       4.597   6.265  18.278  0.00  0.00    +0.000 C 
BRANCH  20  21
ATOM     21  C   UNL     1       5.727   6.590  17.263  0.00  0.00    +0.000 C 
ATOM     22  C   UNL     1       7.085   5.902  17.516  0.00  0.00    +0.000 C 
ATOM     23  C   UNL     1       7.408   4.637  16.722  0.00  0.00    +0.000 C 
ATOM     24  C   UNL     1       6.941   4.697  15.280  0.00  0.00    +0.000 C 
ATOM     25  C   UNL     1       5.459   5.020  15.238  0.00  0.00    +0.000 C 
ATOM     26  C   UNL     1       5.220   6.408  15.815  0.00  0.00    +0.000 C 
ENDBRANCH  20  21
ENDBRANCH   1  20
TORSDOF 4
ENDMDL
