MODEL 1
REMARK VINA RESULT:      -7.9      0.000      0.000
REMARK  Name = 
REMARK  9 active torsions:
REMARK  status: ('A' for Active; 'I' for Inactive)
REMARK    1  A    between atoms: O_1  and  C_2
REMARK    2  A    between atoms: C_5  and  C_6
REMARK    3  A    between atoms: C_6  and  N_7
REMARK    4  A    between atoms: N_7  and  C_8
REMARK    5  A    between atoms: C_8  and  C_9
REMARK    6  A    between atoms: C_9  and  C_10
REMARK    7  A    between atoms: C_10  and  N_11
REMARK    8  A    between atoms: N_11  and  C_12
REMARK    9  A    between atoms: C_12  and  C_13
REMARK                            x       y       z     vdW  Elec       q    Type
REMARK                         _______ _______ _______ _____ _____    ______ ____
ROOT
ATOM      1  N   UNL     1       0.028  10.494  19.853  0.00  0.00    +0.000 N 
ATOM      2  C   UNL     1       0.610  11.690  20.155  0.00  0.00    +0.000 A 
ATOM      3  N   UNL     1       1.402  12.363  19.349  0.00  0.00    +0.000 NA
ATOM      4  C   UNL     1       1.882  13.469  20.025  0.00  0.00    +0.000 A 
ATOM      5  N   UNL     1       2.902  14.271  19.435  0.00  0.00    +0.000 N 
ATOM      6  C   UNL     1       3.507  15.383  19.979  0.00  0.00    +0.000 A 
ATOM      7  C   UNL     1       4.444  15.782  19.060  0.00  0.00    +0.000 A 
ATOM      8  N   UNL     1       4.438  14.956  17.968  0.00  0.00    +0.000 NA
ATOM      9  C   UNL     1       3.506  14.062  18.221  0.00  0.00    +0.000 A 
ATOM     10  N   UNL     1       1.438  13.781  21.238  0.00  0.00    +0.000 NA
ATOM     11  S   UNL     1       0.399  12.550  21.659  0.00  0.00    +0.000 S 
ENDROOT
BRANCH   1  12
ATOM     12  C   UNL     1      -0.216  10.175  18.446  0.00  0.00    +0.000 C 
BRANCH  12  16
ATOM     13  C   UNL     1      -4.227  11.075  17.108  0.00  0.00    +0.000 A 
ATOM     14  C   UNL     1      -3.426  10.278  16.296  0.00  0.00    +0.000 A 
ATOM     15  C   UNL     1      -2.096  10.020  16.664  0.00  0.00    +0.000 A 
ATOM     16  C   UNL     1      -1.565  10.550  17.848  0.00  0.00    +0.000 A 
ATOM     17  C   UNL     1      -2.370  11.440  18.590  0.00  0.00    +0.000 A 
ATOM     18  C   UNL     1      -3.699  11.681  18.236  0.00  0.00    +0.000 A 
BRANCH  13  19
ATOM     19  O   UNL     1      -5.548  11.286  16.846  0.00  0.00    +0.000 OA
ATOM     20  H   UNL     1      -5.950  10.451  16.559  0.00  0.00    +0.000 HD
ENDBRANCH  13  19
ENDBRANCH  12  16
ENDBRANCH   1  12
BRANCH   1  21
ATOM     21  C   UNL     1      -0.235   9.492  20.901  0.00  0.00    +0.000 C 
BRANCH  21  22
ATOM     22  C   UNL     1       1.035   8.753  21.362  0.00  0.00    +0.000 C 
BRANCH  22  23
ATOM     23  C   UNL     1       1.057   7.256  20.981  0.00  0.00    +0.000 C 
BRANCH  23  24
ATOM     24  N   UNL     1       2.282   6.908  20.258  0.00  0.00    +0.000 NA
ATOM     25  H   UNL     1       3.096   7.250  20.768  0.00  0.00    +0.000 HD
BRANCH  24  26
ATOM     26  C   UNL     1       2.452   5.461  20.077  0.00  0.00    +0.000 C 
BRANCH  26  27
ATOM     27  C   UNL     1       3.577   5.180  19.097  0.00  0.00    +0.000 A 
ATOM     28  C   UNL     1       3.270   4.893  17.750  0.00  0.00    +0.000 A 
ATOM     29  C   UNL     1       4.277   4.622  16.809  0.00  0.00    +0.000 A 
ATOM     30  C   UNL     1       5.580   4.635  17.251  0.00  0.00    +0.000 A 
ATOM     31  C   UNL     1       5.897   4.907  18.561  0.00  0.00    +0.000 A 
ATOM     32  C   UNL     1       4.923   5.185  19.506  0.00  0.00    +0.000 A 
ATOM     33  O   UNL     1       7.242   4.860  18.782  0.00  0.00    +0.000 OA
ATOM     34  C   UNL     1       7.721   4.482  17.472  0.00  0.00    +0.000 C 
ATOM     35  O   UNL     1       6.677   4.394  16.483  0.00  0.00    +0.000 OA
ENDBRANCH  26  27
ENDBRANCH  24  26
ENDBRANCH  23  24
ENDBRANCH  22  23
ENDBRANCH  21  22
ENDBRANCH   1  21
TORSDOF 9
ENDMDL
MODEL 2
REMARK VINA RESULT:      -7.8      3.928      6.333
REMARK  Name = 
REMARK  9 active torsions:
REMARK  status: ('A' for Active; 'I' for Inactive)
REMARK    1  A    between atoms: O_1  and  C_2
REMARK    2  A    between atoms: C_5  and  C_6
REMARK    3  A    between atoms: C_6  and  N_7
REMARK    4  A    between atoms: N_7  and  C_8
REMARK    5  A    between atoms: C_8  and  C_9
REMARK    6  A    between atoms: C_9  and  C_10
REMARK    7  A    between atoms: C_10  and  N_11
REMARK    8  A    between atoms: N_11  and  C_12
REMARK    9  A    between atoms: C_12  and  C_13
REMARK                            x       y       z     vdW  Elec       q    Type
REMARK                         _______ _______ _______ _____ _____    ______ ____
ROOT
ATOM      1  N   UNL     1      -0.828  10.519  18.128  0.00  0.00    +0.000 N 
ATOM      2  C   UNL     1      -2.079  10.867  17.712  0.00  0.00    +0.000 A 
ATOM      3  N   UNL     1      -2.994  11.425  18.476  0.00  0.00    +0.000 NA
ATOM      4  C   UNL     1      -4.164  11.541  17.748  0.00  0.00    +0.000 A 
ATOM      5  N   UNL     1      -5.364  11.952  18.398  0.00  0.00    +0.000 N 
ATOM      6  C   UNL     1      -6.613  12.092  17.834  0.00  0.00    +0.000 A 
ATOM      7  C   UNL     1      -7.443  12.467  18.858  0.00  0.00    +0.000 A 
ATOM      8  N   UNL     1      -6.751  12.565  20.036  0.00  0.00    +0.000 NA
ATOM      9  C   UNL     1      -5.510  12.251  19.730  0.00  0.00    +0.000 A 
ATOM     10  N   UNL     1      -4.203  11.236  16.455  0.00  0.00    +0.000 NA
ATOM     11  S   UNL     1      -2.688  10.649  16.092  0.00  0.00    +0.000 S 
ENDROOT
BRANCH   1  12
ATOM     12  C   UNL     1      -0.239  11.248  19.252  0.00  0.00    +0.000 C 
BRANCH  12  16
ATOM     13  C   UNL     1       0.068   9.651  23.257  0.00  0.00    +0.000 A 
ATOM     14  C   UNL     1       0.793   9.031  22.245  0.00  0.00    +0.000 A 
ATOM     15  C   UNL     1       0.666   9.479  20.920  0.00  0.00    +0.000 A 
ATOM     16  C   UNL     1      -0.179  10.553  20.605  0.00  0.00    +0.000 A 
ATOM     17  C   UNL     1      -0.980  11.085  21.637  0.00  0.00    +0.000 A 
ATOM     18  C   UNL     1      -0.840  10.655  22.958  0.00  0.00    +0.000 A 
BRANCH  13  19
ATOM     19  O   UNL     1       0.217   9.317  24.571  0.00  0.00    +0.000 OA
ATOM     20  H   UNL     1       0.622   8.436  24.627  0.00  0.00    +0.000 HD
ENDBRANCH  13  19
ENDBRANCH  12  16
ENDBRANCH   1  12
BRANCH   1  21
ATOM     21  C   UNL     1      -0.132   9.356  17.548  0.00  0.00    +0.000 C 
BRANCH  21  22
ATOM     22  C   UNL     1       1.401   9.448  17.667  0.00  0.00    +0.000 C 
BRANCH  22  23
ATOM     23  C   UNL     1       2.088   8.088  17.923  0.00  0.00    +0.000 C 
BRANCH  23  24
ATOM     24  N   UNL     1       3.447   8.068  17.380  0.00  0.00    +0.000 NA
ATOM     25  H   UNL     1       3.965   8.885  17.705  0.00  0.00    +0.000 HD
BRANCH  24  26
ATOM     26  C   UNL     1       4.209   6.877  17.780  0.00  0.00    +0.000 C 
BRANCH  26  27
ATOM     27  C   UNL     1       3.295   5.864  18.444  0.00  0.00    +0.000 A 
ATOM     28  C   UNL     1       3.013   5.980  19.822  0.00  0.00    +0.000 A 
ATOM     29  C   UNL     1       2.178   5.063  20.480  0.00  0.00    +0.000 A 
ATOM     30  C   UNL     1       1.649   4.034  19.734  0.00  0.00    +0.000 A 
ATOM     31  C   UNL     1       1.918   3.903  18.391  0.00  0.00    +0.000 A 
ATOM     32  C   UNL     1       2.732   4.798  17.718  0.00  0.00    +0.000 A 
ATOM     33  O   UNL     1       1.299   2.815  17.850  0.00  0.00    +0.000 OA
ATOM     34  C   UNL     1       0.655   2.258  19.019  0.00  0.00    +0.000 C 
ATOM     35  O   UNL     1       0.826   3.059  20.204  0.00  0.00    +0.000 OA
ENDBRANCH  26  27
ENDBRANCH  24  26
ENDBRANCH  23  24
ENDBRANCH  22  23
ENDBRANCH  21  22
ENDBRANCH   1  21
TORSDOF 9
ENDMDL
MODEL 3
REMARK VINA RESULT:      -7.7      3.596      6.096
REMARK  Name = 
REMARK  9 active torsions:
REMARK  status: ('A' for Active; 'I' for Inactive)
REMARK    1  A    between atoms: O_1  and  C_2
REMARK    2  A    between atoms: C_5  and  C_6
REMARK    3  A    between atoms: C_6  and  N_7
REMARK    4  A    between atoms: N_7  and  C_8
REMARK    5  A    between atoms: C_8  and  C_9
REMARK    6  A    between atoms: C_9  and  C_10
REMARK    7  A    between atoms: C_10  and  N_11
REMARK    8  A    between atoms: N_11  and  C_12
REMARK    9  A    between atoms: C_12  and  C_13
REMARK                            x       y       z     vdW  Elec       q    Type
REMARK                         _______ _______ _______ _____ _____    ______ ____
ROOT
ATOM      1  N   UNL     1      -0.829  10.893  18.156  0.00  0.00    +0.000 N 
ATOM      2  C   UNL     1      -2.096  11.127  17.708  0.00  0.00    +0.000 A 
ATOM      3  N   UNL     1      -3.033  11.745  18.394  0.00  0.00    +0.000 NA
ATOM      4  C   UNL     1      -4.208  11.708  17.668  0.00  0.00    +0.000 A 
ATOM      5  N   UNL     1      -5.423  12.153  18.265  0.00  0.00    +0.000 N 
ATOM      6  C   UNL     1      -6.679  12.160  17.698  0.00  0.00    +0.000 A 
ATOM      7  C   UNL     1      -7.522  12.637  18.668  0.00  0.00    +0.000 A 
ATOM      8  N   UNL     1      -6.832  12.926  19.815  0.00  0.00    +0.000 NA
ATOM      9  C   UNL     1      -5.579  12.627  19.544  0.00  0.00    +0.000 A 
ATOM     10  N   UNL     1      -4.238  11.227  16.430  0.00  0.00    +0.000 NA
ATOM     11  S   UNL     1      -2.699  10.661  16.138  0.00  0.00    +0.000 S 
ENDROOT
BRANCH   1  12
ATOM     12  C   UNL     1      -0.271  11.796  19.164  0.00  0.00    +0.000 C 
BRANCH  12  16
ATOM     13  C   UNL     1      -0.123  10.018  23.102  0.00  0.00    +0.000 A 
ATOM     14  C   UNL     1      -1.147  10.918  22.825  0.00  0.00    +0.000 A 
ATOM     15  C   UNL     1      -1.189  11.567  21.580  0.00  0.00    +0.000 A 
ATOM     16  C   UNL     1      -0.213  11.312  20.607  0.00  0.00    +0.000 A 
ATOM     17  C   UNL     1       0.869  10.479  20.962  0.00  0.00    +0.000 A 
ATOM     18  C   UNL     1       0.901   9.817  22.190  0.00  0.00    +0.000 A 
BRANCH  13  19
ATOM     19  O   UNL     1      -0.081   9.295  24.257  0.00  0.00    +0.000 OA
ATOM     20  H   UNL     1       0.818   9.335  24.620  0.00  0.00    +0.000 HD
ENDBRANCH  13  19
ENDBRANCH  12  16
ENDBRANCH   1  12
BRANCH   1  21
ATOM     21  C   UNL     1      -0.085   9.693  17.737  0.00  0.00    +0.000 C 
BRANCH  21  22
ATOM     22  C   UNL     1       1.440   9.907  17.707  0.00  0.00    +0.000 C 
BRANCH  22  23
ATOM     23  C   UNL     1       2.252   8.663  18.131  0.00  0.00    +0.000 C 
BRANCH  23  24
ATOM     24  N   UNL     1       1.526   7.864  19.119  0.00  0.00    +0.000 NA
ATOM     25  H   UNL     1       0.953   7.164  18.649  0.00  0.00    +0.000 HD
BRANCH  24  26
ATOM     26  C   UNL     1       2.414   7.152  20.048  0.00  0.00    +0.000 C 
BRANCH  26  27
ATOM     27  C   UNL     1       2.380   5.660  19.772  0.00  0.00    +0.000 A 
ATOM     28  C   UNL     1       1.395   4.861  20.390  0.00  0.00    +0.000 A 
ATOM     29  C   UNL     1       1.329   3.476  20.169  0.00  0.00    +0.000 A 
ATOM     30  C   UNL     1       2.271   2.919  19.332  0.00  0.00    +0.000 A 
ATOM     31  C   UNL     1       3.241   3.682  18.727  0.00  0.00    +0.000 A 
ATOM     32  C   UNL     1       3.323   5.051  18.923  0.00  0.00    +0.000 A 
ATOM     33  O   UNL     1       4.071   2.930  17.948  0.00  0.00    +0.000 OA
ATOM     34  C   UNL     1       3.535   1.607  18.177  0.00  0.00    +0.000 C 
ATOM     35  O   UNL     1       2.358   1.601  19.008  0.00  0.00    +0.000 OA
ENDBRANCH  26  27
ENDBRANCH  24  26
ENDBRANCH  23  24
ENDBRANCH  22  23
ENDBRANCH  21  22
ENDBRANCH   1  21
TORSDOF 9
ENDMDL
MODEL 4
REMARK VINA RESULT:      -7.7      1.523      1.907
REMARK  Name = 
REMARK  9 active torsions:
REMARK  status: ('A' for Active; 'I' for Inactive)
REMARK    1  A    between atoms: O_1  and  C_2
REMARK    2  A    between atoms: C_5  and  C_6
REMARK    3  A    between atoms: C_6  and  N_7
REMARK    4  A    between atoms: N_7  and  C_8
REMARK    5  A    between atoms: C_8  and  C_9
REMARK    6  A    between atoms: C_9  and  C_10
REMARK    7  A    between atoms: C_10  and  N_11
REMARK    8  A    between atoms: N_11  and  C_12
REMARK    9  A    between atoms: C_12  and  C_13
REMARK                            x       y       z     vdW  Elec       q    Type
REMARK                         _______ _______ _______ _____ _____    ______ ____
ROOT
ATOM      1  N   UNL     1      -0.109  11.466  20.159  0.00  0.00    +0.000 N 
ATOM      2  C   UNL     1       0.624  12.608  20.297  0.00  0.00    +0.000 A 
ATOM      3  N   UNL     1       1.537  13.021  19.445  0.00  0.00    +0.000 NA
ATOM      4  C   UNL     1       2.140  14.153  19.959  0.00  0.00    +0.000 A 
ATOM      5  N   UNL     1       3.287  14.700  19.314  0.00  0.00    +0.000 N 
ATOM      6  C   UNL     1       4.020  15.798  19.705  0.00  0.00    +0.000 A 
ATOM      7  C   UNL     1       5.043  15.905  18.797  0.00  0.00    +0.000 A 
ATOM      8  N   UNL     1       4.966  14.912  17.858  0.00  0.00    +0.000 NA
ATOM      9  C   UNL     1       3.906  14.206  18.193  0.00  0.00    +0.000 A 
ATOM     10  N   UNL     1       1.694  14.725  21.073  0.00  0.00    +0.000 NA
ATOM     11  S   UNL     1       0.473  13.734  21.621  0.00  0.00    +0.000 S 
ENDROOT
BRANCH   1  12
ATOM     12  C   UNL     1      -0.336  10.944  18.810  0.00  0.00    +0.000 C 
BRANCH  12  16
ATOM     13  C   UNL     1      -4.434  11.186  17.456  0.00  0.00    +0.000 A 
ATOM     14  C   UNL     1      -3.514  10.521  16.651  0.00  0.00    +0.000 A 
ATOM     15  C   UNL     1      -2.161  10.481  17.025  0.00  0.00    +0.000 A 
ATOM     16  C   UNL     1      -1.725  11.096  18.206  0.00  0.00    +0.000 A 
ATOM     17  C   UNL     1      -2.664  11.853  18.939  0.00  0.00    +0.000 A 
ATOM     18  C   UNL     1      -4.013  11.877  18.581  0.00  0.00    +0.000 A 
BRANCH  13  19
ATOM     19  O   UNL     1      -5.771  11.184  17.189  0.00  0.00    +0.000 OA
ATOM     20  H   UNL     1      -5.909  11.471  16.272  0.00  0.00    +0.000 HD
ENDBRANCH  13  19
ENDBRANCH  12  16
ENDBRANCH   1  12
BRANCH   1  21
ATOM     21  C   UNL     1      -0.555  10.703  21.337  0.00  0.00    +0.000 C 
BRANCH  21  22
ATOM     22  C   UNL     1      -0.177   9.212  21.270  0.00  0.00    +0.000 C 
BRANCH  22  23
ATOM     23  C   UNL     1       1.134   8.868  22.012  0.00  0.00    +0.000 C 
BRANCH  23  24
ATOM     24  N   UNL     1       1.832   7.752  21.371  0.00  0.00    +0.000 NA
ATOM     25  H   UNL     1       1.361   6.874  21.592  0.00  0.00    +0.000 HD
BRANCH  24  26
ATOM     26  C   UNL     1       1.881   7.867  19.908  0.00  0.00    +0.000 C 
BRANCH  26  27
ATOM     27  C   UNL     1       2.444   6.597  19.297  0.00  0.00    +0.000 A 
ATOM     28  C   UNL     1       3.219   6.676  18.120  0.00  0.00    +0.000 A 
ATOM     29  C   UNL     1       3.755   5.527  17.517  0.00  0.00    +0.000 A 
ATOM     30  C   UNL     1       3.489   4.313  18.109  0.00  0.00    +0.000 A 
ATOM     31  C   UNL     1       2.731   4.218  19.252  0.00  0.00    +0.000 A 
ATOM     32  C   UNL     1       2.197   5.336  19.871  0.00  0.00    +0.000 A 
ATOM     33  O   UNL     1       2.586   2.925  19.664  0.00  0.00    +0.000 OA
ATOM     34  C   UNL     1       3.300   2.225  18.619  0.00  0.00    +0.000 C 
ATOM     35  O   UNL     1       3.923   3.104  17.663  0.00  0.00    +0.000 OA
ENDBRANCH  26  27
ENDBRANCH  24  26
ENDBRANCH  23  24
ENDBRANCH  22  23
ENDBRANCH  21  22
ENDBRANCH   1  21
TORSDOF 9
ENDMDL
MODEL 5
REMARK VINA RESULT:      -7.7      2.270      2.678
REMARK  Name = 
REMARK  9 active torsions:
REMARK  status: ('A' for Active; 'I' for Inactive)
REMARK    1  A    between atoms: O_1  and  C_2
REMARK    2  A    between atoms: C_5  and  C_6
REMARK    3  A    between atoms: C_6  and  N_7
REMARK    4  A    between atoms: N_7  and  C_8
REMARK    5  A    between atoms: C_8  and  C_9
REMARK    6  A    between atoms: C_9  and  C_10
REMARK    7  A    between atoms: C_10  and  N_11
REMARK    8  A    between atoms: N_11  and  C_12
REMARK    9  A    between atoms: C_12  and  C_13
REMARK                            x       y       z     vdW  Elec       q    Type
REMARK                         _______ _______ _______ _____ _____    ______ ____
ROOT
ATOM      1  N   UNL     1      -0.067  11.996  20.187  0.00  0.00    +0.000 N 
ATOM      2  C   UNL     1       0.612  13.140  19.886  0.00  0.00    +0.000 A 
ATOM      3  N   UNL     1       0.056  14.250  19.450  0.00  0.00    +0.000 NA
ATOM      4  C   UNL     1       1.056  15.158  19.156  0.00  0.00    +0.000 A 
ATOM      5  N   UNL     1       0.731  16.380  18.499  0.00  0.00    +0.000 N 
ATOM      6  C   UNL     1       1.601  17.375  18.111  0.00  0.00    +0.000 A 
ATOM      7  C   UNL     1       0.829  18.322  17.488  0.00  0.00    +0.000 A 
ATOM      8  N   UNL     1      -0.488  17.946  17.477  0.00  0.00    +0.000 NA
ATOM      9  C   UNL     1      -0.516  16.781  18.089  0.00  0.00    +0.000 A 
ATOM     10  N   UNL     1       2.327  14.897  19.440  0.00  0.00    +0.000 NA
ATOM     11  S   UNL     1       2.339  13.343  20.037  0.00  0.00    +0.000 S 
ENDROOT
BRANCH   1  12
ATOM     12  C   UNL     1      -1.471  12.106  20.589  0.00  0.00    +0.000 C 
BRANCH  12  16
ATOM     13  C   UNL     1      -4.708  11.726  17.750  0.00  0.00    +0.000 A 
ATOM     14  C   UNL     1      -3.421  11.410  17.326  0.00  0.00    +0.000 A 
ATOM     15  C   UNL     1      -2.336  11.586  18.199  0.00  0.00    +0.000 A 
ATOM     16  C   UNL     1      -2.534  12.069  19.500  0.00  0.00    +0.000 A 
ATOM     17  C   UNL     1      -3.834  12.482  19.858  0.00  0.00    +0.000 A 
ATOM     18  C   UNL     1      -4.918  12.289  18.999  0.00  0.00    +0.000 A 
BRANCH  13  19
ATOM     19  O   UNL     1      -5.807  11.494  16.977  0.00  0.00    +0.000 OA
ATOM     20  H   UNL     1      -6.602  11.580  17.528  0.00  0.00    +0.000 HD
ENDBRANCH  13  19
ENDBRANCH  12  16
ENDBRANCH   1  12
BRANCH   1  21
ATOM     21  C   UNL     1       0.550  10.673  19.992  0.00  0.00    +0.000 C 
BRANCH  21  22
ATOM     22  C   UNL     1       0.638  10.259  18.512  0.00  0.00    +0.000 C 
BRANCH  22  23
ATOM     23  C   UNL     1       2.030   9.734  18.093  0.00  0.00    +0.000 C 
BRANCH  23  24
ATOM     24  N   UNL     1       1.962   8.341  17.649  0.00  0.00    +0.000 NA
ATOM     25  H   UNL     1       2.434   8.238  16.751  0.00  0.00    +0.000 HD
BRANCH  24  26
ATOM     26  C   UNL     1       2.597   7.406  18.588  0.00  0.00    +0.000 C 
BRANCH  26  27
ATOM     27  C   UNL     1       3.461   6.410  17.838  0.00  0.00    +0.000 A 
ATOM     28  C   UNL     1       3.083   5.051  17.799  0.00  0.00    +0.000 A 
ATOM     29  C   UNL     1       3.855   4.093  17.122  0.00  0.00    +0.000 A 
ATOM     30  C   UNL     1       5.006   4.525  16.502  0.00  0.00    +0.000 A 
ATOM     31  C   UNL     1       5.393   5.844  16.535  0.00  0.00    +0.000 A 
ATOM     32  C   UNL     1       4.645   6.809  17.189  0.00  0.00    +0.000 A 
ATOM     33  O   UNL     1       6.563   6.051  15.865  0.00  0.00    +0.000 OA
ATOM     34  C   UNL     1       6.884   4.702  15.454  0.00  0.00    +0.000 C 
ATOM     35  O   UNL     1       5.871   3.740  15.806  0.00  0.00    +0.000 OA
ENDBRANCH  26  27
ENDBRANCH  24  26
ENDBRANCH  23  24
ENDBRANCH  22  23
ENDBRANCH  21  22
ENDBRANCH   1  21
TORSDOF 9
ENDMDL
MODEL 6
REMARK VINA RESULT:      -7.6      3.535      6.384
REMARK  Name = 
REMARK  9 active torsions:
REMARK  status: ('A' for Active; 'I' for Inactive)
REMARK    1  A    between atoms: O_1  and  C_2
REMARK    2  A    between atoms: C_5  and  C_6
REMARK    3  A    between atoms: C_6  and  N_7
REMARK    4  A    between atoms: N_7  and  C_8
REMARK    5  A    between atoms: C_8  and  C_9
REMARK    6  A    between atoms: C_9  and  C_10
REMARK    7  A    between atoms: C_10  and  N_11
REMARK    8  A    between atoms: N_11  and  C_12
REMARK    9  A    between atoms: C_12  and  C_13
REMARK                            x       y       z     vdW  Elec       q    Type
REMARK                         _______ _______ _______ _____ _____    ______ ____
ROOT
ATOM      1  N   UNL     1      -0.341  11.206  19.264  0.00  0.00    +0.000 N 
ATOM      2  C   UNL     1      -1.550  11.113  18.639  0.00  0.00    +0.000 A 
ATOM      3  N   UNL     1      -2.617  11.812  18.962  0.00  0.00    +0.000 NA
ATOM      4  C   UNL     1      -3.677  11.383  18.186  0.00  0.00    +0.000 A 
ATOM      5  N   UNL     1      -4.993  11.856  18.461  0.00  0.00    +0.000 N 
ATOM      6  C   UNL     1      -6.156  11.512  17.809  0.00  0.00    +0.000 A 
ATOM      7  C   UNL     1      -7.158  12.190  18.455  0.00  0.00    +0.000 A 
ATOM      8  N   UNL     1      -6.654  12.941  19.483  0.00  0.00    +0.000 NA
ATOM      9  C   UNL     1      -5.357  12.722  19.463  0.00  0.00    +0.000 A 
ATOM     10  N   UNL     1      -3.501  10.502  17.207  0.00  0.00    +0.000 NA
ATOM     11  S   UNL     1      -1.897  10.061  17.291  0.00  0.00    +0.000 S 
ENDROOT
BRANCH   1  12
ATOM     12  C   UNL     1       0.003  12.463  19.929  0.00  0.00    +0.000 C 
BRANCH  12  16
ATOM     13  C   UNL     1       3.742  14.552  19.342  0.00  0.00    +0.000 A 
ATOM     14  C   UNL     1       2.993  14.216  18.218  0.00  0.00    +0.000 A 
ATOM     15  C   UNL     1       1.808  13.478  18.365  0.00  0.00    +0.000 A 
ATOM     16  C   UNL     1       1.363  13.082  19.634  0.00  0.00    +0.000 A 
ATOM     17  C   UNL     1       2.202  13.345  20.737  0.00  0.00    +0.000 A 
ATOM     18  C   UNL     1       3.370  14.096  20.596  0.00  0.00    +0.000 A 
BRANCH  13  19
ATOM     19  O   UNL     1       4.853  15.340  19.268  0.00  0.00    +0.000 OA
ATOM     20  H   UNL     1       5.599  14.870  19.673  0.00  0.00    +0.000 HD
ENDBRANCH  13  19
ENDBRANCH  12  16
ENDBRANCH   1  12
BRANCH   1  21
ATOM     21  C   UNL     1       0.546  10.035  19.379  0.00  0.00    +0.000 C 
BRANCH  21  22
ATOM     22  C   UNL     1       1.479   9.862  18.167  0.00  0.00    +0.000 C 
BRANCH  22  23
ATOM     23  C   UNL     1       1.777   8.387  17.815  0.00  0.00    +0.000 C 
BRANCH  23  24
ATOM     24  N   UNL     1       3.143   8.015  18.185  0.00  0.00    +0.000 NA
ATOM     25  H   UNL     1       3.221   7.943  19.200  0.00  0.00    +0.000 HD
BRANCH  24  26
ATOM     26  C   UNL     1       3.562   6.727  17.619  0.00  0.00    +0.000 C 
BRANCH  26  27
ATOM     27  C   UNL     1       2.883   5.583  18.349  0.00  0.00    +0.000 A 
ATOM     28  C   UNL     1       2.067   4.685  17.629  0.00  0.00    +0.000 A 
ATOM     29  C   UNL     1       1.414   3.616  18.263  0.00  0.00    +0.000 A 
ATOM     30  C   UNL     1       1.590   3.479  19.622  0.00  0.00    +0.000 A 
ATOM     31  C   UNL     1       2.377   4.348  20.340  0.00  0.00    +0.000 A 
ATOM     32  C   UNL     1       3.037   5.405  19.737  0.00  0.00    +0.000 A 
ATOM     33  O   UNL     1       2.406   4.033  21.667  0.00  0.00    +0.000 OA
ATOM     34  C   UNL     1       1.510   2.899  21.699  0.00  0.00    +0.000 C 
ATOM     35  O   UNL     1       1.035   2.508  20.396  0.00  0.00    +0.000 OA
ENDBRANCH  26  27
ENDBRANCH  24  26
ENDBRANCH  23  24
ENDBRANCH  22  23
ENDBRANCH  21  22
ENDBRANCH   1  21
TORSDOF 9
ENDMDL
MODEL 7
REMARK VINA RESULT:      -7.5      4.261      9.869
REMARK  Name = 
REMARK  9 active torsions:
REMARK  status: ('A' for Active; 'I' for Inactive)
REMARK    1  A    between atoms: O_1  and  C_2
REMARK    2  A    between atoms: C_5  and  C_6
REMARK    3  A    between atoms: C_6  and  N_7
REMARK    4  A    between atoms: N_7  and  C_8
REMARK    5  A    between atoms: C_8  and  C_9
REMARK    6  A    between atoms: C_9  and  C_10
REMARK    7  A    between atoms: C_10  and  N_11
REMARK    8  A    between atoms: N_11  and  C_12
REMARK    9  A    between atoms: C_12  and  C_13
REMARK                            x       y       z     vdW  Elec       q    Type
REMARK                         _______ _______ _______ _____ _____    ______ ____
ROOT
ATOM      1  N   UNL     1       1.785   7.376  20.198  0.00  0.00    +0.000 N 
ATOM      2  C   UNL     1       2.652   7.162  19.168  0.00  0.00    +0.000 A 
ATOM      3  N   UNL     1       3.644   6.299  19.190  0.00  0.00    +0.000 NA
ATOM      4  C   UNL     1       4.367   6.427  18.019  0.00  0.00    +0.000 A 
ATOM      5  N   UNL     1       5.600   5.729  17.867  0.00  0.00    +0.000 N 
ATOM      6  C   UNL     1       6.452   5.766  16.785  0.00  0.00    +0.000 A 
ATOM      7  C   UNL     1       7.515   4.968  17.123  0.00  0.00    +0.000 A 
ATOM      8  N   UNL     1       7.350   4.440  18.375  0.00  0.00    +0.000 NA
ATOM      9  C   UNL     1       6.195   4.912  18.795  0.00  0.00    +0.000 A 
ATOM     10  N   UNL     1       3.953   7.224  17.039  0.00  0.00    +0.000 NA
ATOM     11  S   UNL     1       2.594   7.984  17.629  0.00  0.00    +0.000 S 
ENDROOT
BRANCH   1  12
ATOM     12  C   UNL     1       1.547   6.286  21.146  0.00  0.00    +0.000 C 
BRANCH  12  16
ATOM     13  C   UNL     1       1.841   2.266  19.584  0.00  0.00    +0.000 A 
ATOM     14  C   UNL     1       1.059   3.185  18.892  0.00  0.00    +0.000 A 
ATOM     15  C   UNL     1       0.884   4.481  19.405  0.00  0.00    +0.000 A 
ATOM     16  C   UNL     1       1.499   4.864  20.605  0.00  0.00    +0.000 A 
ATOM     17  C   UNL     1       2.193   3.875  21.334  0.00  0.00    +0.000 A 
ATOM     18  C   UNL     1       2.384   2.594  20.816  0.00  0.00    +0.000 A 
BRANCH  13  19
ATOM     19  O   UNL     1       2.116   1.025  19.090  0.00  0.00    +0.000 OA
ATOM     20  H   UNL     1       1.941   0.366  19.782  0.00  0.00    +0.000 HD
ENDBRANCH  13  19
ENDBRANCH  12  16
ENDBRANCH   1  12
BRANCH   1  21
ATOM     21  C   UNL     1       1.197   8.707  20.432  0.00  0.00    +0.000 C 
BRANCH  21  22
ATOM     22  C   UNL     1       0.117   8.707  21.529  0.00  0.00    +0.000 C 
BRANCH  22  23
ATOM     23  C   UNL     1       0.590   9.317  22.868  0.00  0.00    +0.000 C 
BRANCH  23  24
ATOM     24  N   UNL     1      -0.258  10.439  23.272  0.00  0.00    +0.000 NA
ATOM     25  H   UNL     1       0.164  10.928  24.061  0.00  0.00    +0.000 HD
BRANCH  24  26
ATOM     26  C   UNL     1      -0.457  11.424  22.201  0.00  0.00    +0.000 C 
BRANCH  26  27
ATOM     27  C   UNL     1      -1.870  11.978  22.249  0.00  0.00    +0.000 A 
ATOM     28  C   UNL     1      -2.398  12.635  21.118  0.00  0.00    +0.000 A 
ATOM     29  C   UNL     1      -3.698  13.167  21.119  0.00  0.00    +0.000 A 
ATOM     30  C   UNL     1      -4.439  13.036  22.271  0.00  0.00    +0.000 A 
ATOM     31  C   UNL     1      -3.937  12.403  23.385  0.00  0.00    +0.000 A 
ATOM     32  C   UNL     1      -2.662  11.863  23.406  0.00  0.00    +0.000 A 
ATOM     33  O   UNL     1      -4.833  12.391  24.413  0.00  0.00    +0.000 OA
ATOM     34  C   UNL     1      -5.930  13.130  23.828  0.00  0.00    +0.000 C 
ATOM     35  O   UNL     1      -5.708  13.490  22.451  0.00  0.00    +0.000 OA
ENDBRANCH  26  27
ENDBRANCH  24  26
ENDBRANCH  23  24
ENDBRANCH  22  23
ENDBRANCH  21  22
ENDBRANCH   1  21
TORSDOF 9
ENDMDL
MODEL 8
REMARK VINA RESULT:      -7.5      2.633      3.230
REMARK  Name = 
REMARK  9 active torsions:
REMARK  status: ('A' for Active; 'I' for Inactive)
REMARK    1  A    between atoms: O_1  and  C_2
REMARK    2  A    between atoms: C_5  and  C_6
REMARK    3  A    between atoms: C_6  and  N_7
REMARK    4  A    between atoms: N_7  and  C_8
REMARK    5  A    between atoms: C_8  and  C_9
REMARK    6  A    between atoms: C_9  and  C_10
REMARK    7  A    between atoms: C_10  and  N_11
REMARK    8  A    between atoms: N_11  and  C_12
REMARK    9  A    between atoms: C_12  and  C_13
REMARK                            x       y       z     vdW  Elec       q    Type
REMARK                         _______ _______ _______ _____ _____    ______ ____
ROOT
ATOM      1  N   UNL     1       0.978   9.419  20.497  0.00  0.00    +0.000 N 
ATOM      2  C   UNL     1       0.276  10.183  21.383  0.00  0.00    +0.000 A 
ATOM      3  N   UNL     1       0.126  11.487  21.295  0.00  0.00    +0.000 NA
ATOM      4  C   UNL     1      -0.553  11.928  22.415  0.00  0.00    +0.000 A 
ATOM      5  N   UNL     1      -0.691  13.327  22.653  0.00  0.00    +0.000 N 
ATOM      6  C   UNL     1      -1.308  13.933  23.725  0.00  0.00    +0.000 A 
ATOM      7  C   UNL     1      -1.149  15.282  23.530  0.00  0.00    +0.000 A 
ATOM      8  N   UNL     1      -0.456  15.529  22.376  0.00  0.00    +0.000 NA
ATOM      9  C   UNL     1      -0.195  14.341  21.873  0.00  0.00    +0.000 A 
ATOM     10  N   UNL     1      -1.050  11.072  23.301  0.00  0.00    +0.000 NA
ATOM     11  S   UNL     1      -0.560   9.566  22.785  0.00  0.00    +0.000 S 
ENDROOT
BRANCH   1  12
ATOM     12  C   UNL     1       1.115   9.900  19.121  0.00  0.00    +0.000 C 
BRANCH  12  16
ATOM     13  C   UNL     1      -2.581  11.373  17.433  0.00  0.00    +0.000 A 
ATOM     14  C   UNL     1      -2.308  10.013  17.330  0.00  0.00    +0.000 A 
ATOM     15  C   UNL     1      -1.087   9.508  17.806  0.00  0.00    +0.000 A 
ATOM     16  C   UNL     1      -0.141  10.360  18.393  0.00  0.00    +0.000 A 
ATOM     17  C   UNL     1      -0.404  11.746  18.380  0.00  0.00    +0.000 A 
ATOM     18  C   UNL     1      -1.625  12.246  17.927  0.00  0.00    +0.000 A 
BRANCH  13  19
ATOM     19  O   UNL     1      -3.783  11.904  17.068  0.00  0.00    +0.000 OA
ATOM     20  H   UNL     1      -4.301  11.224  16.608  0.00  0.00    +0.000 HD
ENDBRANCH  13  19
ENDBRANCH  12  16
ENDBRANCH   1  12
BRANCH   1  21
ATOM     21  C   UNL     1       1.690   8.206  20.936  0.00  0.00    +0.000 C 
BRANCH  21  22
ATOM     22  C   UNL     1       1.422   6.988  20.033  0.00  0.00    +0.000 C 
BRANCH  22  23
ATOM     23  C   UNL     1       1.853   5.642  20.659  0.00  0.00    +0.000 C 
BRANCH  23  24
ATOM     24  N   UNL     1       2.674   4.862  19.732  0.00  0.00    +0.000 NA
ATOM     25  H   UNL     1       2.512   3.866  19.877  0.00  0.00    +0.000 HD
BRANCH  24  26
ATOM     26  C   UNL     1       2.387   5.155  18.322  0.00  0.00    +0.000 C 
BRANCH  26  27
ATOM     27  C   UNL     1       3.678   5.327  17.544  0.00  0.00    +0.000 A 
ATOM     28  C   UNL     1       4.349   6.568  17.576  0.00  0.00    +0.000 A 
ATOM     29  C   UNL     1       5.544   6.775  16.868  0.00  0.00    +0.000 A 
ATOM     30  C   UNL     1       6.035   5.724  16.128  0.00  0.00    +0.000 A 
ATOM     31  C   UNL     1       5.392   4.510  16.080  0.00  0.00    +0.000 A 
ATOM     32  C   UNL     1       4.217   4.278  16.776  0.00  0.00    +0.000 A 
ATOM     33  O   UNL     1       6.045   3.615  15.285  0.00  0.00    +0.000 OA
ATOM     34  C   UNL     1       7.142   4.426  14.806  0.00  0.00    +0.000 C 
ATOM     35  O   UNL     1       7.173   5.746  15.382  0.00  0.00    +0.000 OA
ENDBRANCH  26  27
ENDBRANCH  24  26
ENDBRANCH  23  24
ENDBRANCH  22  23
ENDBRANCH  21  22
ENDBRANCH   1  21
TORSDOF 9
ENDMDL
MODEL 9
REMARK VINA RESULT:      -7.5      3.626      5.891
REMARK  Name = 
REMARK  9 active torsions:
REMARK  status: ('A' for Active; 'I' for Inactive)
REMARK    1  A    between atoms: O_1  and  C_2
REMARK    2  A    between atoms: C_5  and  C_6
REMARK    3  A    between atoms: C_6  and  N_7
REMARK    4  A    between atoms: N_7  and  C_8
REMARK    5  A    between atoms: C_8  and  C_9
REMARK    6  A    between atoms: C_9  and  C_10
REMARK    7  A    between atoms: C_10  and  N_11
REMARK    8  A    between atoms: N_11  and  C_12
REMARK    9  A    between atoms: C_12  and  C_13
REMARK                            x       y       z     vdW  Elec       q    Type
REMARK                         _______ _______ _______ _____ _____    ______ ____
ROOT
ATOM      1  N   UNL     1       0.164  11.570  19.216  0.00  0.00    +0.000 N 
ATOM      2  C   UNL     1      -1.102  11.911  19.595  0.00  0.00    +0.000 A 
ATOM      3  N   UNL     1      -1.440  12.312  20.801  0.00  0.00    +0.000 NA
ATOM      4  C   UNL     1      -2.813  12.470  20.843  0.00  0.00    +0.000 A 
ATOM      5  N   UNL     1      -3.458  12.727  22.088  0.00  0.00    +0.000 N 
ATOM      6  C   UNL     1      -4.808  12.883  22.311  0.00  0.00    +0.000 A 
ATOM      7  C   UNL     1      -4.942  13.071  23.663  0.00  0.00    +0.000 A 
ATOM      8  N   UNL     1      -3.721  13.037  24.283  0.00  0.00    +0.000 NA
ATOM      9  C   UNL     1      -2.853  12.830  23.316  0.00  0.00    +0.000 A 
ATOM     10  N   UNL     1      -3.554  12.347  19.747  0.00  0.00    +0.000 NA
ATOM     11  S   UNL     1      -2.495  11.891  18.545  0.00  0.00    +0.000 S 
ENDROOT
BRANCH   1  12
ATOM     12  C   UNL     1       1.290  12.164  19.938  0.00  0.00    +0.000 C 
BRANCH  12  16
ATOM     13  C   UNL     1       2.468  16.020  18.378  0.00  0.00    +0.000 A 
ATOM     14  C   UNL     1       3.111  14.888  17.888  0.00  0.00    +0.000 A 
ATOM     15  C   UNL     1       2.804  13.625  18.419  0.00  0.00    +0.000 A 
ATOM     16  C   UNL     1       1.847  13.489  19.434  0.00  0.00    +0.000 A 
ATOM     17  C   UNL     1       1.296  14.667  19.981  0.00  0.00    +0.000 A 
ATOM     18  C   UNL     1       1.584  15.920  19.441  0.00  0.00    +0.000 A 
BRANCH  13  19
ATOM     19  O   UNL     1       2.662  17.258  17.841  0.00  0.00    +0.000 OA
ATOM     20  H   UNL     1       2.098  17.895  18.308  0.00  0.00    +0.000 HD
ENDBRANCH  13  19
ENDBRANCH  12  16
ENDBRANCH   1  12
BRANCH   1  21
ATOM     21  C   UNL     1       0.397  10.536  18.193  0.00  0.00    +0.000 C 
BRANCH  21  22
ATOM     22  C   UNL     1       1.845  10.012  18.183  0.00  0.00    +0.000 C 
BRANCH  22  23
ATOM     23  C   UNL     1       1.958   8.489  18.420  0.00  0.00    +0.000 C 
BRANCH  23  24
ATOM     24  N   UNL     1       2.835   7.859  17.432  0.00  0.00    +0.000 NA
ATOM     25  H   UNL     1       3.393   8.570  16.958  0.00  0.00    +0.000 HD
BRANCH  24  26
ATOM     26  C   UNL     1       3.766   6.890  18.023  0.00  0.00    +0.000 C 
BRANCH  26  27
ATOM     27  C   UNL     1       3.005   5.711  18.602  0.00  0.00    +0.000 A 
ATOM     28  C   UNL     1       2.179   4.936  17.762  0.00  0.00    +0.000 A 
ATOM     29  C   UNL     1       1.452   3.841  18.255  0.00  0.00    +0.000 A 
ATOM     30  C   UNL     1       1.565   3.553  19.596  0.00  0.00    +0.000 A 
ATOM     31  C   UNL     1       2.362   4.301  20.431  0.00  0.00    +0.000 A 
ATOM     32  C   UNL     1       3.094   5.382  19.968  0.00  0.00    +0.000 A 
ATOM     33  O   UNL     1       2.323   3.848  21.717  0.00  0.00    +0.000 OA
ATOM     34  C   UNL     1       1.374   2.763  21.595  0.00  0.00    +0.000 C 
ATOM     35  O   UNL     1       0.935   2.535  20.242  0.00  0.00    +0.000 OA
ENDBRANCH  26  27
ENDBRANCH  24  26
ENDBRANCH  23  24
ENDBRANCH  22  23
ENDBRANCH  21  22
ENDBRANCH   1  21
TORSDOF 9
ENDMDL
