MODEL 1
REMARK VINA RESULT:      -3.1      0.000      0.000
REMARK  Name = 
REMARK  2 active torsions:
REMARK  status: ('A' for Active; 'I' for Inactive)
REMARK    1  A    between atoms: C_2  and  C_3
REMARK    2  A    between atoms: C_3  and  C_5
REMARK                            x       y       z     vdW  Elec       q    Type
REMARK                         _______ _______ _______ _____ _____    ______ ____
ROOT
ATOM      1  C   UNL     1       1.130   3.865  20.445  0.00  0.00    +0.000 C 
ATOM      2 CL   UNL     1       1.439   2.627  21.716  0.00  0.00    +0.000 Cl
ENDROOT
BRANCH   1   4
ATOM      3 CL   UNL     1       1.522   4.354  17.752  0.00  0.00    +0.000 Cl
ATOM      4  C   UNL     1       1.086   3.216  19.056  0.00  0.00    +0.000 C 
ENDBRANCH   1   4
BRANCH   1   5
ATOM      5  C   UNL     1       2.240   4.914  20.545  0.00  0.00    +0.000 C 
ATOM      6 CL   UNL     1       1.596   6.576  20.640  0.00  0.00    +0.000 Cl
ENDBRANCH   1   5
TORSDOF 2
ENDMDL
MODEL 2
REMARK VINA RESULT:      -3.1      2.000      2.765
REMARK  Name = 
REMARK  2 active torsions:
REMARK  status: ('A' for Active; 'I' for Inactive)
REMARK    1  A    between atoms: C_2  and  C_3
REMARK    2  A    between atoms: C_3  and  C_5
REMARK                            x       y       z     vdW  Elec       q    Type
REMARK                         _______ _______ _______ _____ _____    ______ ____
ROOT
ATOM      1  C   UNL     1       2.228   1.999  19.173  0.00  0.00    +0.000 C 
ATOM      2 CL   UNL     1       3.508   1.854  17.916  0.00  0.00    +0.000 Cl
ENDROOT
BRANCH   1   4
ATOM      3 CL   UNL     1       1.474   4.237  17.736  0.00  0.00    +0.000 Cl
ATOM      4  C   UNL     1       1.014   2.760  18.626  0.00  0.00    +0.000 C 
ENDBRANCH   1   4
BRANCH   1   5
ATOM      5  C   UNL     1       2.846   2.710  20.380  0.00  0.00    +0.000 C 
ATOM      6 CL   UNL     1       1.682   2.914  21.717  0.00  0.00    +0.000 Cl
ENDBRANCH   1   5
TORSDOF 2
ENDMDL
MODEL 3
REMARK VINA RESULT:      -3.1      2.092      3.525
REMARK  Name = 
REMARK  2 active torsions:
REMARK  status: ('A' for Active; 'I' for Inactive)
REMARK    1  A    between atoms: C_2  and  C_3
REMARK    2  A    between atoms: C_3  and  C_5
REMARK                            x       y       z     vdW  Elec       q    Type
REMARK                         _______ _______ _______ _____ _____    ______ ____
ROOT
ATOM      1  C   UNL     1       1.765   2.440  18.521  0.00  0.00    +0.000 C 
ATOM      2 CL   UNL     1       1.662   4.041  17.704  0.00  0.00    +0.000 Cl
ENDROOT
BRANCH   1   4
ATOM      3 CL   UNL     1       0.950   4.226  20.467  0.00  0.00    +0.000 Cl
ATOM      4  C   UNL     1       1.419   2.566  20.009  0.00  0.00    +0.000 C 
ENDBRANCH   1   4
BRANCH   1   5
ATOM      5  C   UNL     1       3.185   1.908  18.313  0.00  0.00    +0.000 C 
ATOM      6 CL   UNL     1       4.270   2.320  19.667  0.00  0.00    +0.000 Cl
ENDBRANCH   1   5
TORSDOF 2
ENDMDL
MODEL 4
REMARK VINA RESULT:      -3.1      1.745      2.954
REMARK  Name = 
REMARK  2 active torsions:
REMARK  status: ('A' for Active; 'I' for Inactive)
REMARK    1  A    between atoms: C_2  and  C_3
REMARK    2  A    between atoms: C_3  and  C_5
REMARK                            x       y       z     vdW  Elec       q    Type
REMARK                         _______ _______ _______ _____ _____    ______ ____
ROOT
ATOM      1  C   UNL     1       2.224   4.183  19.370  0.00  0.00    +0.000 C 
ATOM      2 CL   UNL     1       1.513   4.263  17.718  0.00  0.00    +0.000 Cl
ENDROOT
BRANCH   1   4
ATOM      3 CL   UNL     1       3.063   1.866  18.116  0.00  0.00    +0.000 Cl
ATOM      4  C   UNL     1       3.197   3.003  19.486  0.00  0.00    +0.000 C 
ENDBRANCH   1   4
BRANCH   1   5
ATOM      5  C   UNL     1       1.066   4.061  20.364  0.00  0.00    +0.000 C 
ATOM      6 CL   UNL     1       1.302   2.723  21.521  0.00  0.00    +0.000 Cl
ENDBRANCH   1   5
TORSDOF 2
ENDMDL
MODEL 5
REMARK VINA RESULT:      -3.0      1.986      3.340
REMARK  Name = 
REMARK  2 active torsions:
REMARK  status: ('A' for Active; 'I' for Inactive)
REMARK    1  A    between atoms: C_2  and  C_3
REMARK    2  A    between atoms: C_3  and  C_5
REMARK                            x       y       z     vdW  Elec       q    Type
REMARK                         _______ _______ _______ _____ _____    ______ ____
ROOT
ATOM      1  C   UNL     1       2.932   2.841  19.243  0.00  0.00    +0.000 C 
ATOM      2 CL   UNL     1       3.599   1.356  18.473  0.00  0.00    +0.000 Cl
ENDROOT
BRANCH   1   4
ATOM      3 CL   UNL     1       1.296   2.749  21.470  0.00  0.00    +0.000 Cl
ATOM      4  C   UNL     1       2.938   2.710  20.770  0.00  0.00    +0.000 C 
ENDBRANCH   1   4
BRANCH   1   5
ATOM      5  C   UNL     1       1.516   3.046  18.697  0.00  0.00    +0.000 C 
ATOM      6 CL   UNL     1       1.411   4.439  17.588  0.00  0.00    +0.000 Cl
ENDBRANCH   1   5
TORSDOF 2
ENDMDL
MODEL 6
REMARK VINA RESULT:      -3.0      1.674      3.490
REMARK  Name = 
REMARK  2 active torsions:
REMARK  status: ('A' for Active; 'I' for Inactive)
REMARK    1  A    between atoms: C_2  and  C_3
REMARK    2  A    between atoms: C_3  and  C_5
REMARK                            x       y       z     vdW  Elec       q    Type
REMARK                         _______ _______ _______ _____ _____    ______ ____
ROOT
ATOM      1  C   UNL     1       1.335   2.814  18.477  0.00  0.00    +0.000 C 
ATOM      2 CL   UNL     1       1.417   4.431  17.690  0.00  0.00    +0.000 Cl
ENDROOT
BRANCH   1   4
ATOM      3 CL   UNL     1       1.196   4.628  20.558  0.00  0.00    +0.000 Cl
ATOM      4  C   UNL     1       1.016   2.952  19.970  0.00  0.00    +0.000 C 
ENDBRANCH   1   4
BRANCH   1   5
ATOM      5  C   UNL     1       2.680   2.120  18.247  0.00  0.00    +0.000 C 
ATOM      6 CL   UNL     1       3.890   3.210  17.517  0.00  0.00    +0.000 Cl
ENDBRANCH   1   5
TORSDOF 2
ENDMDL
MODEL 7
REMARK VINA RESULT:      -3.0      0.729      2.657
REMARK  Name = 
REMARK  2 active torsions:
REMARK  status: ('A' for Active; 'I' for Inactive)
REMARK    1  A    between atoms: C_2  and  C_3
REMARK    2  A    between atoms: C_3  and  C_5
REMARK                            x       y       z     vdW  Elec       q    Type
REMARK                         _______ _______ _______ _____ _____    ______ ____
ROOT
ATOM      1  C   UNL     1       2.177   3.736  19.238  0.00  0.00    +0.000 C 
ATOM      2 CL   UNL     1       1.606   4.442  17.683  0.00  0.00    +0.000 Cl
ENDROOT
BRANCH   1   4
ATOM      3 CL   UNL     1       1.462   2.649  21.678  0.00  0.00    +0.000 Cl
ATOM      4  C   UNL     1       1.006   3.130  20.021  0.00  0.00    +0.000 C 
ENDBRANCH   1   4
BRANCH   1   5
ATOM      5  C   UNL     1       2.867   4.852  20.025  0.00  0.00    +0.000 C 
ATOM      6 CL   UNL     1       1.713   6.072  20.627  0.00  0.00    +0.000 Cl
ENDBRANCH   1   5
TORSDOF 2
ENDMDL
MODEL 8
REMARK VINA RESULT:      -3.0      2.006      2.725
REMARK  Name = 
REMARK  2 active torsions:
REMARK  status: ('A' for Active; 'I' for Inactive)
REMARK    1  A    between atoms: C_2  and  C_3
REMARK    2  A    between atoms: C_3  and  C_5
REMARK                            x       y       z     vdW  Elec       q    Type
REMARK                         _______ _______ _______ _____ _____    ______ ____
ROOT
ATOM      1  C   UNL     1       1.793   2.307  20.032  0.00  0.00    +0.000 C 
ATOM      2 CL   UNL     1       1.590   3.049  21.659  0.00  0.00    +0.000 Cl
ENDROOT
BRANCH   1   4
ATOM      3 CL   UNL     1       3.707   1.335  18.288  0.00  0.00    +0.000 Cl
ATOM      4  C   UNL     1       3.209   2.551  19.497  0.00  0.00    +0.000 C 
ENDBRANCH   1   4
BRANCH   1   5
ATOM      5  C   UNL     1       0.729   2.911  19.113  0.00  0.00    +0.000 C 
ATOM      6 CL   UNL     1       1.420   4.064  17.939  0.00  0.00    +0.000 Cl
ENDBRANCH   1   5
TORSDOF 2
ENDMDL
MODEL 9
REMARK VINA RESULT:      -3.0      1.914      2.442
REMARK  Name = 
REMARK  2 active torsions:
REMARK  status: ('A' for Active; 'I' for Inactive)
REMARK    1  A    between atoms: C_2  and  C_3
REMARK    2  A    between atoms: C_3  and  C_5
REMARK                            x       y       z     vdW  Elec       q    Type
REMARK                         _______ _______ _______ _____ _____    ______ ____
ROOT
ATOM      1  C   UNL     1       1.163   3.337  18.899  0.00  0.00    +0.000 C 
ATOM      2 CL   UNL     1       2.173   1.855  19.055  0.00  0.00    +0.000 Cl
ENDROOT
BRANCH   1   4
ATOM      3 CL   UNL     1       3.225   3.652  17.085  0.00  0.00    +0.000 Cl
ATOM      4  C   UNL     1       1.812   4.336  17.933  0.00  0.00    +0.000 C 
ENDBRANCH   1   4
BRANCH   1   5
ATOM      5  C   UNL     1       0.996   3.931  20.300  0.00  0.00    +0.000 C 
ATOM      6 CL   UNL     1       1.411   2.765  21.585  0.00  0.00    +0.000 Cl
ENDBRANCH   1   5
TORSDOF 2
ENDMDL
