MODEL 1
REMARK VINA RESULT:      -7.7      0.000      0.000
REMARK  Name = 
REMARK  4 active torsions:
REMARK  status: ('A' for Active; 'I' for Inactive)
REMARK    1  A    between atoms: C_1  and  O_2
REMARK    2  A    between atoms: O_2  and  C_3
REMARK    3  A    between atoms: C_6  and  C_7
REMARK    4  A    between atoms: C_11  and  C_12
REMARK                            x       y       z     vdW  Elec       q    Type
REMARK                         _______ _______ _______ _____ _____    ______ ____
ROOT
ATOM      1  C   UNL     1       2.293   8.278  18.550  0.00  0.00    +0.000 A 
ATOM      2  C   UNL     1       2.288   9.513  17.911  0.00  0.00    +0.000 A 
ATOM      3  C   UNL     1       1.386  10.461  18.402  0.00  0.00    +0.000 A 
ATOM      4  C   UNL     1       0.379  10.045  19.242  0.00  0.00    +0.000 A 
ATOM      5  C   UNL     1       0.808   9.120  20.154  0.00  0.00    +0.000 A 
ATOM      6  C   UNL     1       0.938   9.504  21.612  0.00  0.00    +0.000 C 
ATOM      7  N   UNL     1       1.669   8.162  19.754  0.00  0.00    +0.000 NA
ATOM      8  C   UNL     1      -0.705  10.985  19.501  0.00  0.00    +0.000 C 
ATOM      9  O   UNL     1      -1.875  10.671  19.362  0.00  0.00    +0.000 OA
ATOM     10  C   UNL     1      -0.273  12.285  19.994  0.00  0.00    +0.000 A 
ATOM     11  C   UNL     1      -1.029  12.887  20.997  0.00  0.00    +0.000 A 
ATOM     12  C   UNL     1      -0.404  13.804  21.827  0.00  0.00    +0.000 A 
ATOM     13  C   UNL     1       0.958  14.107  21.610  0.00  0.00    +0.000 A 
ATOM     14  C   UNL     1       1.673  13.571  20.522  0.00  0.00    +0.000 A 
ATOM     15  C   UNL     1       1.039  12.653  19.682  0.00  0.00    +0.000 A 
ATOM     16  C   UNL     1       1.764  11.902  18.587  0.00  0.00    +0.000 C 
ATOM     17  O   UNL     1       2.704  12.396  17.981  0.00  0.00    +0.000 OA
ENDROOT
BRANCH   1  21
ATOM     18  C   UNL     1       4.116   4.608  17.161  0.00  0.00    +0.000 A 
ATOM     19  C   UNL     1       4.769   5.828  16.972  0.00  0.00    +0.000 A 
ATOM     20  C   UNL     1       4.216   7.030  17.446  0.00  0.00    +0.000 A 
ATOM     21  C   UNL     1       2.979   7.043  18.109  0.00  0.00    +0.000 A 
ATOM     22  C   UNL     1       2.334   5.794  18.263  0.00  0.00    +0.000 A 
ATOM     23  C   UNL     1       2.884   4.596  17.798  0.00  0.00    +0.000 A 
BRANCH  18  25
ATOM     24  C   UNL     1       5.808   3.772  15.741  0.00  0.00    +0.000 C 
ATOM     25  O   UNL     1       4.744   3.506  16.650  0.00  0.00    +0.000 OA
ENDBRANCH  18  25
ENDBRANCH   1  21
TORSDOF 2
ENDMDL
MODEL 2
REMARK VINA RESULT:      -7.7      1.932      3.212
REMARK  Name = 
REMARK  4 active torsions:
REMARK  status: ('A' for Active; 'I' for Inactive)
REMARK    1  A    between atoms: C_1  and  O_2
REMARK    2  A    between atoms: O_2  and  C_3
REMARK    3  A    between atoms: C_6  and  C_7
REMARK    4  A    between atoms: C_11  and  C_12
REMARK                            x       y       z     vdW  Elec       q    Type
REMARK                         _______ _______ _______ _____ _____    ______ ____
ROOT
ATOM      1  C   UNL     1       1.495   8.174  20.269  0.00  0.00    +0.000 A 
ATOM      2  C   UNL     1       1.431   8.600  21.590  0.00  0.00    +0.000 A 
ATOM      3  C   UNL     1       1.002   9.914  21.798  0.00  0.00    +0.000 A 
ATOM      4  C   UNL     1       0.968  10.778  20.727  0.00  0.00    +0.000 A 
ATOM      5  C   UNL     1       0.497  10.181  19.590  0.00  0.00    +0.000 A 
ATOM      6  C   UNL     1      -0.871  10.551  19.058  0.00  0.00    +0.000 C 
ATOM      7  N   UNL     1       0.877   8.918  19.311  0.00  0.00    +0.000 NA
ATOM      8  C   UNL     1       0.801  12.196  21.018  0.00  0.00    +0.000 C 
ATOM      9  O   UNL     1       1.555  13.039  20.562  0.00  0.00    +0.000 OA
ATOM     10  C   UNL     1      -0.362  12.513  21.835  0.00  0.00    +0.000 A 
ATOM     11  C   UNL     1      -1.095  13.653  21.512  0.00  0.00    +0.000 A 
ATOM     12  C   UNL     1      -2.429  13.701  21.884  0.00  0.00    +0.000 A 
ATOM     13  C   UNL     1      -2.982  12.611  22.592  0.00  0.00    +0.000 A 
ATOM     14  C   UNL     1      -2.196  11.519  23.005  0.00  0.00    +0.000 A 
ATOM     15  C   UNL     1      -0.850  11.476  22.635  0.00  0.00    +0.000 A 
ATOM     16  C   UNL     1       0.036  10.276  22.890  0.00  0.00    +0.000 C 
ATOM     17  O   UNL     1      -0.120   9.556  23.865  0.00  0.00    +0.000 OA
ENDROOT
BRANCH   1  21
ATOM     18  C   UNL     1       3.102   4.432  18.807  0.00  0.00    +0.000 A 
ATOM     19  C   UNL     1       3.275   5.603  18.067  0.00  0.00    +0.000 A 
ATOM     20  C   UNL     1       2.793   6.838  18.536  0.00  0.00    +0.000 A 
ATOM     21  C   UNL     1       2.109   6.929  19.758  0.00  0.00    +0.000 A 
ATOM     22  C   UNL     1       1.933   5.720  20.471  0.00  0.00    +0.000 A 
ATOM     23  C   UNL     1       2.414   4.492  20.010  0.00  0.00    +0.000 A 
BRANCH  18  25
ATOM     24  C   UNL     1       2.632   2.336  17.825  0.00  0.00    +0.000 C 
ATOM     25  O   UNL     1       3.603   3.289  18.248  0.00  0.00    +0.000 OA
ENDBRANCH  18  25
ENDBRANCH   1  21
TORSDOF 2
ENDMDL
MODEL 3
REMARK VINA RESULT:      -7.6      0.701      1.266
REMARK  Name = 
REMARK  4 active torsions:
REMARK  status: ('A' for Active; 'I' for Inactive)
REMARK    1  A    between atoms: C_1  and  O_2
REMARK    2  A    between atoms: O_2  and  C_3
REMARK    3  A    between atoms: C_6  and  C_7
REMARK    4  A    between atoms: C_11  and  C_12
REMARK                            x       y       z     vdW  Elec       q    Type
REMARK                         _______ _______ _______ _____ _____    ______ ____
ROOT
ATOM      1  C   UNL     1       2.080   8.222  18.649  0.00  0.00    +0.000 A 
ATOM      2  C   UNL     1       2.159   9.419  17.946  0.00  0.00    +0.000 A 
ATOM      3  C   UNL     1       1.401  10.482  18.444  0.00  0.00    +0.000 A 
ATOM      4  C   UNL     1       0.419  10.219  19.372  0.00  0.00    +0.000 A 
ATOM      5  C   UNL     1       0.813   9.295  20.301  0.00  0.00    +0.000 A 
ATOM      6  C   UNL     1       1.089   9.730  21.724  0.00  0.00    +0.000 C 
ATOM      7  N   UNL     1       1.536   8.232  19.897  0.00  0.00    +0.000 NA
ATOM      8  C   UNL     1      -0.537  11.283  19.653  0.00  0.00    +0.000 C 
ATOM      9  O   UNL     1      -1.741  11.093  19.609  0.00  0.00    +0.000 OA
ATOM     10  C   UNL     1       0.064  12.550  20.044  0.00  0.00    +0.000 A 
ATOM     11  C   UNL     1      -0.548  13.276  21.062  0.00  0.00    +0.000 A 
ATOM     12  C   UNL     1       0.229  14.157  21.797  0.00  0.00    +0.000 A 
ATOM     13  C   UNL     1       1.597  14.299  21.473  0.00  0.00    +0.000 A 
ATOM     14  C   UNL     1       2.170  13.638  20.369  0.00  0.00    +0.000 A 
ATOM     15  C   UNL     1       1.382  12.756  19.625  0.00  0.00    +0.000 A 
ATOM     16  C   UNL     1       1.942  11.881  18.526  0.00  0.00    +0.000 C 
ATOM     17  O   UNL     1       2.882  12.240  17.832  0.00  0.00    +0.000 OA
ENDROOT
BRANCH   1  21
ATOM     18  C   UNL     1       3.783   4.411  17.512  0.00  0.00    +0.000 A 
ATOM     19  C   UNL     1       2.547   4.458  18.161  0.00  0.00    +0.000 A 
ATOM     20  C   UNL     1       1.956   5.685  18.510  0.00  0.00    +0.000 A 
ATOM     21  C   UNL     1       2.597   6.901  18.229  0.00  0.00    +0.000 A 
ATOM     22  C   UNL     1       3.856   6.816  17.591  0.00  0.00    +0.000 A 
ATOM     23  C   UNL     1       4.445   5.599  17.239  0.00  0.00    +0.000 A 
BRANCH  18  25
ATOM     24  C   UNL     1       3.594   2.085  17.879  0.00  0.00    +0.000 C 
ATOM     25  O   UNL     1       4.265   3.163  17.231  0.00  0.00    +0.000 OA
ENDBRANCH  18  25
ENDBRANCH   1  21
TORSDOF 2
ENDMDL
MODEL 4
REMARK VINA RESULT:      -7.5      1.837      3.192
REMARK  Name = 
REMARK  4 active torsions:
REMARK  status: ('A' for Active; 'I' for Inactive)
REMARK    1  A    between atoms: C_1  and  O_2
REMARK    2  A    between atoms: O_2  and  C_3
REMARK    3  A    between atoms: C_6  and  C_7
REMARK    4  A    between atoms: C_11  and  C_12
REMARK                            x       y       z     vdW  Elec       q    Type
REMARK                         _______ _______ _______ _____ _____    ______ ____
ROOT
ATOM      1  C   UNL     1       1.468   8.470  20.100  0.00  0.00    +0.000 A 
ATOM      2  C   UNL     1       1.391   8.827  21.442  0.00  0.00    +0.000 A 
ATOM      3  C   UNL     1       0.940  10.121  21.714  0.00  0.00    +0.000 A 
ATOM      4  C   UNL     1       0.898  11.038  20.689  0.00  0.00    +0.000 A 
ATOM      5  C   UNL     1       0.441  10.494  19.520  0.00  0.00    +0.000 A 
ATOM      6  C   UNL     1      -0.930  10.869  19.001  0.00  0.00    +0.000 C 
ATOM      7  N   UNL     1       0.843   9.253  19.179  0.00  0.00    +0.000 NA
ATOM      8  C   UNL     1       0.707  12.437  21.052  0.00  0.00    +0.000 C 
ATOM      9  O   UNL     1       1.449  13.314  20.644  0.00  0.00    +0.000 OA
ATOM     10  C   UNL     1      -0.465  12.694  21.878  0.00  0.00    +0.000 A 
ATOM     11  C   UNL     1      -1.214  13.837  21.610  0.00  0.00    +0.000 A 
ATOM     12  C   UNL     1      -2.550  13.845  21.977  0.00  0.00    +0.000 A 
ATOM     13  C   UNL     1      -3.090  12.711  22.625  0.00  0.00    +0.000 A 
ATOM     14  C   UNL     1      -2.288  11.611  22.985  0.00  0.00    +0.000 A 
ATOM     15  C   UNL     1      -0.940  11.609  22.621  0.00  0.00    +0.000 A 
ATOM     16  C   UNL     1      -0.036  10.411  22.818  0.00  0.00    +0.000 C 
ATOM     17  O   UNL     1      -0.185   9.640  23.754  0.00  0.00    +0.000 OA
ENDROOT
BRANCH   1  21
ATOM     18  C   UNL     1       3.508   5.055  18.398  0.00  0.00    +0.000 A 
ATOM     19  C   UNL     1       2.835   4.932  19.615  0.00  0.00    +0.000 A 
ATOM     20  C   UNL     1       2.135   6.016  20.173  0.00  0.00    +0.000 A 
ATOM     21  C   UNL     1       2.104   7.263  19.529  0.00  0.00    +0.000 A 
ATOM     22  C   UNL     1       2.813   7.359  18.309  0.00  0.00    +0.000 A 
ATOM     23  C   UNL     1       3.506   6.282  17.750  0.00  0.00    +0.000 A 
BRANCH  18  25
ATOM     24  C   UNL     1       4.980   4.119  16.805  0.00  0.00    +0.000 C 
ATOM     25  O   UNL     1       4.162   3.938  17.958  0.00  0.00    +0.000 OA
ENDBRANCH  18  25
ENDBRANCH   1  21
TORSDOF 2
ENDMDL
MODEL 5
REMARK VINA RESULT:      -7.4      5.613      8.900
REMARK  Name = 
REMARK  4 active torsions:
REMARK  status: ('A' for Active; 'I' for Inactive)
REMARK    1  A    between atoms: C_1  and  O_2
REMARK    2  A    between atoms: O_2  and  C_3
REMARK    3  A    between atoms: C_6  and  C_7
REMARK    4  A    between atoms: C_11  and  C_12
REMARK                            x       y       z     vdW  Elec       q    Type
REMARK                         _______ _______ _______ _____ _____    ______ ____
ROOT
ATOM      1  C   UNL     1       7.870   8.728  18.081  0.00  0.00    +0.000 A 
ATOM      2  C   UNL     1       6.690   8.696  17.347  0.00  0.00    +0.000 A 
ATOM      3  C   UNL     1       6.210   7.430  17.000  0.00  0.00    +0.000 A 
ATOM      4  C   UNL     1       7.050   6.346  17.120  0.00  0.00    +0.000 A 
ATOM      5  C   UNL     1       7.802   6.394  18.262  0.00  0.00    +0.000 A 
ATOM      6  C   UNL     1       7.511   5.432  19.394  0.00  0.00    +0.000 C 
ATOM      7  N   UNL     1       8.313   7.577  18.657  0.00  0.00    +0.000 NA
ATOM      8  C   UNL     1       6.630   5.103  16.486  0.00  0.00    +0.000 C 
ATOM      9  O   UNL     1       7.364   4.488  15.731  0.00  0.00    +0.000 OA
ATOM     10  C   UNL     1       5.307   4.639  16.878  0.00  0.00    +0.000 A 
ATOM     11  C   UNL     1       5.128   3.273  17.081  0.00  0.00    +0.000 A 
ATOM     12  C   UNL     1       4.108   2.865  17.925  0.00  0.00    +0.000 A 
ATOM     13  C   UNL     1       3.281   3.842  18.523  0.00  0.00    +0.000 A 
ATOM     14  C   UNL     1       3.409   5.210  18.216  0.00  0.00    +0.000 A 
ATOM     15  C   UNL     1       4.434   5.619  17.360  0.00  0.00    +0.000 A 
ATOM     16  C   UNL     1       4.754   7.074  17.095  0.00  0.00    +0.000 C 
ATOM     17  O   UNL     1       3.888   7.935  17.100  0.00  0.00    +0.000 OA
ENDROOT
BRANCH   1  21
ATOM     18  C   UNL     1      10.121  12.315  18.968  0.00  0.00    +0.000 A 
ATOM     19  C   UNL     1      10.237  11.195  19.794  0.00  0.00    +0.000 A 
ATOM     20  C   UNL     1       9.544  10.005  19.508  0.00  0.00    +0.000 A 
ATOM     21  C   UNL     1       8.701   9.912  18.391  0.00  0.00    +0.000 A 
ATOM     22  C   UNL     1       8.589  11.072  17.589  0.00  0.00    +0.000 A 
ATOM     23  C   UNL     1       9.280  12.254  17.867  0.00  0.00    +0.000 A 
BRANCH  18  25
ATOM     24  C   UNL     1      10.853  14.490  18.412  0.00  0.00    +0.000 C 
ATOM     25  O   UNL     1      10.833  13.418  19.350  0.00  0.00    +0.000 OA
ENDBRANCH  18  25
ENDBRANCH   1  21
TORSDOF 2
ENDMDL
MODEL 6
REMARK VINA RESULT:      -7.4      1.505      1.736
REMARK  Name = 
REMARK  4 active torsions:
REMARK  status: ('A' for Active; 'I' for Inactive)
REMARK    1  A    between atoms: C_1  and  O_2
REMARK    2  A    between atoms: O_2  and  C_3
REMARK    3  A    between atoms: C_6  and  C_7
REMARK    4  A    between atoms: C_11  and  C_12
REMARK                            x       y       z     vdW  Elec       q    Type
REMARK                         _______ _______ _______ _____ _____    ______ ____
ROOT
ATOM      1  C   UNL     1       1.852   7.998  19.529  0.00  0.00    +0.000 A 
ATOM      2  C   UNL     1       2.070   8.949  18.538  0.00  0.00    +0.000 A 
ATOM      3  C   UNL     1       1.237  10.070  18.560  0.00  0.00    +0.000 A 
ATOM      4  C   UNL     1       0.093  10.032  19.326  0.00  0.00    +0.000 A 
ATOM      5  C   UNL     1       0.298   9.431  20.538  0.00  0.00    +0.000 A 
ATOM      6  C   UNL     1       0.298  10.265  21.800  0.00  0.00    +0.000 C 
ATOM      7  N   UNL     1       1.079   8.334  20.598  0.00  0.00    +0.000 NA
ATOM      8  C   UNL     1      -0.893  11.082  19.106  0.00  0.00    +0.000 C 
ATOM      9  O   UNL     1      -2.067  10.827  18.897  0.00  0.00    +0.000 OA
ATOM     10  C   UNL     1      -0.371  12.436  19.220  0.00  0.00    +0.000 A 
ATOM     11  C   UNL     1      -1.164  13.390  19.854  0.00  0.00    +0.000 A 
ATOM     12  C   UNL     1      -0.537  14.481  20.434  0.00  0.00    +0.000 A 
ATOM     13  C   UNL     1       0.868  14.594  20.342  0.00  0.00    +0.000 A 
ATOM     14  C   UNL     1       1.638  13.677  19.601  0.00  0.00    +0.000 A 
ATOM     15  C   UNL     1       1.004  12.582  19.010  0.00  0.00    +0.000 A 
ATOM     16  C   UNL     1       1.759  11.459  18.333  0.00  0.00    +0.000 C 
ATOM     17  O   UNL     1       2.816  11.654  17.752  0.00  0.00    +0.000 OA
ENDROOT
BRANCH   1  21
ATOM     18  C   UNL     1       3.350   3.946  19.766  0.00  0.00    +0.000 A 
ATOM     19  C   UNL     1       3.880   4.833  18.826  0.00  0.00    +0.000 A 
ATOM     20  C   UNL     1       3.435   6.165  18.752  0.00  0.00    +0.000 A 
ATOM     21  C   UNL     1       2.433   6.640  19.611  0.00  0.00    +0.000 A 
ATOM     22  C   UNL     1       1.904   5.710  20.536  0.00  0.00    +0.000 A 
ATOM     23  C   UNL     1       2.346   4.387  20.615  0.00  0.00    +0.000 A 
BRANCH  18  25
ATOM     24  C   UNL     1       3.417   1.866  18.650  0.00  0.00    +0.000 C 
ATOM     25  O   UNL     1       3.852   2.674  19.740  0.00  0.00    +0.000 OA
ENDBRANCH  18  25
ENDBRANCH   1  21
TORSDOF 2
ENDMDL
MODEL 7
REMARK VINA RESULT:      -7.4      6.698      8.169
REMARK  Name = 
REMARK  4 active torsions:
REMARK  status: ('A' for Active; 'I' for Inactive)
REMARK    1  A    between atoms: C_1  and  O_2
REMARK    2  A    between atoms: O_2  and  C_3
REMARK    3  A    between atoms: C_6  and  C_7
REMARK    4  A    between atoms: C_11  and  C_12
REMARK                            x       y       z     vdW  Elec       q    Type
REMARK                         _______ _______ _______ _____ _____    ______ ____
ROOT
ATOM      1  C   UNL     1       8.589   9.662  18.386  0.00  0.00    +0.000 A 
ATOM      2  C   UNL     1       9.457  10.085  19.386  0.00  0.00    +0.000 A 
ATOM      3  C   UNL     1       9.983  11.372  19.247  0.00  0.00    +0.000 A 
ATOM      4  C   UNL     1       9.872  12.006  18.031  0.00  0.00    +0.000 A 
ATOM      5  C   UNL     1       8.650  11.808  17.448  0.00  0.00    +0.000 A 
ATOM      6  C   UNL     1       7.661  12.950  17.366  0.00  0.00    +0.000 C 
ATOM      7  N   UNL     1       8.082  10.587  17.526  0.00  0.00    +0.000 NA
ATOM      8  C   UNL     1      10.672  13.208  17.828  0.00  0.00    +0.000 C 
ATOM      9  O   UNL     1      11.392  13.343  16.854  0.00  0.00    +0.000 OA
ATOM     10  C   UNL     1      10.487  14.236  18.842  0.00  0.00    +0.000 A 
ATOM     11  C   UNL     1      10.443  15.564  18.425  0.00  0.00    +0.000 A 
ATOM     12  C   UNL     1       9.771  16.478  19.220  0.00  0.00    +0.000 A 
ATOM     13  C   UNL     1       9.181  16.036  20.425  0.00  0.00    +0.000 A 
ATOM     14  C   UNL     1       9.333  14.713  20.883  0.00  0.00    +0.000 A 
ATOM     15  C   UNL     1      10.017  13.795  20.083  0.00  0.00    +0.000 A 
ATOM     16  C   UNL     1      10.096  12.319  20.408  0.00  0.00    +0.000 C 
ATOM     17  O   UNL     1      10.109  11.913  21.560  0.00  0.00    +0.000 OA
ENDROOT
BRANCH   1  21
ATOM     18  C   UNL     1       7.013   5.654  17.972  0.00  0.00    +0.000 A 
ATOM     19  C   UNL     1       6.606   6.659  17.092  0.00  0.00    +0.000 A 
ATOM     20  C   UNL     1       7.130   7.961  17.183  0.00  0.00    +0.000 A 
ATOM     21  C   UNL     1       8.067   8.295  18.172  0.00  0.00    +0.000 A 
ATOM     22  C   UNL     1       8.440   7.259  19.060  0.00  0.00    +0.000 A 
ATOM     23  C   UNL     1       7.925   5.963  18.970  0.00  0.00    +0.000 A 
BRANCH  18  25
ATOM     24  C   UNL     1       5.185   4.241  18.462  0.00  0.00    +0.000 C 
ATOM     25  O   UNL     1       6.430   4.430  17.795  0.00  0.00    +0.000 OA
ENDBRANCH  18  25
ENDBRANCH   1  21
TORSDOF 2
ENDMDL
MODEL 8
REMARK VINA RESULT:      -7.3      6.729      8.207
REMARK  Name = 
REMARK  4 active torsions:
REMARK  status: ('A' for Active; 'I' for Inactive)
REMARK    1  A    between atoms: C_1  and  O_2
REMARK    2  A    between atoms: O_2  and  C_3
REMARK    3  A    between atoms: C_6  and  C_7
REMARK    4  A    between atoms: C_11  and  C_12
REMARK                            x       y       z     vdW  Elec       q    Type
REMARK                         _______ _______ _______ _____ _____    ______ ____
ROOT
ATOM      1  C   UNL     1       8.579   9.608  18.417  0.00  0.00    +0.000 A 
ATOM      2  C   UNL     1       9.454  10.027  19.413  0.00  0.00    +0.000 A 
ATOM      3  C   UNL     1      10.020  11.294  19.248  0.00  0.00    +0.000 A 
ATOM      4  C   UNL     1       9.936  11.902  18.016  0.00  0.00    +0.000 A 
ATOM      5  C   UNL     1       8.712  11.727  17.430  0.00  0.00    +0.000 A 
ATOM      6  C   UNL     1       7.759  12.898  17.315  0.00  0.00    +0.000 C 
ATOM      7  N   UNL     1       8.106  10.528  17.533  0.00  0.00    +0.000 NA
ATOM      8  C   UNL     1      10.774  13.074  17.791  0.00  0.00    +0.000 C 
ATOM      9  O   UNL     1      11.503  13.164  16.818  0.00  0.00    +0.000 OA
ATOM     10  C   UNL     1      10.615  14.130  18.780  0.00  0.00    +0.000 A 
ATOM     11  C   UNL     1      10.614  15.449  18.331  0.00  0.00    +0.000 A 
ATOM     12  C   UNL     1       9.966  16.402  19.100  0.00  0.00    +0.000 A 
ATOM     13  C   UNL     1       9.356  16.006  20.312  0.00  0.00    +0.000 A 
ATOM     14  C   UNL     1       9.464  14.690  20.801  0.00  0.00    +0.000 A 
ATOM     15  C   UNL     1      10.125  13.733  20.027  0.00  0.00    +0.000 A 
ATOM     16  C   UNL     1      10.156  12.263  20.386  0.00  0.00    +0.000 C 
ATOM     17  O   UNL     1      10.149  11.884  21.548  0.00  0.00    +0.000 OA
ENDROOT
BRANCH   1  21
ATOM     18  C   UNL     1       6.981   5.658  17.665  0.00  0.00    +0.000 A 
ATOM     19  C   UNL     1       7.880   5.859  18.714  0.00  0.00    +0.000 A 
ATOM     20  C   UNL     1       8.387   7.139  19.001  0.00  0.00    +0.000 A 
ATOM     21  C   UNL     1       8.016   8.252  18.232  0.00  0.00    +0.000 A 
ATOM     22  C   UNL     1       7.121   8.008  17.164  0.00  0.00    +0.000 A 
ATOM     23  C   UNL     1       6.612   6.739  16.878  0.00  0.00    +0.000 A 
BRANCH  18  25
ATOM     24  C   UNL     1       6.118   4.060  16.154  0.00  0.00    +0.000 C 
ATOM     25  O   UNL     1       6.563   4.370  17.472  0.00  0.00    +0.000 OA
ENDBRANCH  18  25
ENDBRANCH   1  21
TORSDOF 2
ENDMDL
MODEL 9
REMARK VINA RESULT:      -7.2      1.994      3.412
REMARK  Name = 
REMARK  4 active torsions:
REMARK  status: ('A' for Active; 'I' for Inactive)
REMARK    1  A    between atoms: C_1  and  O_2
REMARK    2  A    between atoms: O_2  and  C_3
REMARK    3  A    between atoms: C_6  and  C_7
REMARK    4  A    between atoms: C_11  and  C_12
REMARK                            x       y       z     vdW  Elec       q    Type
REMARK                         _______ _______ _______ _____ _____    ______ ____
ROOT
ATOM      1  C   UNL     1       1.058   9.371  19.781  0.00  0.00    +0.000 A 
ATOM      2  C   UNL     1       1.028   9.905  21.064  0.00  0.00    +0.000 A 
ATOM      3  C   UNL     1       0.360  11.123  21.214  0.00  0.00    +0.000 A 
ATOM      4  C   UNL     1       0.054  11.854  20.088  0.00  0.00    +0.000 A 
ATOM      5  C   UNL     1      -0.388  11.067  19.060  0.00  0.00    +0.000 A 
ATOM      6  C   UNL     1      -1.845  11.108  18.653  0.00  0.00    +0.000 C 
ATOM      7  N   UNL     1       0.216   9.882  18.841  0.00  0.00    +0.000 NA
ATOM      8  C   UNL     1      -0.373  13.234  20.284  0.00  0.00    +0.000 C 
ATOM      9  O   UNL     1       0.148  14.158  19.683  0.00  0.00    +0.000 OA
ATOM     10  C   UNL     1      -1.497  13.396  21.195  0.00  0.00    +0.000 A 
ATOM     11  C   UNL     1      -2.474  14.333  20.865  0.00  0.00    +0.000 A 
ATOM     12  C   UNL     1      -3.749  14.156  21.377  0.00  0.00    +0.000 A 
ATOM     13  C   UNL     1      -4.002  13.054  22.224  0.00  0.00    +0.000 A 
ATOM     14  C   UNL     1      -2.974  12.183  22.633  0.00  0.00    +0.000 A 
ATOM     15  C   UNL     1      -1.687  12.368  22.122  0.00  0.00    +0.000 A 
ATOM     16  C   UNL     1      -0.555  11.395  22.372  0.00  0.00    +0.000 C 
ATOM     17  O   UNL     1      -0.471  10.759  23.412  0.00  0.00    +0.000 OA
ENDROOT
BRANCH   1  21
ATOM     18  C   UNL     1       3.575   6.160  18.338  0.00  0.00    +0.000 A 
ATOM     19  C   UNL     1       2.963   6.060  19.590  0.00  0.00    +0.000 A 
ATOM     20  C   UNL     1       2.112   7.073  20.067  0.00  0.00    +0.000 A 
ATOM     21  C   UNL     1       1.864   8.225  19.305  0.00  0.00    +0.000 A 
ATOM     22  C   UNL     1       2.517   8.304  18.053  0.00  0.00    +0.000 A 
ATOM     23  C   UNL     1       3.359   7.297  17.574  0.00  0.00    +0.000 A 
BRANCH  18  25
ATOM     24  C   UNL     1       5.613   5.025  18.705  0.00  0.00    +0.000 C 
ATOM     25  O   UNL     1       4.388   5.120  17.984  0.00  0.00    +0.000 OA
ENDBRANCH  18  25
ENDBRANCH   1  21
TORSDOF 2
ENDMDL
