MODEL 1
REMARK VINA RESULT:      -7.3      0.000      0.000
REMARK  Name = 
REMARK  1 active torsions:
REMARK  status: ('A' for Active; 'I' for Inactive)
REMARK    1  A    between atoms: C_2  and  C_11
REMARK                            x       y       z     vdW  Elec       q    Type
REMARK                         _______ _______ _______ _____ _____    ______ ____
ROOT
ATOM      1  O   UNL     1       4.086   5.794  16.880  0.00  0.00    +0.000 OA
ATOM      2  C   UNL     1       4.807   4.831  16.633  0.00  0.00    +0.000 C 
ATOM      3  N   UNL     1       4.730   3.609  17.265  0.00  0.00    +0.000 N 
ATOM      4  C   UNL     1       3.841   3.329  18.300  0.00  0.00    +0.000 A 
ATOM      5  C   UNL     1       2.532   3.802  18.286  0.00  0.00    +0.000 A 
ATOM      6  C   UNL     1       1.709   3.548  19.380  0.00  0.00    +0.000 A 
ATOM      7  C   UNL     1       2.230   2.857  20.464  0.00  0.00    +0.000 A 
ATOM      8 CL   UNL     1       1.283   2.594  21.870  0.00  0.00    +0.000 Cl
ATOM      9  C   UNL     1       3.534   2.392  20.381  0.00  0.00    +0.000 A 
ATOM     10  N   UNL     1       4.337   2.575  19.302  0.00  0.00    +0.000 NA
ATOM     11  H   UNL     1       5.540   3.002  17.210  0.00  0.00    +0.000 HD
ENDROOT
BRANCH   2  12
ATOM     12  C   UNL     1       5.879   4.946  15.667  0.00  0.00    +0.000 A 
ATOM     13  C   UNL     1       7.091   5.645  15.835  0.00  0.00    +0.000 A 
ATOM     14  N   UNL     1       7.884   5.586  14.764  0.00  0.00    +0.000 NA
ATOM     15  N   UNL     1       7.190   4.846  13.867  0.00  0.00    +0.000 N 
ATOM     16  C   UNL     1       7.564   4.506  12.575  0.00  0.00    +0.000 A 
ATOM     17  C   UNL     1       6.750   3.771  11.806  0.00  0.00    +0.000 A 
ATOM     18  C   UNL     1       5.466   3.372  12.447  0.00  0.00    +0.000 A 
ATOM     19  N   UNL     1       5.086   3.657  13.657  0.00  0.00    +0.000 NA
ATOM     20  C   UNL     1       5.957   4.424  14.388  0.00  0.00    +0.000 A 
ENDBRANCH   2  12
TORSDOF 1
ENDMDL
MODEL 2
REMARK VINA RESULT:      -7.1      4.351      5.557
REMARK  Name = 
REMARK  1 active torsions:
REMARK  status: ('A' for Active; 'I' for Inactive)
REMARK    1  A    between atoms: C_2  and  C_11
REMARK                            x       y       z     vdW  Elec       q    Type
REMARK                         _______ _______ _______ _____ _____    ______ ____
ROOT
ATOM      1  O   UNL     1       1.569   5.283  20.287  0.00  0.00    +0.000 OA
ATOM      2  C   UNL     1       2.319   5.777  19.450  0.00  0.00    +0.000 C 
ATOM      3  N   UNL     1       2.467   7.128  19.226  0.00  0.00    +0.000 N 
ATOM      4  C   UNL     1       1.746   8.107  19.905  0.00  0.00    +0.000 A 
ATOM      5  C   UNL     1       1.474   8.002  21.266  0.00  0.00    +0.000 A 
ATOM      6  C   UNL     1       0.690   8.978  21.877  0.00  0.00    +0.000 A 
ATOM      7  C   UNL     1       0.178  10.008  21.103  0.00  0.00    +0.000 A 
ATOM      8 CL   UNL     1      -0.862  11.185  21.790  0.00  0.00    +0.000 Cl
ATOM      9  C   UNL     1       0.526  10.055  19.761  0.00  0.00    +0.000 A 
ATOM     10  N   UNL     1       1.336   9.150  19.155  0.00  0.00    +0.000 NA
ATOM     11  H   UNL     1       2.862   7.415  18.338  0.00  0.00    +0.000 HD
ENDROOT
BRANCH   2  12
ATOM     12  C   UNL     1       3.077   4.929  18.554  0.00  0.00    +0.000 A 
ATOM     13  C   UNL     1       3.110   3.520  18.555  0.00  0.00    +0.000 A 
ATOM     14  N   UNL     1       3.912   3.013  17.618  0.00  0.00    +0.000 NA
ATOM     15  N   UNL     1       4.428   4.095  16.989  0.00  0.00    +0.000 N 
ATOM     16  C   UNL     1       5.342   4.116  15.946  0.00  0.00    +0.000 A 
ATOM     17  C   UNL     1       5.764   5.282  15.440  0.00  0.00    +0.000 A 
ATOM     18  C   UNL     1       5.181   6.496  16.077  0.00  0.00    +0.000 A 
ATOM     19  N   UNL     1       4.313   6.518  17.044  0.00  0.00    +0.000 NA
ATOM     20  C   UNL     1       3.931   5.292  17.528  0.00  0.00    +0.000 A 
ENDBRANCH   2  12
TORSDOF 1
ENDMDL
MODEL 3
REMARK VINA RESULT:      -7.0      6.010      8.410
REMARK  Name = 
REMARK  1 active torsions:
REMARK  status: ('A' for Active; 'I' for Inactive)
REMARK    1  A    between atoms: C_2  and  C_11
REMARK                            x       y       z     vdW  Elec       q    Type
REMARK                         _______ _______ _______ _____ _____    ______ ____
ROOT
ATOM      1  O   UNL     1       2.225   7.987  19.208  0.00  0.00    +0.000 OA
ATOM      2  C   UNL     1       1.739   7.783  20.316  0.00  0.00    +0.000 C 
ATOM      3  N   UNL     1       1.700   6.557  20.944  0.00  0.00    +0.000 N 
ATOM      4  C   UNL     1       2.179   5.381  20.373  0.00  0.00    +0.000 A 
ATOM      5  C   UNL     1       3.352   5.357  19.625  0.00  0.00    +0.000 A 
ATOM      6  C   UNL     1       3.745   4.166  19.020  0.00  0.00    +0.000 A 
ATOM      7  C   UNL     1       2.939   3.046  19.157  0.00  0.00    +0.000 A 
ATOM      8 CL   UNL     1       3.335   1.580  18.362  0.00  0.00    +0.000 Cl
ATOM      9  C   UNL     1       1.804   3.149  19.948  0.00  0.00    +0.000 A 
ATOM     10  N   UNL     1       1.430   4.281  20.595  0.00  0.00    +0.000 NA
ATOM     11  H   UNL     1       1.027   6.435  21.692  0.00  0.00    +0.000 HD
ENDROOT
BRANCH   2  12
ATOM     12  C   UNL     1       1.081   8.852  21.036  0.00  0.00    +0.000 A 
ATOM     13  C   UNL     1       1.184   9.127  22.415  0.00  0.00    +0.000 A 
ATOM     14  N   UNL     1       0.450  10.172  22.799  0.00  0.00    +0.000 NA
ATOM     15  N   UNL     1      -0.157  10.597  21.665  0.00  0.00    +0.000 N 
ATOM     16  C   UNL     1      -1.051  11.648  21.522  0.00  0.00    +0.000 A 
ATOM     17  C   UNL     1      -1.575  11.931  20.322  0.00  0.00    +0.000 A 
ATOM     18  C   UNL     1      -1.121  11.051  19.210  0.00  0.00    +0.000 A 
ATOM     19  N   UNL     1      -0.276  10.068  19.300  0.00  0.00    +0.000 NA
ATOM     20  C   UNL     1       0.214   9.818  20.558  0.00  0.00    +0.000 A 
ENDBRANCH   2  12
TORSDOF 1
ENDMDL
MODEL 4
REMARK VINA RESULT:      -7.0      6.363      8.830
REMARK  Name = 
REMARK  1 active torsions:
REMARK  status: ('A' for Active; 'I' for Inactive)
REMARK    1  A    between atoms: C_2  and  C_11
REMARK                            x       y       z     vdW  Elec       q    Type
REMARK                         _______ _______ _______ _____ _____    ______ ____
ROOT
ATOM      1  O   UNL     1       1.707   9.365  17.379  0.00  0.00    +0.000 OA
ATOM      2  C   UNL     1       1.536   9.205  18.584  0.00  0.00    +0.000 C 
ATOM      3  N   UNL     1       1.996   8.127  19.308  0.00  0.00    +0.000 N 
ATOM      4  C   UNL     1       2.686   7.057  18.745  0.00  0.00    +0.000 A 
ATOM      5  C   UNL     1       3.639   7.245  17.749  0.00  0.00    +0.000 A 
ATOM      6  C   UNL     1       4.247   6.131  17.175  0.00  0.00    +0.000 A 
ATOM      7  C   UNL     1       3.862   4.867  17.594  0.00  0.00    +0.000 A 
ATOM      8 CL   UNL     1       4.519   3.464  16.859  0.00  0.00    +0.000 Cl
ATOM      9  C   UNL     1       2.930   4.771  18.616  0.00  0.00    +0.000 A 
ATOM     10  N   UNL     1       2.366   5.841  19.232  0.00  0.00    +0.000 NA
ATOM     11  H   UNL     1       1.553   7.940  20.201  0.00  0.00    +0.000 HD
ENDROOT
BRANCH   2  12
ATOM     12  C   UNL     1       0.740  10.148  19.342  0.00  0.00    +0.000 A 
ATOM     13  C   UNL     1       0.306  11.419  18.914  0.00  0.00    +0.000 A 
ATOM     14  N   UNL     1      -0.403  12.070  19.838  0.00  0.00    +0.000 NA
ATOM     15  N   UNL     1      -0.434  11.229  20.899  0.00  0.00    +0.000 N 
ATOM     16  C   UNL     1      -1.030  11.440  22.133  0.00  0.00    +0.000 A 
ATOM     17  C   UNL     1      -0.959  10.504  23.088  0.00  0.00    +0.000 A 
ATOM     18  C   UNL     1      -0.216   9.270  22.709  0.00  0.00    +0.000 A 
ATOM     19  N   UNL     1       0.342   9.028  21.560  0.00  0.00    +0.000 NA
ATOM     20  C   UNL     1       0.247  10.032  20.630  0.00  0.00    +0.000 A 
ENDBRANCH   2  12
TORSDOF 1
ENDMDL
MODEL 5
REMARK VINA RESULT:      -6.9      4.997      6.160
REMARK  Name = 
REMARK  1 active torsions:
REMARK  status: ('A' for Active; 'I' for Inactive)
REMARK    1  A    between atoms: C_2  and  C_11
REMARK                            x       y       z     vdW  Elec       q    Type
REMARK                         _______ _______ _______ _____ _____    ______ ____
ROOT
ATOM      1  O   UNL     1       2.320   9.043  17.677  0.00  0.00    +0.000 OA
ATOM      2  C   UNL     1       2.410   7.995  18.309  0.00  0.00    +0.000 C 
ATOM      3  N   UNL     1       1.840   7.769  19.543  0.00  0.00    +0.000 N 
ATOM      4  C   UNL     1       1.117   8.729  20.247  0.00  0.00    +0.000 A 
ATOM      5  C   UNL     1       0.239   9.597  19.606  0.00  0.00    +0.000 A 
ATOM      6  C   UNL     1      -0.405  10.581  20.353  0.00  0.00    +0.000 A 
ATOM      7  C   UNL     1      -0.127  10.684  21.707  0.00  0.00    +0.000 A 
ATOM      8 CL   UNL     1      -0.827  11.933  22.652  0.00  0.00    +0.000 Cl
ATOM      9  C   UNL     1       0.736   9.757  22.272  0.00  0.00    +0.000 A 
ATOM     10  N   UNL     1       1.330   8.753  21.579  0.00  0.00    +0.000 NA
ATOM     11  H   UNL     1       2.217   7.011  20.101  0.00  0.00    +0.000 HD
ENDROOT
BRANCH   2  12
ATOM     12  C   UNL     1       3.218   6.903  17.807  0.00  0.00    +0.000 A 
ATOM     13  C   UNL     1       4.439   7.010  17.111  0.00  0.00    +0.000 A 
ATOM     14  N   UNL     1       4.949   5.829  16.761  0.00  0.00    +0.000 NA
ATOM     15  N   UNL     1       4.054   4.922  17.219  0.00  0.00    +0.000 N 
ATOM     16  C   UNL     1       4.102   3.542  17.093  0.00  0.00    +0.000 A 
ATOM     17  C   UNL     1       3.122   2.781  17.597  0.00  0.00    +0.000 A 
ATOM     18  C   UNL     1       2.028   3.529  18.277  0.00  0.00    +0.000 A 
ATOM     19  N   UNL     1       1.954   4.818  18.429  0.00  0.00    +0.000 NA
ATOM     20  C   UNL     1       2.981   5.542  17.878  0.00  0.00    +0.000 A 
ENDBRANCH   2  12
TORSDOF 1
ENDMDL
MODEL 6
REMARK VINA RESULT:      -6.9      6.091      8.448
REMARK  Name = 
REMARK  1 active torsions:
REMARK  status: ('A' for Active; 'I' for Inactive)
REMARK    1  A    between atoms: C_2  and  C_11
REMARK                            x       y       z     vdW  Elec       q    Type
REMARK                         _______ _______ _______ _____ _____    ______ ____
ROOT
ATOM      1  O   UNL     1       1.769   6.461  20.775  0.00  0.00    +0.000 OA
ATOM      2  C   UNL     1       1.734   7.534  20.179  0.00  0.00    +0.000 C 
ATOM      3  N   UNL     1       2.268   7.756  18.929  0.00  0.00    +0.000 N 
ATOM      4  C   UNL     1       2.953   6.788  18.198  0.00  0.00    +0.000 A 
ATOM      5  C   UNL     1       2.536   5.461  18.173  0.00  0.00    +0.000 A 
ATOM      6  C   UNL     1       3.300   4.524  17.481  0.00  0.00    +0.000 A 
ATOM      7  C   UNL     1       4.470   4.938  16.863  0.00  0.00    +0.000 A 
ATOM      8 CL   UNL     1       5.489   3.808  16.072  0.00  0.00    +0.000 Cl
ATOM      9  C   UNL     1       4.794   6.286  16.909  0.00  0.00    +0.000 A 
ATOM     10  N   UNL     1       4.036   7.228  17.526  0.00  0.00    +0.000 NA
ATOM     11  H   UNL     1       2.457   8.716  18.664  0.00  0.00    +0.000 HD
ENDROOT
BRANCH   2  12
ATOM     12  C   UNL     1       1.168   8.706  20.812  0.00  0.00    +0.000 A 
ATOM     13  C   UNL     1       1.222   9.033  22.182  0.00  0.00    +0.000 A 
ATOM     14  N   UNL     1       0.597  10.174  22.475  0.00  0.00    +0.000 NA
ATOM     15  N   UNL     1       0.112  10.611  21.289  0.00  0.00    +0.000 N 
ATOM     16  C   UNL     1      -0.640  11.751  21.046  0.00  0.00    +0.000 A 
ATOM     17  C   UNL     1      -1.056  12.036  19.805  0.00  0.00    +0.000 A 
ATOM     18  C   UNL     1      -0.647  11.056  18.761  0.00  0.00    +0.000 A 
ATOM     19  N   UNL     1       0.069   9.986  18.945  0.00  0.00    +0.000 NA
ATOM     20  C   UNL     1       0.451   9.742  20.240  0.00  0.00    +0.000 A 
ENDBRANCH   2  12
TORSDOF 1
ENDMDL
MODEL 7
REMARK VINA RESULT:      -6.9      3.286      7.032
REMARK  Name = 
REMARK  1 active torsions:
REMARK  status: ('A' for Active; 'I' for Inactive)
REMARK    1  A    between atoms: C_2  and  C_11
REMARK                            x       y       z     vdW  Elec       q    Type
REMARK                         _______ _______ _______ _____ _____    ______ ____
ROOT
ATOM      1  O   UNL     1       5.011   6.828  17.432  0.00  0.00    +0.000 OA
ATOM      2  C   UNL     1       4.536   5.726  17.691  0.00  0.00    +0.000 C 
ATOM      3  N   UNL     1       4.752   4.584  16.952  0.00  0.00    +0.000 N 
ATOM      4  C   UNL     1       5.513   4.550  15.786  0.00  0.00    +0.000 A 
ATOM      5  C   UNL     1       6.692   5.278  15.663  0.00  0.00    +0.000 A 
ATOM      6  C   UNL     1       7.375   5.259  14.449  0.00  0.00    +0.000 A 
ATOM      7  C   UNL     1       6.841   4.540  13.390  0.00  0.00    +0.000 A 
ATOM      8 CL   UNL     1       7.598   4.556  11.852  0.00  0.00    +0.000 Cl
ATOM      9  C   UNL     1       5.679   3.815  13.610  0.00  0.00    +0.000 A 
ATOM     10  N   UNL     1       5.027   3.769  14.799  0.00  0.00    +0.000 NA
ATOM     11  H   UNL     1       4.092   3.822  17.064  0.00  0.00    +0.000 HD
ENDROOT
BRANCH   2  12
ATOM     12  C   UNL     1       3.619   5.565  18.800  0.00  0.00    +0.000 A 
ATOM     13  C   UNL     1       2.747   6.542  19.320  0.00  0.00    +0.000 A 
ATOM     14  N   UNL     1       2.028   6.108  20.356  0.00  0.00    +0.000 NA
ATOM     15  N   UNL     1       2.432   4.828  20.537  0.00  0.00    +0.000 N 
ATOM     16  C   UNL     1       2.006   3.931  21.506  0.00  0.00    +0.000 A 
ATOM     17  C   UNL     1       2.518   2.695  21.556  0.00  0.00    +0.000 A 
ATOM     18  C   UNL     1       3.538   2.391  20.514  0.00  0.00    +0.000 A 
ATOM     19  N   UNL     1       3.952   3.196  19.582  0.00  0.00    +0.000 NA
ATOM     20  C   UNL     1       3.400   4.453  19.593  0.00  0.00    +0.000 A 
ENDBRANCH   2  12
TORSDOF 1
ENDMDL
MODEL 8
REMARK VINA RESULT:      -6.8      4.815      6.478
REMARK  Name = 
REMARK  1 active torsions:
REMARK  status: ('A' for Active; 'I' for Inactive)
REMARK    1  A    between atoms: C_2  and  C_11
REMARK                            x       y       z     vdW  Elec       q    Type
REMARK                         _______ _______ _______ _____ _____    ______ ____
ROOT
ATOM      1  O   UNL     1       3.657   7.681  17.804  0.00  0.00    +0.000 OA
ATOM      2  C   UNL     1       3.171   6.919  18.634  0.00  0.00    +0.000 C 
ATOM      3  N   UNL     1       2.150   7.246  19.499  0.00  0.00    +0.000 N 
ATOM      4  C   UNL     1       1.565   8.508  19.562  0.00  0.00    +0.000 A 
ATOM      5  C   UNL     1       1.307   9.251  18.414  0.00  0.00    +0.000 A 
ATOM      6  C   UNL     1       0.785  10.536  18.543  0.00  0.00    +0.000 A 
ATOM      7  C   UNL     1       0.565  11.046  19.814  0.00  0.00    +0.000 A 
ATOM      8 CL   UNL     1       0.004  12.653  20.027  0.00  0.00    +0.000 Cl
ATOM      9  C   UNL     1       0.818  10.225  20.902  0.00  0.00    +0.000 A 
ATOM     10  N   UNL     1       1.272   8.950  20.802  0.00  0.00    +0.000 NA
ATOM     11  H   UNL     1       2.034   6.670  20.326  0.00  0.00    +0.000 HD
ENDROOT
BRANCH   2  12
ATOM     12  C   UNL     1       3.714   5.589  18.815  0.00  0.00    +0.000 A 
ATOM     13  C   UNL     1       5.056   5.257  19.088  0.00  0.00    +0.000 A 
ATOM     14  N   UNL     1       5.263   3.943  19.190  0.00  0.00    +0.000 NA
ATOM     15  N   UNL     1       4.046   3.390  18.974  0.00  0.00    +0.000 N 
ATOM     16  C   UNL     1       3.718   2.042  18.948  0.00  0.00    +0.000 A 
ATOM     17  C   UNL     1       2.458   1.657  18.706  0.00  0.00    +0.000 A 
ATOM     18  C   UNL     1       1.490   2.767  18.482  0.00  0.00    +0.000 A 
ATOM     19  N   UNL     1       1.754   4.039  18.513  0.00  0.00    +0.000 NA
ATOM     20  C   UNL     1       3.065   4.368  18.751  0.00  0.00    +0.000 A 
ENDBRANCH   2  12
TORSDOF 1
ENDMDL
MODEL 9
REMARK VINA RESULT:      -6.8      4.580      5.736
REMARK  Name = 
REMARK  1 active torsions:
REMARK  status: ('A' for Active; 'I' for Inactive)
REMARK    1  A    between atoms: C_2  and  C_11
REMARK                            x       y       z     vdW  Elec       q    Type
REMARK                         _______ _______ _______ _____ _____    ______ ____
ROOT
ATOM      1  O   UNL     1       1.804   5.868  20.298  0.00  0.00    +0.000 OA
ATOM      2  C   UNL     1       2.660   6.306  19.535  0.00  0.00    +0.000 C 
ATOM      3  N   UNL     1       2.680   7.588  19.029  0.00  0.00    +0.000 N 
ATOM      4  C   UNL     1       1.699   8.540  19.296  0.00  0.00    +0.000 A 
ATOM      5  C   UNL     1       1.131   8.668  20.560  0.00  0.00    +0.000 A 
ATOM      6  C   UNL     1       0.105   9.591  20.750  0.00  0.00    +0.000 A 
ATOM      7  C   UNL     1      -0.339  10.333  19.666  0.00  0.00    +0.000 A 
ATOM      8 CL   UNL     1      -1.655  11.419  19.829  0.00  0.00    +0.000 Cl
ATOM      9  C   UNL     1       0.306  10.166  18.449  0.00  0.00    +0.000 A 
ATOM     10  N   UNL     1       1.346   9.316  18.252  0.00  0.00    +0.000 NA
ATOM     11  H   UNL     1       3.232   7.753  18.195  0.00  0.00    +0.000 HD
ENDROOT
BRANCH   2  12
ATOM     12  C   UNL     1       3.710   5.443  19.038  0.00  0.00    +0.000 A 
ATOM     13  C   UNL     1       4.231   4.299  19.675  0.00  0.00    +0.000 A 
ATOM     14  N   UNL     1       5.207   3.710  18.981  0.00  0.00    +0.000 NA
ATOM     15  N   UNL     1       5.346   4.475  17.872  0.00  0.00    +0.000 N 
ATOM     16  C   UNL     1       6.247   4.307  16.832  0.00  0.00    +0.000 A 
ATOM     17  C   UNL     1       6.263   5.167  15.805  0.00  0.00    +0.000 A 
ATOM     18  C   UNL     1       5.262   6.267  15.886  0.00  0.00    +0.000 A 
ATOM     19  N   UNL     1       4.392   6.449  16.835  0.00  0.00    +0.000 NA
ATOM     20  C   UNL     1       4.436   5.544  17.864  0.00  0.00    +0.000 A 
ENDBRANCH   2  12
TORSDOF 1
ENDMDL
