MODEL 1
REMARK VINA RESULT:      -5.8      0.000      0.000
REMARK  Name = 
REMARK  2 active torsions:
REMARK  status: ('A' for Active; 'I' for Inactive)
REMARK    1  A    between atoms: C_2  and  C_3
REMARK    2  A    between atoms: C_3  and  C_4
REMARK                            x       y       z     vdW  Elec       q    Type
REMARK                         _______ _______ _______ _____ _____    ______ ____
ROOT
ATOM      1  C   UNL     1       7.107   5.708  17.511  0.00  0.00    +0.000 C 
ATOM      2  C   UNL     1       6.063   6.397  16.627  0.00  0.00    +0.000 C 
ATOM      3  C   UNL     1       5.459   5.503  15.535  0.00  0.00    +0.000 C 
ATOM      4  C   UNL     1       4.948   4.134  16.002  0.00  0.00    +0.000 C 
ATOM      5  C   UNL     1       4.336   4.205  17.396  0.00  0.00    +0.000 C 
ATOM      6  C   UNL     1       5.417   4.090  18.460  0.00  0.00    +0.000 C 
ATOM      7  N   UNL     1       5.224   3.146  19.503  0.00  0.00    +0.000 N 
ATOM      8  N   UNL     1       6.553   4.718  18.433  0.00  0.00    +0.000 NA
ATOM      9  H   UNL     1       4.359   2.592  19.568  0.00  0.00    +0.000 HD
ATOM     10  H   UNL     1       5.947   3.015  20.226  0.00  0.00    +0.000 HD
ENDROOT
BRANCH   1  11
ATOM     11  C   UNL     1       7.838   6.769  18.354  0.00  0.00    +0.000 C 
BRANCH  11  13
ATOM     12  C   UNL     1       8.386   9.191  18.189  0.00  0.00    +0.000 C 
ATOM     13  C   UNL     1       7.819   8.106  17.657  0.00  0.00    +0.000 C 
ENDBRANCH  11  13
ENDBRANCH   1  11
TORSDOF 2
ENDMDL
MODEL 2
REMARK VINA RESULT:      -5.7      1.897      2.685
REMARK  Name = 
REMARK  2 active torsions:
REMARK  status: ('A' for Active; 'I' for Inactive)
REMARK    1  A    between atoms: C_2  and  C_3
REMARK    2  A    between atoms: C_3  and  C_4
REMARK                            x       y       z     vdW  Elec       q    Type
REMARK                         _______ _______ _______ _____ _____    ______ ____
ROOT
ATOM      1  C   UNL     1       6.765   6.493  17.493  0.00  0.00    +0.000 C 
ATOM      2  C   UNL     1       6.369   5.263  18.317  0.00  0.00    +0.000 C 
ATOM      3  C   UNL     1       5.045   4.611  17.897  0.00  0.00    +0.000 C 
ATOM      4  C   UNL     1       4.888   4.327  16.398  0.00  0.00    +0.000 C 
ATOM      5  C   UNL     1       6.209   3.917  15.759  0.00  0.00    +0.000 C 
ATOM      6  C   UNL     1       7.020   5.146  15.374  0.00  0.00    +0.000 C 
ATOM      7  N   UNL     1       7.541   5.209  14.055  0.00  0.00    +0.000 N 
ATOM      8  N   UNL     1       7.187   6.190  16.127  0.00  0.00    +0.000 NA
ATOM      9  H   UNL     1       7.420   4.428  13.394  0.00  0.00    +0.000 HD
ATOM     10  H   UNL     1       8.068   6.038  13.744  0.00  0.00    +0.000 HD
ENDROOT
BRANCH   1  11
ATOM     11  C   UNL     1       7.933   7.215  18.189  0.00  0.00    +0.000 C 
BRANCH  11  13
ATOM     12  C   UNL     1       8.697   9.568  18.466  0.00  0.00    +0.000 C 
ATOM     13  C   UNL     1       7.962   8.672  17.801  0.00  0.00    +0.000 C 
ENDBRANCH  11  13
ENDBRANCH   1  11
TORSDOF 2
ENDMDL
MODEL 3
REMARK VINA RESULT:      -5.5      2.413      3.576
REMARK  Name = 
REMARK  2 active torsions:
REMARK  status: ('A' for Active; 'I' for Inactive)
REMARK    1  A    between atoms: C_2  and  C_3
REMARK    2  A    between atoms: C_3  and  C_4
REMARK                            x       y       z     vdW  Elec       q    Type
REMARK                         _______ _______ _______ _____ _____    ______ ____
ROOT
ATOM      1  C   UNL     1       3.922   4.758  17.614  0.00  0.00    +0.000 C 
ATOM      2  C   UNL     1       2.497   5.139  18.032  0.00  0.00    +0.000 C 
ATOM      3  C   UNL     1       1.445   4.050  17.781  0.00  0.00    +0.000 C 
ATOM      4  C   UNL     1       1.800   2.650  18.297  0.00  0.00    +0.000 C 
ATOM      5  C   UNL     1       2.581   2.709  19.603  0.00  0.00    +0.000 C 
ATOM      6  C   UNL     1       4.064   2.911  19.330  0.00  0.00    +0.000 C 
ATOM      7  N   UNL     1       4.982   2.039  19.973  0.00  0.00    +0.000 N 
ATOM      8  N   UNL     1       4.551   3.756  18.473  0.00  0.00    +0.000 NA
ATOM      9  H   UNL     1       4.661   1.325  20.642  0.00  0.00    +0.000 HD
ATOM     10  H   UNL     1       5.993   2.123  19.790  0.00  0.00    +0.000 HD
ENDROOT
BRANCH   1  11
ATOM     11  C   UNL     1       4.811   6.015  17.639  0.00  0.00    +0.000 C 
BRANCH  11  13
ATOM     12  C   UNL     1       5.454   5.627  15.266  0.00  0.00    +0.000 C 
ATOM     13  C   UNL     1       5.112   6.479  16.236  0.00  0.00    +0.000 C 
ENDBRANCH  11  13
ENDBRANCH   1  11
TORSDOF 2
ENDMDL
MODEL 4
REMARK VINA RESULT:      -5.5      2.250      4.530
REMARK  Name = 
REMARK  2 active torsions:
REMARK  status: ('A' for Active; 'I' for Inactive)
REMARK    1  A    between atoms: C_2  and  C_3
REMARK    2  A    between atoms: C_3  and  C_4
REMARK                            x       y       z     vdW  Elec       q    Type
REMARK                         _______ _______ _______ _____ _____    ______ ____
ROOT
ATOM      1  C   UNL     1       6.709   4.513  15.489  0.00  0.00    +0.000 C 
ATOM      2  C   UNL     1       5.226   4.285  15.804  0.00  0.00    +0.000 C 
ATOM      3  C   UNL     1       4.928   3.968  17.276  0.00  0.00    +0.000 C 
ATOM      4  C   UNL     1       5.555   4.919  18.303  0.00  0.00    +0.000 C 
ATOM      5  C   UNL     1       5.594   6.354  17.795  0.00  0.00    +0.000 C 
ATOM      6  C   UNL     1       6.825   6.582  16.931  0.00  0.00    +0.000 C 
ATOM      7  N   UNL     1       7.638   7.710  17.219  0.00  0.00    +0.000 N 
ATOM      8  N   UNL     1       7.248   5.767  16.013  0.00  0.00    +0.000 NA
ATOM      9  H   UNL     1       7.378   8.382  17.954  0.00  0.00    +0.000 HD
ATOM     10  H   UNL     1       8.498   7.882  16.677  0.00  0.00    +0.000 HD
ENDROOT
BRANCH   1  11
ATOM     11  C   UNL     1       6.906   4.527  13.962  0.00  0.00    +0.000 C 
BRANCH  11  13
ATOM     12  C   UNL     1       5.923   3.180  12.114  0.00  0.00    +0.000 C 
ATOM     13  C   UNL     1       5.764   3.823  13.274  0.00  0.00    +0.000 C 
ENDBRANCH  11  13
ENDBRANCH   1  11
TORSDOF 2
ENDMDL
MODEL 5
REMARK VINA RESULT:      -5.5      2.903      4.532
REMARK  Name = 
REMARK  2 active torsions:
REMARK  status: ('A' for Active; 'I' for Inactive)
REMARK    1  A    between atoms: C_2  and  C_3
REMARK    2  A    between atoms: C_3  and  C_4
REMARK                            x       y       z     vdW  Elec       q    Type
REMARK                         _______ _______ _______ _____ _____    ______ ____
ROOT
ATOM      1  C   UNL     1       2.805   4.779  18.743  0.00  0.00    +0.000 C 
ATOM      2  C   UNL     1       1.985   5.208  19.965  0.00  0.00    +0.000 C 
ATOM      3  C   UNL     1       0.937   4.185  20.423  0.00  0.00    +0.000 C 
ATOM      4  C   UNL     1       1.439   2.746  20.592  0.00  0.00    +0.000 C 
ATOM      5  C   UNL     1       2.868   2.704  21.119  0.00  0.00    +0.000 C 
ATOM      6  C   UNL     1       3.863   2.847  19.976  0.00  0.00    +0.000 C 
ATOM      7  N   UNL     1       4.919   1.901  19.894  0.00  0.00    +0.000 N 
ATOM      8  N   UNL     1       3.763   3.707  19.009  0.00  0.00    +0.000 NA
ATOM      9  H   UNL     1       5.040   1.172  20.611  0.00  0.00    +0.000 HD
ATOM     10  H   UNL     1       5.595   1.944  19.118  0.00  0.00    +0.000 HD
ENDROOT
BRANCH   1  11
ATOM     11  C   UNL     1       3.597   5.988  18.214  0.00  0.00    +0.000 C 
BRANCH  11  13
ATOM     12  C   UNL     1       5.064   6.139  16.209  0.00  0.00    +0.000 C 
ATOM     13  C   UNL     1       4.750   5.532  17.356  0.00  0.00    +0.000 C 
ENDBRANCH  11  13
ENDBRANCH   1  11
TORSDOF 2
ENDMDL
MODEL 6
REMARK VINA RESULT:      -5.4      4.147      4.668
REMARK  Name = 
REMARK  2 active torsions:
REMARK  status: ('A' for Active; 'I' for Inactive)
REMARK    1  A    between atoms: C_2  and  C_3
REMARK    2  A    between atoms: C_3  and  C_4
REMARK                            x       y       z     vdW  Elec       q    Type
REMARK                         _______ _______ _______ _____ _____    ______ ____
ROOT
ATOM      1  C   UNL     1       2.868   5.123  19.135  0.00  0.00    +0.000 C 
ATOM      2  C   UNL     1       2.022   4.634  17.955  0.00  0.00    +0.000 C 
ATOM      3  C   UNL     1       2.420   3.255  17.412  0.00  0.00    +0.000 C 
ATOM      4  C   UNL     1       2.572   2.145  18.459  0.00  0.00    +0.000 C 
ATOM      5  C   UNL     1       1.558   2.289  19.587  0.00  0.00    +0.000 C 
ATOM      6  C   UNL     1       2.067   3.262  20.641  0.00  0.00    +0.000 C 
ATOM      7  N   UNL     1       2.034   2.846  21.998  0.00  0.00    +0.000 N 
ATOM      8  N   UNL     1       2.625   4.406  20.385  0.00  0.00    +0.000 NA
ATOM      9  H   UNL     1       1.633   1.938  22.269  0.00  0.00    +0.000 HD
ATOM     10  H   UNL     1       2.398   3.463  22.739  0.00  0.00    +0.000 HD
ENDROOT
BRANCH   1  11
ATOM     11  C   UNL     1       2.572   6.612  19.390  0.00  0.00    +0.000 C 
BRANCH  11  13
ATOM     12  C   UNL     1       2.062   8.502  17.852  0.00  0.00    +0.000 C 
ATOM     13  C   UNL     1       2.790   7.418  18.134  0.00  0.00    +0.000 C 
ENDBRANCH  11  13
ENDBRANCH   1  11
TORSDOF 2
ENDMDL
MODEL 7
REMARK VINA RESULT:      -5.4      3.892      4.905
REMARK  Name = 
REMARK  2 active torsions:
REMARK  status: ('A' for Active; 'I' for Inactive)
REMARK    1  A    between atoms: C_2  and  C_3
REMARK    2  A    between atoms: C_3  and  C_4
REMARK                            x       y       z     vdW  Elec       q    Type
REMARK                         _______ _______ _______ _____ _____    ______ ____
ROOT
ATOM      1  C   UNL     1       2.253   5.394  19.302  0.00  0.00    +0.000 C 
ATOM      2  C   UNL     1       1.503   4.868  20.531  0.00  0.00    +0.000 C 
ATOM      3  C   UNL     1       0.944   3.447  20.379  0.00  0.00    +0.000 C 
ATOM      4  C   UNL     1       1.933   2.394  19.862  0.00  0.00    +0.000 C 
ATOM      5  C   UNL     1       3.343   2.638  20.384  0.00  0.00    +0.000 C 
ATOM      6  C   UNL     1       4.068   3.651  19.510  0.00  0.00    +0.000 C 
ATOM      7  N   UNL     1       5.366   3.316  19.043  0.00  0.00    +0.000 N 
ATOM      8  N   UNL     1       3.550   4.759  19.074  0.00  0.00    +0.000 NA
ATOM      9  H   UNL     1       5.826   2.439  19.326  0.00  0.00    +0.000 HD
ATOM     10  H   UNL     1       5.878   3.961  18.423  0.00  0.00    +0.000 HD
ENDROOT
BRANCH   1  11
ATOM     11  C   UNL     1       2.500   6.905  19.467  0.00  0.00    +0.000 C 
BRANCH  11  13
ATOM     12  C   UNL     1       1.956   8.714  17.846  0.00  0.00    +0.000 C 
ATOM     13  C   UNL     1       2.599   7.575  18.119  0.00  0.00    +0.000 C 
ENDBRANCH  11  13
ENDBRANCH   1  11
TORSDOF 2
ENDMDL
MODEL 8
REMARK VINA RESULT:      -5.4      1.574      4.408
REMARK  Name = 
REMARK  2 active torsions:
REMARK  status: ('A' for Active; 'I' for Inactive)
REMARK    1  A    between atoms: C_2  and  C_3
REMARK    2  A    between atoms: C_3  and  C_4
REMARK                            x       y       z     vdW  Elec       q    Type
REMARK                         _______ _______ _______ _____ _____    ______ ____
ROOT
ATOM      1  C   UNL     1       4.820   5.015  18.791  0.00  0.00    +0.000 C 
ATOM      2  C   UNL     1       4.945   5.105  17.266  0.00  0.00    +0.000 C 
ATOM      3  C   UNL     1       5.297   6.502  16.735  0.00  0.00    +0.000 C 
ATOM      4  C   UNL     1       6.487   7.191  17.412  0.00  0.00    +0.000 C 
ATOM      5  C   UNL     1       7.573   6.196  17.799  0.00  0.00    +0.000 C 
ATOM      6  C   UNL     1       7.259   5.561  19.146  0.00  0.00    +0.000 C 
ATOM      7  N   UNL     1       8.285   5.549  20.128  0.00  0.00    +0.000 N 
ATOM      8  N   UNL     1       6.092   5.119  19.503  0.00  0.00    +0.000 NA
ATOM      9  H   UNL     1       9.226   5.911  19.922  0.00  0.00    +0.000 HD
ATOM     10  H   UNL     1       8.103   5.157  21.064  0.00  0.00    +0.000 HD
ENDROOT
BRANCH   1  11
ATOM     11  C   UNL     1       4.185   3.665  19.169  0.00  0.00    +0.000 C 
BRANCH  11  13
ATOM     12  C   UNL     1       2.692   2.145  17.882  0.00  0.00    +0.000 C 
ATOM     13  C   UNL     1       3.794   2.898  17.931  0.00  0.00    +0.000 C 
ENDBRANCH  11  13
ENDBRANCH   1  11
TORSDOF 2
ENDMDL
MODEL 9
REMARK VINA RESULT:      -5.4      2.647      4.082
REMARK  Name = 
REMARK  2 active torsions:
REMARK  status: ('A' for Active; 'I' for Inactive)
REMARK    1  A    between atoms: C_2  and  C_3
REMARK    2  A    between atoms: C_3  and  C_4
REMARK                            x       y       z     vdW  Elec       q    Type
REMARK                         _______ _______ _______ _____ _____    ______ ____
ROOT
ATOM      1  C   UNL     1       3.591   3.758  17.283  0.00  0.00    +0.000 C 
ATOM      2  C   UNL     1       2.364   4.484  17.845  0.00  0.00    +0.000 C 
ATOM      3  C   UNL     1       1.205   3.561  18.250  0.00  0.00    +0.000 C 
ATOM      4  C   UNL     1       1.581   2.372  19.142  0.00  0.00    +0.000 C 
ATOM      5  C   UNL     1       2.688   2.729  20.125  0.00  0.00    +0.000 C 
ATOM      6  C   UNL     1       4.053   2.583  19.469  0.00  0.00    +0.000 C 
ATOM      7  N   UNL     1       5.043   1.834  20.158  0.00  0.00    +0.000 N 
ATOM      8  N   UNL     1       4.352   3.006  18.279  0.00  0.00    +0.000 NA
ATOM      9  H   UNL     1       4.863   1.444  21.093  0.00  0.00    +0.000 HD
ATOM     10  H   UNL     1       5.970   1.685  19.733  0.00  0.00    +0.000 HD
ENDROOT
BRANCH   1  11
ATOM     11  C   UNL     1       4.544   4.788  16.651  0.00  0.00    +0.000 C 
BRANCH  11  13
ATOM     12  C   UNL     1       6.994   4.587  16.264  0.00  0.00    +0.000 C 
ATOM     13  C   UNL     1       5.762   4.105  16.083  0.00  0.00    +0.000 C 
ENDBRANCH  11  13
ENDBRANCH   1  11
TORSDOF 2
ENDMDL
