MODEL 1
REMARK VINA RESULT:      -7.3      0.000      0.000
REMARK  Name = 
REMARK  17 active torsions:
REMARK  status: ('A' for Active; 'I' for Inactive)
REMARK    1  A    between atoms: C_1  and  C_2
REMARK    2  A    between atoms: C_2  and  N_3
REMARK    3  A    between atoms: N_3  and  C_4
REMARK    4  A    between atoms: N_3  and  C_13
REMARK    5  A    between atoms: C_4  and  C_5
REMARK    6  A    between atoms: C_6  and  C_7
REMARK    7  A    between atoms: C_8  and  C_9
REMARK    8  A    between atoms: C_9  and  C_10
REMARK    9  A    between atoms: C_9  and  C_11
REMARK   10  A    between atoms: C_9  and  C_12
REMARK   11  A    between atoms: C_13  and  C_14
REMARK   12  A    between atoms: C_18  and  O_19
REMARK   13  A    between atoms: O_19  and  C_20
REMARK   14  A    between atoms: C_20  and  C_21
REMARK   15  A    between atoms: C_21  and  C_22
REMARK   16  A    between atoms: C_22  and  S_23
REMARK   17  A    between atoms: S_23  and  C_26
REMARK                            x       y       z     vdW  Elec       q    Type
REMARK                         _______ _______ _______ _____ _____    ______ ____
ROOT
ATOM      1  C   UNL     1       3.202   5.206  18.072  0.00  0.00    +0.000 A 
ATOM      2  C   UNL     1       2.556   3.970  17.962  0.00  0.00    +0.000 A 
ATOM      3  C   UNL     1       1.619   3.578  18.918  0.00  0.00    +0.000 A 
ATOM      4  C   UNL     1       1.305   4.432  19.975  0.00  0.00    +0.000 A 
ATOM      5  C   UNL     1       1.939   5.668  20.097  0.00  0.00    +0.000 A 
ATOM      6  C   UNL     1       2.923   6.026  19.176  0.00  0.00    +0.000 A 
ENDROOT
BRANCH   1   7
ATOM      7  C   UNL     1       4.138   5.702  16.986  0.00  0.00    +0.000 C 
BRANCH   7   8
ATOM      8  N   UNL     1       5.383   4.914  16.837  0.00  0.00    +0.000 NA
BRANCH   8  10
ATOM      9  C   UNL     1       6.164   4.061  14.564  0.00  0.00    +0.000 C 
ATOM     10  C   UNL     1       5.997   5.234  15.524  0.00  0.00    +0.000 C 
ENDBRANCH   8  10
BRANCH   8  11
ATOM     11  C   UNL     1       6.301   5.220  17.952  0.00  0.00    +0.000 C 
BRANCH  11  12
ATOM     12  C   UNL     1       6.670   6.681  18.086  0.00  0.00    +0.000 C 
ATOM     13  C   UNL     1       7.884   7.176  17.785  0.00  0.00    +0.000 C 
BRANCH  13  14
ATOM     14  C   UNL     1       8.257   8.533  18.006  0.00  0.00    +0.000 C 
ATOM     15  C   UNL     1       8.652   9.659  18.176  0.00  0.00    +0.000 C 
BRANCH  15  16
ATOM     16  C   UNL     1       9.168  11.035  18.401  0.00  0.00    +0.000 C 
ATOM     17  C   UNL     1       8.256  12.046  17.696  0.00  0.00    +0.000 C 
ATOM     18  C   UNL     1       9.196  11.352  19.906  0.00  0.00    +0.000 C 
ATOM     19  C   UNL     1      10.593  11.154  17.839  0.00  0.00    +0.000 C 
ENDBRANCH  15  16
ENDBRANCH  13  14
ENDBRANCH  11  12
ENDBRANCH   8  11
ENDBRANCH   7   8
ENDBRANCH   1   7
BRANCH   5  20
ATOM     20  O   UNL     1       1.543   6.439  21.154  0.00  0.00    +0.000 OA
BRANCH  20  21
ATOM     21  C   UNL     1       1.393   7.841  20.914  0.00  0.00    +0.000 C 
BRANCH  21  22
ATOM     22  C   UNL     1       0.039   8.299  21.439  0.00  0.00    +0.000 C 
BRANCH  22  23
ATOM     23  C   UNL     1       0.150   9.579  22.252  0.00  0.00    +0.000 C 
BRANCH  23  24
ATOM     24  S   UNL     1      -0.105  11.007  21.218  0.00  0.00    +0.000 S 
ATOM     25  O   UNL     1       0.957  11.963  21.472  0.00  0.00    +0.000 OA
ATOM     26  O   UNL     1      -0.459  10.595  19.877  0.00  0.00    +0.000 OA
BRANCH  24  27
ATOM     27  C   UNL     1      -1.558  11.774  21.900  0.00  0.00    +0.000 A 
ATOM     28  C   UNL     1      -2.098  11.753  23.171  0.00  0.00    +0.000 A 
ATOM     29  C   UNL     1      -3.310  12.493  23.256  0.00  0.00    +0.000 A 
ATOM     30  C   UNL     1      -3.651  13.063  22.049  0.00  0.00    +0.000 A 
ATOM     31  S   UNL     1      -2.506  12.712  20.828  0.00  0.00    +0.000 S 
ENDBRANCH  24  27
ENDBRANCH  23  24
ENDBRANCH  22  23
ENDBRANCH  21  22
ENDBRANCH  20  21
ENDBRANCH   5  20
TORSDOF 13
ENDMDL
MODEL 2
REMARK VINA RESULT:      -7.2      2.617      3.176
REMARK  Name = 
REMARK  17 active torsions:
REMARK  status: ('A' for Active; 'I' for Inactive)
REMARK    1  A    between atoms: C_1  and  C_2
REMARK    2  A    between atoms: C_2  and  N_3
REMARK    3  A    between atoms: N_3  and  C_4
REMARK    4  A    between atoms: N_3  and  C_13
REMARK    5  A    between atoms: C_4  and  C_5
REMARK    6  A    between atoms: C_6  and  C_7
REMARK    7  A    between atoms: C_8  and  C_9
REMARK    8  A    between atoms: C_9  and  C_10
REMARK    9  A    between atoms: C_9  and  C_11
REMARK   10  A    between atoms: C_9  and  C_12
REMARK   11  A    between atoms: C_13  and  C_14
REMARK   12  A    between atoms: C_18  and  O_19
REMARK   13  A    between atoms: O_19  and  C_20
REMARK   14  A    between atoms: C_20  and  C_21
REMARK   15  A    between atoms: C_21  and  C_22
REMARK   16  A    between atoms: C_22  and  S_23
REMARK   17  A    between atoms: S_23  and  C_26
REMARK                            x       y       z     vdW  Elec       q    Type
REMARK                         _______ _______ _______ _____ _____    ______ ____
ROOT
ATOM      1  C   UNL     1       4.789   5.087  18.703  0.00  0.00    +0.000 A 
ATOM      2  C   UNL     1       4.206   3.840  18.450  0.00  0.00    +0.000 A 
ATOM      3  C   UNL     1       2.879   3.757  18.027  0.00  0.00    +0.000 A 
ATOM      4  C   UNL     1       2.137   4.921  17.831  0.00  0.00    +0.000 A 
ATOM      5  C   UNL     1       2.705   6.171  18.078  0.00  0.00    +0.000 A 
ATOM      6  C   UNL     1       4.010   6.246  18.564  0.00  0.00    +0.000 A 
ENDROOT
BRANCH   1   7
ATOM      7  C   UNL     1       6.260   5.209  19.053  0.00  0.00    +0.000 C 
BRANCH   7   8
ATOM      8  N   UNL     1       7.160   5.372  17.888  0.00  0.00    +0.000 NA
BRANCH   8  10
ATOM      9  C   UNL     1       6.672   4.882  15.433  0.00  0.00    +0.000 C 
ATOM     10  C   UNL     1       6.802   4.362  16.862  0.00  0.00    +0.000 C 
ENDBRANCH   8  10
BRANCH   8  11
ATOM     11  C   UNL     1       7.042   6.746  17.358  0.00  0.00    +0.000 C 
BRANCH  11  12
ATOM     12  C   UNL     1       7.968   7.755  18.001  0.00  0.00    +0.000 C 
ATOM     13  C   UNL     1       7.917   9.077  17.760  0.00  0.00    +0.000 C 
BRANCH  13  14
ATOM     14  C   UNL     1       8.854  10.010  18.290  0.00  0.00    +0.000 C 
ATOM     15  C   UNL     1       9.583  10.851  18.752  0.00  0.00    +0.000 C 
BRANCH  15  16
ATOM     16  C   UNL     1      10.462  11.914  19.305  0.00  0.00    +0.000 C 
ATOM     17  C   UNL     1      11.903  11.686  18.831  0.00  0.00    +0.000 C 
ATOM     18  C   UNL     1       9.992  13.297  18.824  0.00  0.00    +0.000 C 
ATOM     19  C   UNL     1      10.419  11.878  20.840  0.00  0.00    +0.000 C 
ENDBRANCH  15  16
ENDBRANCH  13  14
ENDBRANCH  11  12
ENDBRANCH   8  11
ENDBRANCH   7   8
ENDBRANCH   1   7
BRANCH   5  20
ATOM     20  O   UNL     1       1.901   7.249  17.833  0.00  0.00    +0.000 OA
BRANCH  20  21
ATOM     21  C   UNL     1       2.520   8.538  17.858  0.00  0.00    +0.000 C 
BRANCH  21  22
ATOM     22  C   UNL     1       1.673   9.487  18.695  0.00  0.00    +0.000 C 
BRANCH  22  23
ATOM     23  C   UNL     1       0.217   9.482  18.259  0.00  0.00    +0.000 C 
BRANCH  23  24
ATOM     24  S   UNL     1      -0.589  10.997  18.737  0.00  0.00    +0.000 S 
ATOM     25  O   UNL     1      -1.095  10.851  20.089  0.00  0.00    +0.000 OA
ATOM     26  O   UNL     1       0.211  12.135  18.339  0.00  0.00    +0.000 OA
BRANCH  24  27
ATOM     27  C   UNL     1      -2.051  11.041  17.724  0.00  0.00    +0.000 A 
ATOM     28  C   UNL     1      -2.271  10.669  16.413  0.00  0.00    +0.000 A 
ATOM     29  C   UNL     1      -3.610  10.917  15.997  0.00  0.00    +0.000 A 
ATOM     30  C   UNL     1      -4.369  11.462  17.009  0.00  0.00    +0.000 A 
ATOM     31  S   UNL     1      -3.471  11.662  18.450  0.00  0.00    +0.000 S 
ENDBRANCH  24  27
ENDBRANCH  23  24
ENDBRANCH  22  23
ENDBRANCH  21  22
ENDBRANCH  20  21
ENDBRANCH   5  20
TORSDOF 13
ENDMDL
MODEL 3
REMARK VINA RESULT:      -7.2      1.583      2.482
REMARK  Name = 
REMARK  17 active torsions:
REMARK  status: ('A' for Active; 'I' for Inactive)
REMARK    1  A    between atoms: C_1  and  C_2
REMARK    2  A    between atoms: C_2  and  N_3
REMARK    3  A    between atoms: N_3  and  C_4
REMARK    4  A    between atoms: N_3  and  C_13
REMARK    5  A    between atoms: C_4  and  C_5
REMARK    6  A    between atoms: C_6  and  C_7
REMARK    7  A    between atoms: C_8  and  C_9
REMARK    8  A    between atoms: C_9  and  C_10
REMARK    9  A    between atoms: C_9  and  C_11
REMARK   10  A    between atoms: C_9  and  C_12
REMARK   11  A    between atoms: C_13  and  C_14
REMARK   12  A    between atoms: C_18  and  O_19
REMARK   13  A    between atoms: O_19  and  C_20
REMARK   14  A    between atoms: C_20  and  C_21
REMARK   15  A    between atoms: C_21  and  C_22
REMARK   16  A    between atoms: C_22  and  S_23
REMARK   17  A    between atoms: S_23  and  C_26
REMARK                            x       y       z     vdW  Elec       q    Type
REMARK                         _______ _______ _______ _____ _____    ______ ____
ROOT
ATOM      1  C   UNL     1       2.841   6.950  18.372  0.00  0.00    +0.000 A 
ATOM      2  C   UNL     1       2.800   8.091  17.562  0.00  0.00    +0.000 A 
ATOM      3  C   UNL     1       2.076   9.214  17.965  0.00  0.00    +0.000 A 
ATOM      4  C   UNL     1       1.411   9.210  19.191  0.00  0.00    +0.000 A 
ATOM      5  C   UNL     1       1.444   8.081  20.009  0.00  0.00    +0.000 A 
ATOM      6  C   UNL     1       2.114   6.938  19.572  0.00  0.00    +0.000 A 
ENDROOT
BRANCH   1   7
ATOM      7  C   UNL     1       3.712   5.763  18.010  0.00  0.00    +0.000 C 
BRANCH   7   8
ATOM      8  N   UNL     1       5.127   5.882  18.434  0.00  0.00    +0.000 NA
BRANCH   8  10
ATOM      9  C   UNL     1       4.549   3.461  18.990  0.00  0.00    +0.000 C 
ATOM     10  C   UNL     1       5.532   4.622  19.105  0.00  0.00    +0.000 C 
ENDBRANCH   8  10
BRANCH   8  11
ATOM     11  C   UNL     1       5.974   6.166  17.259  0.00  0.00    +0.000 C 
BRANCH  11  12
ATOM     12  C   UNL     1       6.689   7.499  17.300  0.00  0.00    +0.000 C 
ATOM     13  C   UNL     1       7.818   7.720  17.996  0.00  0.00    +0.000 C 
BRANCH  13  14
ATOM     14  C   UNL     1       8.432   9.001  18.113  0.00  0.00    +0.000 C 
ATOM     15  C   UNL     1       8.877  10.114  18.239  0.00  0.00    +0.000 C 
BRANCH  15  16
ATOM     16  C   UNL     1       9.396  11.499  18.382  0.00  0.00    +0.000 C 
ATOM     17  C   UNL     1      10.833  11.566  17.851  0.00  0.00    +0.000 C 
ATOM     18  C   UNL     1       8.522  12.479  17.580  0.00  0.00    +0.000 C 
ATOM     19  C   UNL     1       9.379  11.911  19.862  0.00  0.00    +0.000 C 
ENDBRANCH  15  16
ENDBRANCH  13  14
ENDBRANCH  11  12
ENDBRANCH   8  11
ENDBRANCH   7   8
ENDBRANCH   1   7
BRANCH   5  20
ATOM     20  O   UNL     1       0.780   8.188  21.199  0.00  0.00    +0.000 OA
BRANCH  20  21
ATOM     21  C   UNL     1       1.391   8.991  22.212  0.00  0.00    +0.000 C 
BRANCH  21  22
ATOM     22  C   UNL     1       0.327   9.847  22.885  0.00  0.00    +0.000 C 
BRANCH  22  23
ATOM     23  C   UNL     1      -0.750  10.288  21.907  0.00  0.00    +0.000 C 
BRANCH  23  24
ATOM     24  S   UNL     1      -0.469  11.964  21.373  0.00  0.00    +0.000 S 
ATOM     25  O   UNL     1       0.925  12.299  21.598  0.00  0.00    +0.000 OA
ATOM     26  O   UNL     1      -1.115  12.197  20.099  0.00  0.00    +0.000 OA
BRANCH  24  27
ATOM     27  C   UNL     1      -1.353  12.946  22.563  0.00  0.00    +0.000 A 
ATOM     28  C   UNL     1      -0.997  14.082  23.263  0.00  0.00    +0.000 A 
ATOM     29  C   UNL     1      -2.022  14.515  24.151  0.00  0.00    +0.000 A 
ATOM     30  C   UNL     1      -3.131  13.699  24.092  0.00  0.00    +0.000 A 
ATOM     31  S   UNL     1      -2.934  12.428  22.965  0.00  0.00    +0.000 S 
ENDBRANCH  24  27
ENDBRANCH  23  24
ENDBRANCH  22  23
ENDBRANCH  21  22
ENDBRANCH  20  21
ENDBRANCH   5  20
TORSDOF 13
ENDMDL
MODEL 4
REMARK VINA RESULT:      -7.1      1.656      2.442
REMARK  Name = 
REMARK  17 active torsions:
REMARK  status: ('A' for Active; 'I' for Inactive)
REMARK    1  A    between atoms: C_1  and  C_2
REMARK    2  A    between atoms: C_2  and  N_3
REMARK    3  A    between atoms: N_3  and  C_4
REMARK    4  A    between atoms: N_3  and  C_13
REMARK    5  A    between atoms: C_4  and  C_5
REMARK    6  A    between atoms: C_6  and  C_7
REMARK    7  A    between atoms: C_8  and  C_9
REMARK    8  A    between atoms: C_9  and  C_10
REMARK    9  A    between atoms: C_9  and  C_11
REMARK   10  A    between atoms: C_9  and  C_12
REMARK   11  A    between atoms: C_13  and  C_14
REMARK   12  A    between atoms: C_18  and  O_19
REMARK   13  A    between atoms: O_19  and  C_20
REMARK   14  A    between atoms: C_20  and  C_21
REMARK   15  A    between atoms: C_21  and  C_22
REMARK   16  A    between atoms: C_22  and  S_23
REMARK   17  A    between atoms: S_23  and  C_26
REMARK                            x       y       z     vdW  Elec       q    Type
REMARK                         _______ _______ _______ _____ _____    ______ ____
ROOT
ATOM      1  C   UNL     1       2.925   6.838  18.278  0.00  0.00    +0.000 A 
ATOM      2  C   UNL     1       2.726   7.877  17.361  0.00  0.00    +0.000 A 
ATOM      3  C   UNL     1       1.996   9.008  17.728  0.00  0.00    +0.000 A 
ATOM      4  C   UNL     1       1.484   9.116  19.021  0.00  0.00    +0.000 A 
ATOM      5  C   UNL     1       1.676   8.090  19.945  0.00  0.00    +0.000 A 
ATOM      6  C   UNL     1       2.349   6.933  19.554  0.00  0.00    +0.000 A 
ENDROOT
BRANCH   1   7
ATOM      7  C   UNL     1       3.810   5.653  17.940  0.00  0.00    +0.000 C 
BRANCH   7   8
ATOM      8  N   UNL     1       5.153   5.687  18.564  0.00  0.00    +0.000 NA
BRANCH   8  10
ATOM      9  C   UNL     1       4.482   3.238  18.805  0.00  0.00    +0.000 C 
ATOM     10  C   UNL     1       5.413   4.377  19.211  0.00  0.00    +0.000 C 
ENDBRANCH   8  10
BRANCH   8  11
ATOM     11  C   UNL     1       6.169   5.994  17.537  0.00  0.00    +0.000 C 
BRANCH  11  12
ATOM     12  C   UNL     1       6.697   7.411  17.572  0.00  0.00    +0.000 C 
ATOM     13  C   UNL     1       7.918   7.742  18.028  0.00  0.00    +0.000 C 
BRANCH  13  14
ATOM     14  C   UNL     1       8.373   9.087  18.152  0.00  0.00    +0.000 C 
ATOM     15  C   UNL     1       8.833  10.198  18.229  0.00  0.00    +0.000 C 
BRANCH  15  16
ATOM     16  C   UNL     1       9.430  11.555  18.337  0.00  0.00    +0.000 C 
ATOM     17  C   UNL     1       8.506  12.578  17.664  0.00  0.00    +0.000 C 
ATOM     18  C   UNL     1       9.609  11.941  19.815  0.00  0.00    +0.000 C 
ATOM     19  C   UNL     1      10.802  11.576  17.645  0.00  0.00    +0.000 C 
ENDBRANCH  15  16
ENDBRANCH  13  14
ENDBRANCH  11  12
ENDBRANCH   8  11
ENDBRANCH   7   8
ENDBRANCH   1   7
BRANCH   5  20
ATOM     20  O   UNL     1       1.154   8.304  21.190  0.00  0.00    +0.000 OA
BRANCH  20  21
ATOM     21  C   UNL     1       0.306   9.445  21.350  0.00  0.00    +0.000 C 
BRANCH  21  22
ATOM     22  C   UNL     1       0.196   9.788  22.829  0.00  0.00    +0.000 C 
BRANCH  22  23
ATOM     23  C   UNL     1      -1.130  10.455  23.160  0.00  0.00    +0.000 C 
BRANCH  23  24
ATOM     24  S   UNL     1      -1.194  12.101  22.483  0.00  0.00    +0.000 S 
ATOM     25  O   UNL     1      -0.593  13.020  23.430  0.00  0.00    +0.000 OA
ATOM     26  O   UNL     1      -0.810  12.081  21.087  0.00  0.00    +0.000 OA
BRANCH  24  27
ATOM     27  C   UNL     1      -2.925  12.508  22.514  0.00  0.00    +0.000 A 
ATOM     28  C   UNL     1      -3.854  12.651  21.501  0.00  0.00    +0.000 A 
ATOM     29  C   UNL     1      -5.137  13.025  21.992  0.00  0.00    +0.000 A 
ATOM     30  C   UNL     1      -5.147  13.146  23.364  0.00  0.00    +0.000 A 
ATOM     31  S   UNL     1      -3.619  12.800  24.051  0.00  0.00    +0.000 S 
ENDBRANCH  24  27
ENDBRANCH  23  24
ENDBRANCH  22  23
ENDBRANCH  21  22
ENDBRANCH  20  21
ENDBRANCH   5  20
TORSDOF 13
ENDMDL
MODEL 5
REMARK VINA RESULT:      -7.1      1.570      1.965
REMARK  Name = 
REMARK  17 active torsions:
REMARK  status: ('A' for Active; 'I' for Inactive)
REMARK    1  A    between atoms: C_1  and  C_2
REMARK    2  A    between atoms: C_2  and  N_3
REMARK    3  A    between atoms: N_3  and  C_4
REMARK    4  A    between atoms: N_3  and  C_13
REMARK    5  A    between atoms: C_4  and  C_5
REMARK    6  A    between atoms: C_6  and  C_7
REMARK    7  A    between atoms: C_8  and  C_9
REMARK    8  A    between atoms: C_9  and  C_10
REMARK    9  A    between atoms: C_9  and  C_11
REMARK   10  A    between atoms: C_9  and  C_12
REMARK   11  A    between atoms: C_13  and  C_14
REMARK   12  A    between atoms: C_18  and  O_19
REMARK   13  A    between atoms: O_19  and  C_20
REMARK   14  A    between atoms: C_20  and  C_21
REMARK   15  A    between atoms: C_21  and  C_22
REMARK   16  A    between atoms: C_22  and  S_23
REMARK   17  A    between atoms: S_23  and  C_26
REMARK                            x       y       z     vdW  Elec       q    Type
REMARK                         _______ _______ _______ _____ _____    ______ ____
ROOT
ATOM      1  C   UNL     1       4.225   5.990  17.139  0.00  0.00    +0.000 A 
ATOM      2  C   UNL     1       3.456   4.868  17.468  0.00  0.00    +0.000 A 
ATOM      3  C   UNL     1       2.337   5.000  18.292  0.00  0.00    +0.000 A 
ATOM      4  C   UNL     1       1.968   6.258  18.768  0.00  0.00    +0.000 A 
ATOM      5  C   UNL     1       2.725   7.385  18.447  0.00  0.00    +0.000 A 
ATOM      6  C   UNL     1       3.879   7.238  17.679  0.00  0.00    +0.000 A 
ENDROOT
BRANCH   1   7
ATOM      7  C   UNL     1       5.376   5.891  16.156  0.00  0.00    +0.000 C 
BRANCH   7   8
ATOM      8  N   UNL     1       6.265   4.724  16.362  0.00  0.00    +0.000 NA
BRANCH   8  10
ATOM      9  C   UNL     1       5.916   4.032  13.932  0.00  0.00    +0.000 C 
ATOM     10  C   UNL     1       6.885   4.361  15.064  0.00  0.00    +0.000 C 
ENDBRANCH   8  10
BRANCH   8  11
ATOM     11  C   UNL     1       7.287   5.051  17.376  0.00  0.00    +0.000 C 
BRANCH  11  12
ATOM     12  C   UNL     1       7.808   6.471  17.316  0.00  0.00    +0.000 C 
ATOM     13  C   UNL     1       7.912   7.275  18.389  0.00  0.00    +0.000 C 
BRANCH  13  14
ATOM     14  C   UNL     1       8.308   8.641  18.312  0.00  0.00    +0.000 C 
ATOM     15  C   UNL     1       8.693   9.783  18.312  0.00  0.00    +0.000 C 
BRANCH  15  16
ATOM     16  C   UNL     1       9.166  11.192  18.349  0.00  0.00    +0.000 C 
ATOM     17  C   UNL     1       9.222  11.677  19.803  0.00  0.00    +0.000 C 
ATOM     18  C   UNL     1      10.572  11.297  17.733  0.00  0.00    +0.000 C 
ATOM     19  C   UNL     1       8.203  12.084  17.550  0.00  0.00    +0.000 C 
ENDBRANCH  15  16
ENDBRANCH  13  14
ENDBRANCH  11  12
ENDBRANCH   8  11
ENDBRANCH   7   8
ENDBRANCH   1   7
BRANCH   5  20
ATOM     20  O   UNL     1       2.265   8.572  18.945  0.00  0.00    +0.000 OA
BRANCH  20  21
ATOM     21  C   UNL     1       1.300   9.275  18.157  0.00  0.00    +0.000 C 
BRANCH  21  22
ATOM     22  C   UNL     1       1.307  10.747  18.548  0.00  0.00    +0.000 C 
BRANCH  22  23
ATOM     23  C   UNL     1       0.457  11.011  19.780  0.00  0.00    +0.000 C 
BRANCH  23  24
ATOM     24  S   UNL     1      -1.020  11.907  19.347  0.00  0.00    +0.000 S 
ATOM     25  O   UNL     1      -0.650  13.250  18.940  0.00  0.00    +0.000 OA
ATOM     26  O   UNL     1      -1.890  11.076  18.542  0.00  0.00    +0.000 OA
BRANCH  24  27
ATOM     27  C   UNL     1      -1.854  12.134  20.902  0.00  0.00    +0.000 A 
ATOM     28  C   UNL     1      -1.494  11.804  22.194  0.00  0.00    +0.000 A 
ATOM     29  C   UNL     1      -2.500  12.147  23.141  0.00  0.00    +0.000 A 
ATOM     30  C   UNL     1      -3.592  12.736  22.540  0.00  0.00    +0.000 A 
ATOM     31  S   UNL     1      -3.393  12.880  20.847  0.00  0.00    +0.000 S 
ENDBRANCH  24  27
ENDBRANCH  23  24
ENDBRANCH  22  23
ENDBRANCH  21  22
ENDBRANCH  20  21
ENDBRANCH   5  20
TORSDOF 13
ENDMDL
MODEL 6
REMARK VINA RESULT:      -7.0      4.179      8.389
REMARK  Name = 
REMARK  17 active torsions:
REMARK  status: ('A' for Active; 'I' for Inactive)
REMARK    1  A    between atoms: C_1  and  C_2
REMARK    2  A    between atoms: C_2  and  N_3
REMARK    3  A    between atoms: N_3  and  C_4
REMARK    4  A    between atoms: N_3  and  C_13
REMARK    5  A    between atoms: C_4  and  C_5
REMARK    6  A    between atoms: C_6  and  C_7
REMARK    7  A    between atoms: C_8  and  C_9
REMARK    8  A    between atoms: C_9  and  C_10
REMARK    9  A    between atoms: C_9  and  C_11
REMARK   10  A    between atoms: C_9  and  C_12
REMARK   11  A    between atoms: C_13  and  C_14
REMARK   12  A    between atoms: C_18  and  O_19
REMARK   13  A    between atoms: O_19  and  C_20
REMARK   14  A    between atoms: C_20  and  C_21
REMARK   15  A    between atoms: C_21  and  C_22
REMARK   16  A    between atoms: C_22  and  S_23
REMARK   17  A    between atoms: S_23  and  C_26
REMARK                            x       y       z     vdW  Elec       q    Type
REMARK                         _______ _______ _______ _____ _____    ______ ____
ROOT
ATOM      1  C   UNL     1       4.426   5.273  17.186  0.00  0.00    +0.000 A 
ATOM      2  C   UNL     1       4.612   4.159  16.360  0.00  0.00    +0.000 A 
ATOM      3  C   UNL     1       5.815   3.985  15.674  0.00  0.00    +0.000 A 
ATOM      4  C   UNL     1       6.846   4.911  15.832  0.00  0.00    +0.000 A 
ATOM      5  C   UNL     1       6.675   6.025  16.653  0.00  0.00    +0.000 A 
ATOM      6  C   UNL     1       5.449   6.229  17.284  0.00  0.00    +0.000 A 
ENDROOT
BRANCH   1   7
ATOM      7  C   UNL     1       3.174   5.424  18.029  0.00  0.00    +0.000 C 
BRANCH   7   8
ATOM      8  N   UNL     1       3.003   4.387  19.072  0.00  0.00    +0.000 NA
BRANCH   8  10
ATOM      9  C   UNL     1       4.415   2.417  19.866  0.00  0.00    +0.000 C 
ATOM     10  C   UNL     1       4.341   3.891  19.477  0.00  0.00    +0.000 C 
ENDBRANCH   8  10
BRANCH   8  11
ATOM     11  C   UNL     1       2.266   4.954  20.219  0.00  0.00    +0.000 C 
BRANCH  11  12
ATOM     12  C   UNL     1       1.903   6.416  20.079  0.00  0.00    +0.000 C 
ATOM     13  C   UNL     1       1.460   7.177  21.096  0.00  0.00    +0.000 C 
BRANCH  13  14
ATOM     14  C   UNL     1       1.025   8.525  20.938  0.00  0.00    +0.000 C 
ATOM     15  C   UNL     1       0.582   9.640  20.833  0.00  0.00    +0.000 C 
BRANCH  15  16
ATOM     16  C   UNL     1       0.005  11.003  20.692  0.00  0.00    +0.000 C 
ATOM     17  C   UNL     1      -0.618  11.437  22.024  0.00  0.00    +0.000 C 
ATOM     18  C   UNL     1       1.104  12.007  20.302  0.00  0.00    +0.000 C 
ATOM     19  C   UNL     1      -1.076  10.998  19.600  0.00  0.00    +0.000 C 
ENDBRANCH  15  16
ENDBRANCH  13  14
ENDBRANCH  11  12
ENDBRANCH   8  11
ENDBRANCH   7   8
ENDBRANCH   1   7
BRANCH   5  20
ATOM     20  O   UNL     1       7.754   6.859  16.757  0.00  0.00    +0.000 OA
BRANCH  20  21
ATOM     21  C   UNL     1       7.899   7.581  17.983  0.00  0.00    +0.000 C 
BRANCH  21  22
ATOM     22  C   UNL     1       8.087   9.060  17.677  0.00  0.00    +0.000 C 
BRANCH  22  23
ATOM     23  C   UNL     1       8.927   9.757  18.736  0.00  0.00    +0.000 C 
BRANCH  23  24
ATOM     24  S   UNL     1       9.366  11.402  18.212  0.00  0.00    +0.000 S 
ATOM     25  O   UNL     1      10.702  11.372  17.649  0.00  0.00    +0.000 OA
ATOM     26  O   UNL     1       8.255  12.016  17.516  0.00  0.00    +0.000 OA
BRANCH  24  27
ATOM     27  C   UNL     1       9.552  12.300  19.736  0.00  0.00    +0.000 A 
ATOM     28  C   UNL     1       9.031  12.087  20.997  0.00  0.00    +0.000 A 
ATOM     29  C   UNL     1       9.425  13.096  21.922  0.00  0.00    +0.000 A 
ATOM     30  C   UNL     1      10.241  14.039  21.338  0.00  0.00    +0.000 A 
ATOM     31  S   UNL     1      10.534  13.700  19.687  0.00  0.00    +0.000 S 
ENDBRANCH  24  27
ENDBRANCH  23  24
ENDBRANCH  22  23
ENDBRANCH  21  22
ENDBRANCH  20  21
ENDBRANCH   5  20
TORSDOF 13
ENDMDL
MODEL 7
REMARK VINA RESULT:      -7.0      1.484      2.117
REMARK  Name = 
REMARK  17 active torsions:
REMARK  status: ('A' for Active; 'I' for Inactive)
REMARK    1  A    between atoms: C_1  and  C_2
REMARK    2  A    between atoms: C_2  and  N_3
REMARK    3  A    between atoms: N_3  and  C_4
REMARK    4  A    between atoms: N_3  and  C_13
REMARK    5  A    between atoms: C_4  and  C_5
REMARK    6  A    between atoms: C_6  and  C_7
REMARK    7  A    between atoms: C_8  and  C_9
REMARK    8  A    between atoms: C_9  and  C_10
REMARK    9  A    between atoms: C_9  and  C_11
REMARK   10  A    between atoms: C_9  and  C_12
REMARK   11  A    between atoms: C_13  and  C_14
REMARK   12  A    between atoms: C_18  and  O_19
REMARK   13  A    between atoms: O_19  and  C_20
REMARK   14  A    between atoms: C_20  and  C_21
REMARK   15  A    between atoms: C_21  and  C_22
REMARK   16  A    between atoms: C_22  and  S_23
REMARK   17  A    between atoms: S_23  and  C_26
REMARK                            x       y       z     vdW  Elec       q    Type
REMARK                         _______ _______ _______ _____ _____    ______ ____
ROOT
ATOM      1  C   UNL     1       3.115   7.093  18.006  0.00  0.00    +0.000 A 
ATOM      2  C   UNL     1       2.887   8.298  17.332  0.00  0.00    +0.000 A 
ATOM      3  C   UNL     1       2.065   9.275  17.896  0.00  0.00    +0.000 A 
ATOM      4  C   UNL     1       1.490   9.062  19.149  0.00  0.00    +0.000 A 
ATOM      5  C   UNL     1       1.710   7.866  19.832  0.00  0.00    +0.000 A 
ATOM      6  C   UNL     1       2.477   6.867  19.235  0.00  0.00    +0.000 A 
ENDROOT
BRANCH   1   7
ATOM      7  C   UNL     1       4.092   6.066  17.467  0.00  0.00    +0.000 C 
BRANCH   7   8
ATOM      8  N   UNL     1       5.157   5.668  18.417  0.00  0.00    +0.000 NA
BRANCH   8  10
ATOM      9  C   UNL     1       4.304   3.354  17.770  0.00  0.00    +0.000 C 
ATOM     10  C   UNL     1       4.932   4.259  18.825  0.00  0.00    +0.000 C 
ENDBRANCH   8  10
BRANCH   8  11
ATOM     11  C   UNL     1       6.479   5.843  17.782  0.00  0.00    +0.000 C 
BRANCH  11  12
ATOM     12  C   UNL     1       6.955   7.277  17.694  0.00  0.00    +0.000 C 
ATOM     13  C   UNL     1       8.082   7.727  18.273  0.00  0.00    +0.000 C 
BRANCH  13  14
ATOM     14  C   UNL     1       8.473   9.097  18.271  0.00  0.00    +0.000 C 
ATOM     15  C   UNL     1       8.884  10.230  18.275  0.00  0.00    +0.000 C 
BRANCH  15  16
ATOM     16  C   UNL     1       9.415  11.618  18.305  0.00  0.00    +0.000 C 
ATOM     17  C   UNL     1       8.508  12.532  17.473  0.00  0.00    +0.000 C 
ATOM     18  C   UNL     1       9.458  12.140  19.752  0.00  0.00    +0.000 C 
ATOM     19  C   UNL     1      10.837  11.644  17.723  0.00  0.00    +0.000 C 
ENDBRANCH  15  16
ENDBRANCH  13  14
ENDBRANCH  11  12
ENDBRANCH   8  11
ENDBRANCH   7   8
ENDBRANCH   1   7
BRANCH   5  20
ATOM     20  O   UNL     1       1.119   7.767  21.062  0.00  0.00    +0.000 OA
BRANCH  20  21
ATOM     21  C   UNL     1       1.312   8.859  21.964  0.00  0.00    +0.000 C 
BRANCH  21  22
ATOM     22  C   UNL     1       0.007   9.630  22.107  0.00  0.00    +0.000 C 
BRANCH  22  23
ATOM     23  C   UNL     1       0.224  11.133  22.036  0.00  0.00    +0.000 C 
BRANCH  23  24
ATOM     24  S   UNL     1      -0.882  11.875  20.853  0.00  0.00    +0.000 S 
ATOM     25  O   UNL     1      -0.337  13.155  20.441  0.00  0.00    +0.000 OA
ATOM     26  O   UNL     1      -1.321  10.886  19.892  0.00  0.00    +0.000 OA
BRANCH  24  27
ATOM     27  C   UNL     1      -2.316  12.299  21.816  0.00  0.00    +0.000 A 
ATOM     28  C   UNL     1      -2.561  12.239  23.174  0.00  0.00    +0.000 A 
ATOM     29  C   UNL     1      -3.882  12.652  23.505  0.00  0.00    +0.000 A 
ATOM     30  C   UNL     1      -4.600  13.022  22.388  0.00  0.00    +0.000 A 
ATOM     31  S   UNL     1      -3.676  12.880  20.956  0.00  0.00    +0.000 S 
ENDBRANCH  24  27
ENDBRANCH  23  24
ENDBRANCH  22  23
ENDBRANCH  21  22
ENDBRANCH  20  21
ENDBRANCH   5  20
TORSDOF 13
ENDMDL
MODEL 8
REMARK VINA RESULT:      -6.9      4.690      8.518
REMARK  Name = 
REMARK  17 active torsions:
REMARK  status: ('A' for Active; 'I' for Inactive)
REMARK    1  A    between atoms: C_1  and  C_2
REMARK    2  A    between atoms: C_2  and  N_3
REMARK    3  A    between atoms: N_3  and  C_4
REMARK    4  A    between atoms: N_3  and  C_13
REMARK    5  A    between atoms: C_4  and  C_5
REMARK    6  A    between atoms: C_6  and  C_7
REMARK    7  A    between atoms: C_8  and  C_9
REMARK    8  A    between atoms: C_9  and  C_10
REMARK    9  A    between atoms: C_9  and  C_11
REMARK   10  A    between atoms: C_9  and  C_12
REMARK   11  A    between atoms: C_13  and  C_14
REMARK   12  A    between atoms: C_18  and  O_19
REMARK   13  A    between atoms: O_19  and  C_20
REMARK   14  A    between atoms: C_20  and  C_21
REMARK   15  A    between atoms: C_21  and  C_22
REMARK   16  A    between atoms: C_22  and  S_23
REMARK   17  A    between atoms: S_23  and  C_26
REMARK                            x       y       z     vdW  Elec       q    Type
REMARK                         _______ _______ _______ _____ _____    ______ ____
ROOT
ATOM      1  C   UNL     1       6.025   5.529  17.153  0.00  0.00    +0.000 A 
ATOM      2  C   UNL     1       6.707   4.831  18.156  0.00  0.00    +0.000 A 
ATOM      3  C   UNL     1       7.744   5.445  18.860  0.00  0.00    +0.000 A 
ATOM      4  C   UNL     1       8.086   6.768  18.581  0.00  0.00    +0.000 A 
ATOM      5  C   UNL     1       7.414   7.476  17.586  0.00  0.00    +0.000 A 
ATOM      6  C   UNL     1       6.424   6.838  16.840  0.00  0.00    +0.000 A 
ENDROOT
BRANCH   1   7
ATOM      7  C   UNL     1       4.823   4.923  16.454  0.00  0.00    +0.000 C 
BRANCH   7   8
ATOM      8  N   UNL     1       3.588   4.888  17.270  0.00  0.00    +0.000 NA
BRANCH   8  10
ATOM      9  C   UNL     1       1.784   3.269  18.064  0.00  0.00    +0.000 C 
ATOM     10  C   UNL     1       3.140   3.479  17.398  0.00  0.00    +0.000 C 
ENDBRANCH   8  10
BRANCH   8  11
ATOM     11  C   UNL     1       3.848   5.494  18.592  0.00  0.00    +0.000 C 
BRANCH  11  12
ATOM     12  C   UNL     1       2.907   6.616  18.971  0.00  0.00    +0.000 C 
ATOM     13  C   UNL     1       2.512   7.580  18.121  0.00  0.00    +0.000 C 
BRANCH  13  14
ATOM     14  C   UNL     1       1.706   8.689  18.509  0.00  0.00    +0.000 C 
ATOM     15  C   UNL     1       0.977   9.612  18.770  0.00  0.00    +0.000 C 
BRANCH  15  16
ATOM     16  C   UNL     1       0.075  10.758  19.058  0.00  0.00    +0.000 C 
ATOM     17  C   UNL     1       0.801  12.073  18.748  0.00  0.00    +0.000 C 
ATOM     18  C   UNL     1      -1.191  10.670  18.188  0.00  0.00    +0.000 C 
ATOM     19  C   UNL     1      -0.334  10.739  20.539  0.00  0.00    +0.000 C 
ENDBRANCH  15  16
ENDBRANCH  13  14
ENDBRANCH  11  12
ENDBRANCH   8  11
ENDBRANCH   7   8
ENDBRANCH   1   7
BRANCH   5  20
ATOM     20  O   UNL     1       7.810   8.773  17.407  0.00  0.00    +0.000 OA
BRANCH  20  21
ATOM     21  C   UNL     1       8.592   9.361  18.450  0.00  0.00    +0.000 C 
BRANCH  21  22
ATOM     22  C   UNL     1       8.955  10.788  18.063  0.00  0.00    +0.000 C 
BRANCH  22  23
ATOM     23  C   UNL     1       9.616  11.537  19.210  0.00  0.00    +0.000 C 
BRANCH  23  24
ATOM     24  S   UNL     1      10.624  12.870  18.596  0.00  0.00    +0.000 S 
ATOM     25  O   UNL     1      11.606  13.217  19.605  0.00  0.00    +0.000 OA
ATOM     26  O   UNL     1      10.998  12.619  17.220  0.00  0.00    +0.000 OA
BRANCH  24  27
ATOM     27  C   UNL     1       9.518  14.262  18.562  0.00  0.00    +0.000 A 
ATOM     28  C   UNL     1       8.235  14.404  18.071  0.00  0.00    +0.000 A 
ATOM     29  C   UNL     1       7.738  15.729  18.230  0.00  0.00    +0.000 A 
ATOM     30  C   UNL     1       8.656  16.552  18.845  0.00  0.00    +0.000 A 
ATOM     31  S   UNL     1      10.101  15.723  19.235  0.00  0.00    +0.000 S 
ENDBRANCH  24  27
ENDBRANCH  23  24
ENDBRANCH  22  23
ENDBRANCH  21  22
ENDBRANCH  20  21
ENDBRANCH   5  20
TORSDOF 13
ENDMDL
MODEL 9
REMARK VINA RESULT:      -6.8      1.616      2.340
REMARK  Name = 
REMARK  17 active torsions:
REMARK  status: ('A' for Active; 'I' for Inactive)
REMARK    1  A    between atoms: C_1  and  C_2
REMARK    2  A    between atoms: C_2  and  N_3
REMARK    3  A    between atoms: N_3  and  C_4
REMARK    4  A    between atoms: N_3  and  C_13
REMARK    5  A    between atoms: C_4  and  C_5
REMARK    6  A    between atoms: C_6  and  C_7
REMARK    7  A    between atoms: C_8  and  C_9
REMARK    8  A    between atoms: C_9  and  C_10
REMARK    9  A    between atoms: C_9  and  C_11
REMARK   10  A    between atoms: C_9  and  C_12
REMARK   11  A    between atoms: C_13  and  C_14
REMARK   12  A    between atoms: C_18  and  O_19
REMARK   13  A    between atoms: O_19  and  C_20
REMARK   14  A    between atoms: C_20  and  C_21
REMARK   15  A    between atoms: C_21  and  C_22
REMARK   16  A    between atoms: C_22  and  S_23
REMARK   17  A    between atoms: S_23  and  C_26
REMARK                            x       y       z     vdW  Elec       q    Type
REMARK                         _______ _______ _______ _____ _____    ______ ____
ROOT
ATOM      1  C   UNL     1       3.039   6.904  18.270  0.00  0.00    +0.000 A 
ATOM      2  C   UNL     1       2.808   8.027  17.467  0.00  0.00    +0.000 A 
ATOM      3  C   UNL     1       2.032   9.085  17.944  0.00  0.00    +0.000 A 
ATOM      4  C   UNL     1       1.507   9.036  19.235  0.00  0.00    +0.000 A 
ATOM      5  C   UNL     1       1.731   7.924  20.047  0.00  0.00    +0.000 A 
ATOM      6  C   UNL     1       2.450   6.841  19.542  0.00  0.00    +0.000 A 
ENDROOT
BRANCH   1   7
ATOM      7  C   UNL     1       3.970   5.796  17.818  0.00  0.00    +0.000 C 
BRANCH   7   8
ATOM      8  N   UNL     1       5.406   6.049  18.080  0.00  0.00    +0.000 NA
BRANCH   8  10
ATOM      9  C   UNL     1       7.449   4.557  17.764  0.00  0.00    +0.000 C 
ATOM     10  C   UNL     1       6.071   4.759  18.386  0.00  0.00    +0.000 C 
ENDBRANCH   8  10
BRANCH   8  11
ATOM     11  C   UNL     1       6.015   6.707  16.906  0.00  0.00    +0.000 C 
BRANCH  11  12
ATOM     12  C   UNL     1       6.727   8.007  17.206  0.00  0.00    +0.000 C 
ATOM     13  C   UNL     1       7.909   8.083  17.842  0.00  0.00    +0.000 C 
BRANCH  13  14
ATOM     14  C   UNL     1       8.527   9.313  18.211  0.00  0.00    +0.000 C 
ATOM     15  C   UNL     1       9.091  10.311  18.582  0.00  0.00    +0.000 C 
BRANCH  15  16
ATOM     16  C   UNL     1       9.784  11.531  19.073  0.00  0.00    +0.000 C 
ATOM     17  C   UNL     1      11.186  11.608  18.458  0.00  0.00    +0.000 C 
ATOM     18  C   UNL     1       8.993  12.788  18.673  0.00  0.00    +0.000 C 
ATOM     19  C   UNL     1       9.901  11.481  20.605  0.00  0.00    +0.000 C 
ENDBRANCH  15  16
ENDBRANCH  13  14
ENDBRANCH  11  12
ENDBRANCH   8  11
ENDBRANCH   7   8
ENDBRANCH   1   7
BRANCH   5  20
ATOM     20  O   UNL     1       1.192   7.985  21.302  0.00  0.00    +0.000 OA
BRANCH  20  21
ATOM     21  C   UNL     1       1.122   9.275  21.915  0.00  0.00    +0.000 C 
BRANCH  21  22
ATOM     22  C   UNL     1      -0.222   9.914  21.592  0.00  0.00    +0.000 C 
BRANCH  22  23
ATOM     23  C   UNL     1      -0.332  11.322  22.156  0.00  0.00    +0.000 C 
BRANCH  23  24
ATOM     24  S   UNL     1      -1.402  12.324  21.145  0.00  0.00    +0.000 S 
ATOM     25  O   UNL     1      -0.823  13.649  21.023  0.00  0.00    +0.000 OA
ATOM     26  O   UNL     1      -1.843  11.574  19.988  0.00  0.00    +0.000 OA
BRANCH  24  27
ATOM     27  C   UNL     1      -2.843  12.567  22.157  0.00  0.00    +0.000 A 
ATOM     28  C   UNL     1      -3.043  12.434  23.518  0.00  0.00    +0.000 A 
ATOM     29  C   UNL     1      -4.390  12.700  23.895  0.00  0.00    +0.000 A 
ATOM     30  C   UNL     1      -5.171  13.034  22.811  0.00  0.00    +0.000 A 
ATOM     31  S   UNL     1      -4.278  13.036  21.352  0.00  0.00    +0.000 S 
ENDBRANCH  24  27
ENDBRANCH  23  24
ENDBRANCH  22  23
ENDBRANCH  21  22
ENDBRANCH  20  21
ENDBRANCH   5  20
TORSDOF 13
ENDMDL
