MODEL 1
REMARK VINA RESULT:      -7.7      0.000      0.000
REMARK  Name = 
REMARK  9 active torsions:
REMARK  status: ('A' for Active; 'I' for Inactive)
REMARK    1  A    between atoms: C_1  and  O_2
REMARK    2  A    between atoms: O_2  and  C_3
REMARK    3  A    between atoms: C_6  and  N_7
REMARK    4  A    between atoms: C_8  and  C_10
REMARK    5  A    between atoms: C_10  and  N_11
REMARK    6  A    between atoms: N_14  and  C_15
REMARK    7  A    between atoms: C_15  and  C_16
REMARK    8  A    between atoms: C_16  and  O_17
REMARK    9  A    between atoms: O_17  and  C_18
REMARK                            x       y       z     vdW  Elec       q    Type
REMARK                         _______ _______ _______ _____ _____    ______ ____
ROOT
ATOM      1  N   UNL     1       7.008   7.031  16.957  0.00  0.00    +0.000 NA
ATOM      2  C   UNL     1       7.421   5.749  16.335  0.00  0.00    +0.000 C 
ATOM      3  C   UNL     1       7.125   4.491  17.192  0.00  0.00    +0.000 C 
ATOM      4  N   UNL     1       5.708   4.358  17.595  0.00  0.00    +0.000 NA
ATOM      5  C   UNL     1       5.295   5.619  18.252  0.00  0.00    +0.000 C 
ATOM      6  C   UNL     1       5.601   6.894  17.423  0.00  0.00    +0.000 C 
ENDROOT
BRANCH   1   7
ATOM      7  C   UNL     1       7.926   7.344  18.077  0.00  0.00    +0.000 C 
BRANCH   7   9
ATOM      8  N   UNL     1       9.110   9.188  19.175  0.00  0.00    +0.000 N 
ATOM      9  C   UNL     1       8.200   8.840  18.188  0.00  0.00    +0.000 C 
ATOM     10  O   UNL     1       7.617   9.608  17.420  0.00  0.00    +0.000 OA
ATOM     11  H   UNL     1       9.522   8.417  19.693  0.00  0.00    +0.000 HD
BRANCH   8  15
ATOM     12  C   UNL     1      10.563  13.106  19.865  0.00  0.00    +0.000 A 
ATOM     13  C   UNL     1       9.936  12.407  20.886  0.00  0.00    +0.000 A 
ATOM     14  C   UNL     1       9.472  11.109  20.675  0.00  0.00    +0.000 A 
ATOM     15  C   UNL     1       9.604  10.488  19.429  0.00  0.00    +0.000 A 
ATOM     16  C   UNL     1      10.228  11.196  18.399  0.00  0.00    +0.000 A 
ATOM     17  C   UNL     1      10.706  12.502  18.615  0.00  0.00    +0.000 A 
BRANCH  12  19
ATOM     18  C   UNL     1      11.828  15.010  19.282  0.00  0.00    +0.000 C 
ATOM     19  O   UNL     1      10.949  14.373  20.197  0.00  0.00    +0.000 OA
ENDBRANCH  12  19
ENDBRANCH   8  15
ENDBRANCH   7   9
ENDBRANCH   1   7
BRANCH   4  20
ATOM     20  C   UNL     1       4.819   4.043  16.457  0.00  0.00    +0.000 C 
BRANCH  20  21
ATOM     21  C   UNL     1       3.382   3.713  16.884  0.00  0.00    +0.000 C 
BRANCH  21  22
ATOM     22  O   UNL     1       3.396   2.565  17.734  0.00  0.00    +0.000 OA
BRANCH  22  23
ATOM     23  C   UNL     1       2.700   2.713  18.904  0.00  0.00    +0.000 A 
ATOM     24  C   UNL     1       3.450   2.537  20.062  0.00  0.00    +0.000 A 
ATOM     25  C   UNL     1       2.851   2.659  21.316  0.00  0.00    +0.000 A 
ATOM     26  C   UNL     1       1.497   2.978  21.414  0.00  0.00    +0.000 A 
ATOM     27  C   UNL     1       0.746   3.181  20.260  0.00  0.00    +0.000 A 
ATOM     28  C   UNL     1       1.345   3.051  19.005  0.00  0.00    +0.000 A 
ENDBRANCH  22  23
ENDBRANCH  21  22
ENDBRANCH  20  21
ENDBRANCH   4  20
TORSDOF 8
ENDMDL
MODEL 2
REMARK VINA RESULT:      -7.2      1.151      1.405
REMARK  Name = 
REMARK  9 active torsions:
REMARK  status: ('A' for Active; 'I' for Inactive)
REMARK    1  A    between atoms: C_1  and  O_2
REMARK    2  A    between atoms: O_2  and  C_3
REMARK    3  A    between atoms: C_6  and  N_7
REMARK    4  A    between atoms: C_8  and  C_10
REMARK    5  A    between atoms: C_10  and  N_11
REMARK    6  A    between atoms: N_14  and  C_15
REMARK    7  A    between atoms: C_15  and  C_16
REMARK    8  A    between atoms: C_16  and  O_17
REMARK    9  A    between atoms: O_17  and  C_18
REMARK                            x       y       z     vdW  Elec       q    Type
REMARK                         _______ _______ _______ _____ _____    ______ ____
ROOT
ATOM      1  N   UNL     1       6.877   7.142  18.245  0.00  0.00    +0.000 NA
ATOM      2  C   UNL     1       5.844   6.888  17.210  0.00  0.00    +0.000 C 
ATOM      3  C   UNL     1       6.177   5.729  16.235  0.00  0.00    +0.000 C 
ATOM      4  N   UNL     1       6.465   4.443  16.906  0.00  0.00    +0.000 NA
ATOM      5  C   UNL     1       7.522   4.676  17.916  0.00  0.00    +0.000 C 
ATOM      6  C   UNL     1       7.222   5.845  18.890  0.00  0.00    +0.000 C 
ENDROOT
BRANCH   1   7
ATOM      7  C   UNL     1       8.059   7.765  17.607  0.00  0.00    +0.000 C 
BRANCH   7   9
ATOM      8  N   UNL     1       9.184   9.364  19.085  0.00  0.00    +0.000 N 
ATOM      9  C   UNL     1       8.260   9.207  18.063  0.00  0.00    +0.000 C 
ATOM     10  O   UNL     1       7.614  10.098  17.509  0.00  0.00    +0.000 OA
ATOM     11  H   UNL     1       9.651   8.519  19.397  0.00  0.00    +0.000 HD
BRANCH   8  15
ATOM     12  C   UNL     1      10.481  13.084  20.642  0.00  0.00    +0.000 A 
ATOM     13  C   UNL     1       9.581  12.306  21.357  0.00  0.00    +0.000 A 
ATOM     14  C   UNL     1       9.164  11.071  20.862  0.00  0.00    +0.000 A 
ATOM     15  C   UNL     1       9.619  10.595  19.628  0.00  0.00    +0.000 A 
ATOM     16  C   UNL     1      10.518  11.382  18.906  0.00  0.00    +0.000 A 
ATOM     17  C   UNL     1      10.948  12.624  19.410  0.00  0.00    +0.000 A 
BRANCH  12  19
ATOM     18  C   UNL     1      11.014  15.361  20.337  0.00  0.00    +0.000 C 
ATOM     19  O   UNL     1      10.791  14.278  21.227  0.00  0.00    +0.000 OA
ENDBRANCH  12  19
ENDBRANCH   8  15
ENDBRANCH   7   9
ENDBRANCH   1   7
BRANCH   4  20
ATOM     20  C   UNL     1       5.264   3.846  17.530  0.00  0.00    +0.000 C 
BRANCH  20  21
ATOM     21  C   UNL     1       3.980   4.088  16.725  0.00  0.00    +0.000 C 
BRANCH  21  22
ATOM     22  O   UNL     1       3.127   4.971  17.455  0.00  0.00    +0.000 OA
BRANCH  22  23
ATOM     23  C   UNL     1       2.420   4.375  18.466  0.00  0.00    +0.000 A 
ATOM     24  C   UNL     1       2.537   4.991  19.707  0.00  0.00    +0.000 A 
ATOM     25  C   UNL     1       1.865   4.475  20.817  0.00  0.00    +0.000 A 
ATOM     26  C   UNL     1       1.058   3.347  20.680  0.00  0.00    +0.000 A 
ATOM     27  C   UNL     1       0.917   2.741  19.436  0.00  0.00    +0.000 A 
ATOM     28  C   UNL     1       1.594   3.253  18.327  0.00  0.00    +0.000 A 
ENDBRANCH  22  23
ENDBRANCH  21  22
ENDBRANCH  20  21
ENDBRANCH   4  20
TORSDOF 8
ENDMDL
MODEL 3
REMARK VINA RESULT:      -7.1      1.328      2.004
REMARK  Name = 
REMARK  9 active torsions:
REMARK  status: ('A' for Active; 'I' for Inactive)
REMARK    1  A    between atoms: C_1  and  O_2
REMARK    2  A    between atoms: O_2  and  C_3
REMARK    3  A    between atoms: C_6  and  N_7
REMARK    4  A    between atoms: C_8  and  C_10
REMARK    5  A    between atoms: C_10  and  N_11
REMARK    6  A    between atoms: N_14  and  C_15
REMARK    7  A    between atoms: C_15  and  C_16
REMARK    8  A    between atoms: C_16  and  O_17
REMARK    9  A    between atoms: O_17  and  C_18
REMARK                            x       y       z     vdW  Elec       q    Type
REMARK                         _______ _______ _______ _____ _____    ______ ____
ROOT
ATOM      1  N   UNL     1       6.604   6.012  18.157  0.00  0.00    +0.000 NA
ATOM      2  C   UNL     1       5.145   6.105  18.410  0.00  0.00    +0.000 C 
ATOM      3  C   UNL     1       4.257   5.895  17.155  0.00  0.00    +0.000 C 
ATOM      4  N   UNL     1       4.508   4.622  16.447  0.00  0.00    +0.000 NA
ATOM      5  C   UNL     1       5.958   4.534  16.156  0.00  0.00    +0.000 C 
ATOM      6  C   UNL     1       6.867   4.762  17.391  0.00  0.00    +0.000 C 
ENDROOT
BRANCH   1   7
ATOM      7  C   UNL     1       7.044   7.212  17.410  0.00  0.00    +0.000 C 
BRANCH   7   9
ATOM      8  N   UNL     1       8.226   9.327  17.779  0.00  0.00    +0.000 N 
ATOM      9  C   UNL     1       8.099   8.005  18.176  0.00  0.00    +0.000 C 
ATOM     10  O   UNL     1       8.737   7.437  19.064  0.00  0.00    +0.000 OA
ATOM     11  H   UNL     1       7.589   9.638  17.052  0.00  0.00    +0.000 HD
BRANCH   8  15
ATOM     12  C   UNL     1      10.743  12.184  19.636  0.00  0.00    +0.000 A 
ATOM     13  C   UNL     1      10.785  12.010  18.260  0.00  0.00    +0.000 A 
ATOM     14  C   UNL     1       9.947  11.086  17.637  0.00  0.00    +0.000 A 
ATOM     15  C   UNL     1       9.061  10.298  18.379  0.00  0.00    +0.000 A 
ATOM     16  C   UNL     1       9.026  10.468  19.765  0.00  0.00    +0.000 A 
ATOM     17  C   UNL     1       9.864  11.408  20.393  0.00  0.00    +0.000 A 
BRANCH  12  19
ATOM     18  C   UNL     1      11.087  14.376  20.436  0.00  0.00    +0.000 C 
ATOM     19  O   UNL     1      11.629  13.103  20.120  0.00  0.00    +0.000 OA
ENDBRANCH  12  19
ENDBRANCH   8  15
ENDBRANCH   7   9
ENDBRANCH   1   7
BRANCH   4  20
ATOM     20  C   UNL     1       4.055   3.443  17.217  0.00  0.00    +0.000 C 
BRANCH  20  21
ATOM     21  C   UNL     1       2.647   2.972  16.828  0.00  0.00    +0.000 C 
BRANCH  21  22
ATOM     22  O   UNL     1       1.681   3.727  17.560  0.00  0.00    +0.000 OA
BRANCH  22  23
ATOM     23  C   UNL     1       1.763   3.593  18.921  0.00  0.00    +0.000 A 
ATOM     24  C   UNL     1       1.979   4.778  19.616  0.00  0.00    +0.000 A 
ATOM     25  C   UNL     1       2.085   4.771  21.007  0.00  0.00    +0.000 A 
ATOM     26  C   UNL     1       1.955   3.574  21.710  0.00  0.00    +0.000 A 
ATOM     27  C   UNL     1       1.712   2.388  21.022  0.00  0.00    +0.000 A 
ATOM     28  C   UNL     1       1.614   2.395  19.630  0.00  0.00    +0.000 A 
ENDBRANCH  22  23
ENDBRANCH  21  22
ENDBRANCH  20  21
ENDBRANCH   4  20
TORSDOF 8
ENDMDL
MODEL 4
REMARK VINA RESULT:      -7.1      0.776      1.262
REMARK  Name = 
REMARK  9 active torsions:
REMARK  status: ('A' for Active; 'I' for Inactive)
REMARK    1  A    between atoms: C_1  and  O_2
REMARK    2  A    between atoms: O_2  and  C_3
REMARK    3  A    between atoms: C_6  and  N_7
REMARK    4  A    between atoms: C_8  and  C_10
REMARK    5  A    between atoms: C_10  and  N_11
REMARK    6  A    between atoms: N_14  and  C_15
REMARK    7  A    between atoms: C_15  and  C_16
REMARK    8  A    between atoms: C_16  and  O_17
REMARK    9  A    between atoms: O_17  and  C_18
REMARK                            x       y       z     vdW  Elec       q    Type
REMARK                         _______ _______ _______ _____ _____    ______ ____
ROOT
ATOM      1  N   UNL     1       6.890   7.082  17.162  0.00  0.00    +0.000 NA
ATOM      2  C   UNL     1       7.275   5.900  16.353  0.00  0.00    +0.000 C 
ATOM      3  C   UNL     1       7.252   4.554  17.124  0.00  0.00    +0.000 C 
ATOM      4  N   UNL     1       5.956   4.253  17.769  0.00  0.00    +0.000 NA
ATOM      5  C   UNL     1       5.579   5.412  18.610  0.00  0.00    +0.000 C 
ATOM      6  C   UNL     1       5.616   6.773  17.866  0.00  0.00    +0.000 C 
ENDROOT
BRANCH   1   7
ATOM      7  C   UNL     1       7.980   7.392  18.116  0.00  0.00    +0.000 C 
BRANCH   7   9
ATOM      8  N   UNL     1       9.123   9.253  19.228  0.00  0.00    +0.000 N 
ATOM      9  C   UNL     1       8.223   8.893  18.237  0.00  0.00    +0.000 C 
ATOM     10  O   UNL     1       7.627   9.652  17.471  0.00  0.00    +0.000 OA
ATOM     11  H   UNL     1       9.549   8.488  19.743  0.00  0.00    +0.000 HD
BRANCH   8  15
ATOM     12  C   UNL     1      10.541  13.151  20.088  0.00  0.00    +0.000 A 
ATOM     13  C   UNL     1      10.780  12.582  18.845  0.00  0.00    +0.000 A 
ATOM     14  C   UNL     1      10.300  11.308  18.545  0.00  0.00    +0.000 A 
ATOM     15  C   UNL     1       9.589  10.562  19.491  0.00  0.00    +0.000 A 
ATOM     16  C   UNL     1       9.357  11.132  20.744  0.00  0.00    +0.000 A 
ATOM     17  C   UNL     1       9.831  12.423  21.043  0.00  0.00    +0.000 A 
BRANCH  12  19
ATOM     18  C   UNL     1      10.651  15.386  19.341  0.00  0.00    +0.000 C 
ATOM     19  O   UNL     1      11.084  14.392  20.258  0.00  0.00    +0.000 OA
ENDBRANCH  12  19
ENDBRANCH   8  15
ENDBRANCH   7   9
ENDBRANCH   1   7
BRANCH   4  20
ATOM     20  C   UNL     1       4.891   3.946  16.790  0.00  0.00    +0.000 C 
BRANCH  20  21
ATOM     21  C   UNL     1       3.585   4.706  17.059  0.00  0.00    +0.000 C 
BRANCH  21  22
ATOM     22  O   UNL     1       2.539   3.769  17.317  0.00  0.00    +0.000 OA
BRANCH  22  23
ATOM     23  C   UNL     1       2.131   3.715  18.624  0.00  0.00    +0.000 A 
ATOM     24  C   UNL     1       1.950   2.433  19.132  0.00  0.00    +0.000 A 
ATOM     25  C   UNL     1       1.531   2.250  20.451  0.00  0.00    +0.000 A 
ATOM     26  C   UNL     1       1.311   3.354  21.273  0.00  0.00    +0.000 A 
ATOM     27  C   UNL     1       1.516   4.639  20.778  0.00  0.00    +0.000 A 
ATOM     28  C   UNL     1       1.928   4.822  19.457  0.00  0.00    +0.000 A 
ENDBRANCH  22  23
ENDBRANCH  21  22
ENDBRANCH  20  21
ENDBRANCH   4  20
TORSDOF 8
ENDMDL
MODEL 5
REMARK VINA RESULT:      -7.0      1.110      1.200
REMARK  Name = 
REMARK  9 active torsions:
REMARK  status: ('A' for Active; 'I' for Inactive)
REMARK    1  A    between atoms: C_1  and  O_2
REMARK    2  A    between atoms: O_2  and  C_3
REMARK    3  A    between atoms: C_6  and  N_7
REMARK    4  A    between atoms: C_8  and  C_10
REMARK    5  A    between atoms: C_10  and  N_11
REMARK    6  A    between atoms: N_14  and  C_15
REMARK    7  A    between atoms: C_15  and  C_16
REMARK    8  A    between atoms: C_16  and  O_17
REMARK    9  A    between atoms: O_17  and  C_18
REMARK                            x       y       z     vdW  Elec       q    Type
REMARK                         _______ _______ _______ _____ _____    ______ ____
ROOT
ATOM      1  N   UNL     1       6.758   6.987  17.091  0.00  0.00    +0.000 NA
ATOM      2  C   UNL     1       7.103   5.839  16.216  0.00  0.00    +0.000 C 
ATOM      3  C   UNL     1       7.152   4.468  16.939  0.00  0.00    +0.000 C 
ATOM      4  N   UNL     1       5.908   4.123  17.660  0.00  0.00    +0.000 NA
ATOM      5  C   UNL     1       5.573   5.247  18.565  0.00  0.00    +0.000 C 
ATOM      6  C   UNL     1       5.539   6.632  17.869  0.00  0.00    +0.000 C 
ENDROOT
BRANCH   1   7
ATOM      7  C   UNL     1       7.906   7.282  17.978  0.00  0.00    +0.000 C 
BRANCH   7   9
ATOM      8  N   UNL     1       9.035   9.130  19.125  0.00  0.00    +0.000 N 
ATOM      9  C   UNL     1       8.149   8.781  18.117  0.00  0.00    +0.000 C 
ATOM     10  O   UNL     1       7.565   9.549  17.350  0.00  0.00    +0.000 OA
ATOM     11  H   UNL     1       9.452   8.360  19.638  0.00  0.00    +0.000 HD
BRANCH   8  15
ATOM     12  C   UNL     1      10.393  13.066  19.902  0.00  0.00    +0.000 A 
ATOM     13  C   UNL     1       9.868  12.296  20.930  0.00  0.00    +0.000 A 
ATOM     14  C   UNL     1       9.437  10.992  20.689  0.00  0.00    +0.000 A 
ATOM     15  C   UNL     1       9.499  10.436  19.407  0.00  0.00    +0.000 A 
ATOM     16  C   UNL     1      10.020  11.215  18.371  0.00  0.00    +0.000 A 
ATOM     17  C   UNL     1      10.466  12.527  18.617  0.00  0.00    +0.000 A 
BRANCH  12  19
ATOM     18  C   UNL     1      10.876  15.269  19.210  0.00  0.00    +0.000 C 
ATOM     19  O   UNL     1      10.757  14.330  20.268  0.00  0.00    +0.000 OA
ENDBRANCH  12  19
ENDBRANCH   8  15
ENDBRANCH   7   9
ENDBRANCH   1   7
BRANCH   4  20
ATOM     20  C   UNL     1       4.782   3.832  16.747  0.00  0.00    +0.000 C 
BRANCH  20  21
ATOM     21  C   UNL     1       3.777   2.828  17.327  0.00  0.00    +0.000 C 
BRANCH  21  22
ATOM     22  O   UNL     1       2.476   3.418  17.337  0.00  0.00    +0.000 OA
BRANCH  22  23
ATOM     23  C   UNL     1       2.187   4.144  18.462  0.00  0.00    +0.000 A 
ATOM     24  C   UNL     1       1.865   3.387  19.584  0.00  0.00    +0.000 A 
ATOM     25  C   UNL     1       1.548   4.013  20.790  0.00  0.00    +0.000 A 
ATOM     26  C   UNL     1       1.571   5.404  20.881  0.00  0.00    +0.000 A 
ATOM     27  C   UNL     1       1.917   6.167  19.769  0.00  0.00    +0.000 A 
ATOM     28  C   UNL     1       2.227   5.540  18.560  0.00  0.00    +0.000 A 
ENDBRANCH  22  23
ENDBRANCH  21  22
ENDBRANCH  20  21
ENDBRANCH   4  20
TORSDOF 8
ENDMDL
MODEL 6
REMARK VINA RESULT:      -7.0      0.864      1.465
REMARK  Name = 
REMARK  9 active torsions:
REMARK  status: ('A' for Active; 'I' for Inactive)
REMARK    1  A    between atoms: C_1  and  O_2
REMARK    2  A    between atoms: O_2  and  C_3
REMARK    3  A    between atoms: C_6  and  N_7
REMARK    4  A    between atoms: C_8  and  C_10
REMARK    5  A    between atoms: C_10  and  N_11
REMARK    6  A    between atoms: N_14  and  C_15
REMARK    7  A    between atoms: C_15  and  C_16
REMARK    8  A    between atoms: C_16  and  O_17
REMARK    9  A    between atoms: O_17  and  C_18
REMARK                            x       y       z     vdW  Elec       q    Type
REMARK                         _______ _______ _______ _____ _____    ______ ____
ROOT
ATOM      1  N   UNL     1       6.357   6.822  18.161  0.00  0.00    +0.000 NA
ATOM      2  C   UNL     1       5.449   6.926  16.993  0.00  0.00    +0.000 C 
ATOM      3  C   UNL     1       5.667   5.842  15.906  0.00  0.00    +0.000 C 
ATOM      4  N   UNL     1       5.585   4.456  16.414  0.00  0.00    +0.000 NA
ATOM      5  C   UNL     1       6.516   4.329  17.558  0.00  0.00    +0.000 C 
ATOM      6  C   UNL     1       6.332   5.415  18.649  0.00  0.00    +0.000 C 
ENDROOT
BRANCH   1   7
ATOM      7  C   UNL     1       7.720   7.234  17.754  0.00  0.00    +0.000 C 
BRANCH   7   9
ATOM      8  N   UNL     1       8.940   8.987  18.956  0.00  0.00    +0.000 N 
ATOM      9  C   UNL     1       7.966   8.718  18.007  0.00  0.00    +0.000 C 
ATOM     10  O   UNL     1       7.309   9.543  17.371  0.00  0.00    +0.000 OA
ATOM     11  H   UNL     1       9.408   8.179  19.356  0.00  0.00    +0.000 HD
BRANCH   8  15
ATOM     12  C   UNL     1      10.406  12.794  20.094  0.00  0.00    +0.000 A 
ATOM     13  C   UNL     1      10.583  12.341  18.795  0.00  0.00    +0.000 A 
ATOM     14  C   UNL     1      10.087  11.097  18.405  0.00  0.00    +0.000 A 
ATOM     15  C   UNL     1       9.421  10.267  19.313  0.00  0.00    +0.000 A 
ATOM     16  C   UNL     1       9.251  10.722  20.623  0.00  0.00    +0.000 A 
ATOM     17  C   UNL     1       9.742  11.981  21.013  0.00  0.00    +0.000 A 
BRANCH  12  19
ATOM     18  C   UNL     1      10.366  14.752  21.410  0.00  0.00    +0.000 C 
ATOM     19  O   UNL     1      10.958  14.017  20.349  0.00  0.00    +0.000 OA
ENDBRANCH  12  19
ENDBRANCH   8  15
ENDBRANCH   7   9
ENDBRANCH   1   7
BRANCH   4  20
ATOM     20  C   UNL     1       4.212   4.074  16.809  0.00  0.00    +0.000 C 
BRANCH  20  21
ATOM     21  C   UNL     1       4.105   2.623  17.296  0.00  0.00    +0.000 C 
BRANCH  21  22
ATOM     22  O   UNL     1       2.739   2.325  17.587  0.00  0.00    +0.000 OA
BRANCH  22  23
ATOM     23  C   UNL     1       2.309   2.754  18.815  0.00  0.00    +0.000 A 
ATOM     24  C   UNL     1       3.110   2.372  19.885  0.00  0.00    +0.000 A 
ATOM     25  C   UNL     1       2.774   2.747  21.187  0.00  0.00    +0.000 A 
ATOM     26  C   UNL     1       1.641   3.524  21.418  0.00  0.00    +0.000 A 
ATOM     27  C   UNL     1       0.849   3.932  20.349  0.00  0.00    +0.000 A 
ATOM     28  C   UNL     1       1.181   3.551  19.047  0.00  0.00    +0.000 A 
ENDBRANCH  22  23
ENDBRANCH  21  22
ENDBRANCH  20  21
ENDBRANCH   4  20
TORSDOF 8
ENDMDL
MODEL 7
REMARK VINA RESULT:      -7.0      1.058      1.448
REMARK  Name = 
REMARK  9 active torsions:
REMARK  status: ('A' for Active; 'I' for Inactive)
REMARK    1  A    between atoms: C_1  and  O_2
REMARK    2  A    between atoms: O_2  and  C_3
REMARK    3  A    between atoms: C_6  and  N_7
REMARK    4  A    between atoms: C_8  and  C_10
REMARK    5  A    between atoms: C_10  and  N_11
REMARK    6  A    between atoms: N_14  and  C_15
REMARK    7  A    between atoms: C_15  and  C_16
REMARK    8  A    between atoms: C_16  and  O_17
REMARK    9  A    between atoms: O_17  and  C_18
REMARK                            x       y       z     vdW  Elec       q    Type
REMARK                         _______ _______ _______ _____ _____    ______ ____
ROOT
ATOM      1  N   UNL     1       6.900   6.489  17.988  0.00  0.00    +0.000 NA
ATOM      2  C   UNL     1       5.424   6.376  17.882  0.00  0.00    +0.000 C 
ATOM      3  C   UNL     1       4.908   5.948  16.484  0.00  0.00    +0.000 C 
ATOM      4  N   UNL     1       5.490   4.682  15.988  0.00  0.00    +0.000 NA
ATOM      5  C   UNL     1       6.965   4.797  16.054  0.00  0.00    +0.000 C 
ATOM      6  C   UNL     1       7.505   5.245  17.437  0.00  0.00    +0.000 C 
ENDROOT
BRANCH   1   7
ATOM      7  C   UNL     1       7.349   7.689  17.245  0.00  0.00    +0.000 C 
BRANCH   7   9
ATOM      8  N   UNL     1       8.350   9.891  17.639  0.00  0.00    +0.000 N 
ATOM      9  C   UNL     1       8.239   8.587  18.098  0.00  0.00    +0.000 C 
ATOM     10  O   UNL     1       8.774   8.110  19.100  0.00  0.00    +0.000 OA
ATOM     11  H   UNL     1       7.807  10.120  16.811  0.00  0.00    +0.000 HD
BRANCH   8  15
ATOM     12  C   UNL     1      10.345  13.089  19.571  0.00  0.00    +0.000 A 
ATOM     13  C   UNL     1      10.504  11.790  20.032  0.00  0.00    +0.000 A 
ATOM     14  C   UNL     1       9.868  10.728  19.390  0.00  0.00    +0.000 A 
ATOM     15  C   UNL     1       9.037  10.943  18.286  0.00  0.00    +0.000 A 
ATOM     16  C   UNL     1       8.871  12.252  17.828  0.00  0.00    +0.000 A 
ATOM     17  C   UNL     1       9.522  13.323  18.468  0.00  0.00    +0.000 A 
BRANCH  12  19
ATOM     18  C   UNL     1      11.087  15.324  19.709  0.00  0.00    +0.000 C 
ATOM     19  O   UNL     1      11.004  14.036  20.301  0.00  0.00    +0.000 OA
ENDBRANCH  12  19
ENDBRANCH   8  15
ENDBRANCH   7   9
ENDBRANCH   1   7
BRANCH   4  20
ATOM     20  C   UNL     1       5.021   3.504  16.748  0.00  0.00    +0.000 C 
BRANCH  20  21
ATOM     21  C   UNL     1       3.520   3.547  17.065  0.00  0.00    +0.000 C 
BRANCH  21  22
ATOM     22  O   UNL     1       3.159   2.374  17.794  0.00  0.00    +0.000 OA
BRANCH  22  23
ATOM     23  C   UNL     1       2.501   2.613  18.971  0.00  0.00    +0.000 A 
ATOM     24  C   UNL     1       3.291   2.534  20.113  0.00  0.00    +0.000 A 
ATOM     25  C   UNL     1       2.733   2.755  21.373  0.00  0.00    +0.000 A 
ATOM     26  C   UNL     1       1.381   3.075  21.491  0.00  0.00    +0.000 A 
ATOM     27  C   UNL     1       0.591   3.181  20.350  0.00  0.00    +0.000 A 
ATOM     28  C   UNL     1       1.148   2.953  19.090  0.00  0.00    +0.000 A 
ENDBRANCH  22  23
ENDBRANCH  21  22
ENDBRANCH  20  21
ENDBRANCH   4  20
TORSDOF 8
ENDMDL
MODEL 8
REMARK VINA RESULT:      -6.8      0.922      1.284
REMARK  Name = 
REMARK  9 active torsions:
REMARK  status: ('A' for Active; 'I' for Inactive)
REMARK    1  A    between atoms: C_1  and  O_2
REMARK    2  A    between atoms: O_2  and  C_3
REMARK    3  A    between atoms: C_6  and  N_7
REMARK    4  A    between atoms: C_8  and  C_10
REMARK    5  A    between atoms: C_10  and  N_11
REMARK    6  A    between atoms: N_14  and  C_15
REMARK    7  A    between atoms: C_15  and  C_16
REMARK    8  A    between atoms: C_16  and  O_17
REMARK    9  A    between atoms: O_17  and  C_18
REMARK                            x       y       z     vdW  Elec       q    Type
REMARK                         _______ _______ _______ _____ _____    ______ ____
ROOT
ATOM      1  N   UNL     1       6.869   6.671  18.227  0.00  0.00    +0.000 NA
ATOM      2  C   UNL     1       5.594   6.730  17.471  0.00  0.00    +0.000 C 
ATOM      3  C   UNL     1       5.561   5.857  16.190  0.00  0.00    +0.000 C 
ATOM      4  N   UNL     1       5.877   4.431  16.426  0.00  0.00    +0.000 NA
ATOM      5  C   UNL     1       7.168   4.358  17.147  0.00  0.00    +0.000 C 
ATOM      6  C   UNL     1       7.233   5.240  18.421  0.00  0.00    +0.000 C 
ENDROOT
BRANCH   1   7
ATOM      7  C   UNL     1       7.913   7.402  17.473  0.00  0.00    +0.000 C 
BRANCH   7   9
ATOM      8  N   UNL     1       9.021   9.114  18.833  0.00  0.00    +0.000 N 
ATOM      9  C   UNL     1       8.017   8.859  17.911  0.00  0.00    +0.000 C 
ATOM     10  O   UNL     1       7.234   9.679  17.429  0.00  0.00    +0.000 OA
ATOM     11  H   UNL     1       9.599   8.320  19.094  0.00  0.00    +0.000 HD
BRANCH   8  15
ATOM     12  C   UNL     1      10.083  12.955  20.268  0.00  0.00    +0.000 A 
ATOM     13  C   UNL     1       9.608  11.991  21.146  0.00  0.00    +0.000 A 
ATOM     14  C   UNL     1       9.275  10.717  20.687  0.00  0.00    +0.000 A 
ATOM     15  C   UNL     1       9.387  10.385  19.333  0.00  0.00    +0.000 A 
ATOM     16  C   UNL     1       9.857  11.358  18.449  0.00  0.00    +0.000 A 
ATOM     17  C   UNL     1      10.204  12.641  18.914  0.00  0.00    +0.000 A 
BRANCH  12  19
ATOM     18  C   UNL     1      11.432  14.890  20.275  0.00  0.00    +0.000 C 
ATOM     19  O   UNL     1      10.352  14.164  20.842  0.00  0.00    +0.000 OA
ENDBRANCH  12  19
ENDBRANCH   8  15
ENDBRANCH   7   9
ENDBRANCH   1   7
BRANCH   4  20
ATOM     20  C   UNL     1       4.814   3.730  17.177  0.00  0.00    +0.000 C 
BRANCH  20  21
ATOM     21  C   UNL     1       3.404   4.029  16.652  0.00  0.00    +0.000 C 
BRANCH  21  22
ATOM     22  O   UNL     1       2.489   3.074  17.191  0.00  0.00    +0.000 OA
BRANCH  22  23
ATOM     23  C   UNL     1       2.113   3.311  18.487  0.00  0.00    +0.000 A 
ATOM     24  C   UNL     1       2.042   2.182  19.295  0.00  0.00    +0.000 A 
ATOM     25  C   UNL     1       1.667   2.296  20.635  0.00  0.00    +0.000 A 
ATOM     26  C   UNL     1       1.379   3.549  21.174  0.00  0.00    +0.000 A 
ATOM     27  C   UNL     1       1.474   4.686  20.377  0.00  0.00    +0.000 A 
ATOM     28  C   UNL     1       1.842   4.571  19.036  0.00  0.00    +0.000 A 
ENDBRANCH  22  23
ENDBRANCH  21  22
ENDBRANCH  20  21
ENDBRANCH   4  20
TORSDOF 8
ENDMDL
MODEL 9
REMARK VINA RESULT:      -6.8      1.773      2.319
REMARK  Name = 
REMARK  9 active torsions:
REMARK  status: ('A' for Active; 'I' for Inactive)
REMARK    1  A    between atoms: C_1  and  O_2
REMARK    2  A    between atoms: O_2  and  C_3
REMARK    3  A    between atoms: C_6  and  N_7
REMARK    4  A    between atoms: C_8  and  C_10
REMARK    5  A    between atoms: C_10  and  N_11
REMARK    6  A    between atoms: N_14  and  C_15
REMARK    7  A    between atoms: C_15  and  C_16
REMARK    8  A    between atoms: C_16  and  O_17
REMARK    9  A    between atoms: O_17  and  C_18
REMARK                            x       y       z     vdW  Elec       q    Type
REMARK                         _______ _______ _______ _____ _____    ______ ____
ROOT
ATOM      1  N   UNL     1       6.917   7.079  17.236  0.00  0.00    +0.000 NA
ATOM      2  C   UNL     1       7.201   5.897  16.386  0.00  0.00    +0.000 C 
ATOM      3  C   UNL     1       7.275   4.552  17.154  0.00  0.00    +0.000 C 
ATOM      4  N   UNL     1       6.068   4.249  17.952  0.00  0.00    +0.000 NA
ATOM      5  C   UNL     1       5.795   5.407  18.833  0.00  0.00    +0.000 C 
ATOM      6  C   UNL     1       5.738   6.768  18.091  0.00  0.00    +0.000 C 
ENDROOT
BRANCH   1   7
ATOM      7  C   UNL     1       8.114   7.391  18.049  0.00  0.00    +0.000 C 
BRANCH   7   9
ATOM      8  N   UNL     1       9.214   9.248  19.211  0.00  0.00    +0.000 N 
ATOM      9  C   UNL     1       8.314   8.894  18.218  0.00  0.00    +0.000 C 
ATOM     10  O   UNL     1       7.687   9.660  17.484  0.00  0.00    +0.000 OA
ATOM     11  H   UNL     1       9.668   8.479  19.696  0.00  0.00    +0.000 HD
BRANCH   8  15
ATOM     12  C   UNL     1      10.529  13.155  20.186  0.00  0.00    +0.000 A 
ATOM     13  C   UNL     1      10.725  12.653  18.907  0.00  0.00    +0.000 A 
ATOM     14  C   UNL     1      10.278  11.376  18.570  0.00  0.00    +0.000 A 
ATOM     15  C   UNL     1       9.644  10.560  19.513  0.00  0.00    +0.000 A 
ATOM     16  C   UNL     1       9.454  11.063  20.803  0.00  0.00    +0.000 A 
ATOM     17  C   UNL     1       9.896  12.356  21.139  0.00  0.00    +0.000 A 
BRANCH  12  19
ATOM     18  C   UNL     1      10.923  15.302  19.292  0.00  0.00    +0.000 C 
ATOM     19  O   UNL     1      11.033  14.407  20.389  0.00  0.00    +0.000 OA
ENDBRANCH  12  19
ENDBRANCH   8  15
ENDBRANCH   7   9
ENDBRANCH   1   7
BRANCH   4  20
ATOM     20  C   UNL     1       4.892   3.939  17.112  0.00  0.00    +0.000 C 
BRANCH  20  21
ATOM     21  C   UNL     1       3.599   3.765  17.921  0.00  0.00    +0.000 C 
BRANCH  21  22
ATOM     22  O   UNL     1       2.654   4.755  17.517  0.00  0.00    +0.000 OA
BRANCH  22  23
ATOM     23  C   UNL     1       2.348   5.679  18.481  0.00  0.00    +0.000 A 
ATOM     24  C   UNL     1       2.277   6.994  18.034  0.00  0.00    +0.000 A 
ATOM     25  C   UNL     1       1.976   8.027  18.924  0.00  0.00    +0.000 A 
ATOM     26  C   UNL     1       1.725   7.740  20.265  0.00  0.00    +0.000 A 
ATOM     27  C   UNL     1       1.769   6.423  20.713  0.00  0.00    +0.000 A 
ATOM     28  C   UNL     1       2.077   5.392  19.824  0.00  0.00    +0.000 A 
ENDBRANCH  22  23
ENDBRANCH  21  22
ENDBRANCH  20  21
ENDBRANCH   4  20
TORSDOF 8
ENDMDL
