MODEL 1
REMARK VINA RESULT:      -7.3      0.000      0.000
REMARK  Name = 
REMARK  12 active torsions:
REMARK  status: ('A' for Active; 'I' for Inactive)
REMARK    1  A    between atoms: C_1  and  C_2
REMARK    2  A    between atoms: C_2  and  N_3
REMARK    3  A    between atoms: C_2  and  C_16
REMARK    4  A    between atoms: C_4  and  C_6
REMARK    5  A    between atoms: C_6  and  N_7
REMARK    6  A    between atoms: C_6  and  C_8
REMARK    7  A    between atoms: C_8  and  C_9
REMARK    8  A    between atoms: C_12  and  O_13
REMARK    9  A    between atoms: N_18  and  C_19
REMARK   10  A    between atoms: C_19  and  C_20
REMARK   11  A    between atoms: N_22  and  C_23
REMARK   12  A    between atoms: C_23  and  C_24
REMARK                            x       y       z     vdW  Elec       q    Type
REMARK                         _______ _______ _______ _____ _____    ______ ____
ROOT
ATOM      1  C   UNL     1       2.673   8.479  17.754  0.00  0.00    +0.000 C 
ATOM      2  C   UNL     1       3.093   7.299  18.628  0.00  0.00    +0.000 C 
ENDROOT
BRANCH   2   3
ATOM      3  N   UNL     1       3.090   6.072  17.829  0.00  0.00    +0.000 N 
ATOM      4  C   UNL     1       4.230   5.321  17.625  0.00  0.00    +0.000 C 
ATOM      5  O   UNL     1       5.329   5.668  18.066  0.00  0.00    +0.000 OA
ATOM      6  H   UNL     1       2.195   5.624  17.678  0.00  0.00    +0.000 HD
BRANCH   4   7
ATOM      7  C   UNL     1       4.039   4.027  16.798  0.00  0.00    +0.000 C 
BRANCH   7   8
ATOM      8  N   UNL     1       4.960   4.025  15.643  0.00  0.00    +0.000 NA
ATOM      9  H   UNL     1       5.484   4.890  15.580  0.00  0.00    +0.000 HD
ATOM     10  H   UNL     1       4.431   3.908  14.780  0.00  0.00    +0.000 HD
ENDBRANCH   7   8
BRANCH   7  11
ATOM     11  C   UNL     1       4.224   2.791  17.703  0.00  0.00    +0.000 C 
BRANCH  11  12
ATOM     12  C   UNL     1       3.315   2.727  18.911  0.00  0.00    +0.000 A 
ATOM     13  C   UNL     1       1.922   2.676  18.745  0.00  0.00    +0.000 A 
ATOM     14  C   UNL     1       1.071   2.619  19.853  0.00  0.00    +0.000 A 
ATOM     15  C   UNL     1       1.614   2.611  21.133  0.00  0.00    +0.000 A 
ATOM     16  C   UNL     1       2.990   2.649  21.319  0.00  0.00    +0.000 A 
ATOM     17  C   UNL     1       3.840   2.701  20.211  0.00  0.00    +0.000 A 
BRANCH  15  18
ATOM     18  O   UNL     1       0.821   2.565  22.241  0.00  0.00    +0.000 OA
ATOM     19  H   UNL     1       0.138   3.250  22.158  0.00  0.00    +0.000 HD
ENDBRANCH  15  18
ENDBRANCH  11  12
ENDBRANCH   7  11
ENDBRANCH   4   7
ENDBRANCH   2   3
BRANCH   2  20
ATOM     20  C   UNL     1       2.117   7.146  19.813  0.00  0.00    +0.000 C 
ATOM     21  O   UNL     1       1.898   6.063  20.356  0.00  0.00    +0.000 OA
ATOM     22  N   UNL     1       1.591   8.322  20.287  0.00  0.00    +0.000 N 
ATOM     23  H   UNL     1       1.854   9.212  19.863  0.00  0.00    +0.000 HD
BRANCH  22  24
ATOM     24  C   UNL     1       0.696   8.372  21.431  0.00  0.00    +0.000 C 
BRANCH  24  25
ATOM     25  C   UNL     1      -0.212   9.602  21.324  0.00  0.00    +0.000 C 
ATOM     26  O   UNL     1      -0.787  10.073  22.304  0.00  0.00    +0.000 OA
ATOM     27  N   UNL     1      -0.319  10.139  20.060  0.00  0.00    +0.000 N 
ATOM     28  H   UNL     1       0.140   9.692  19.278  0.00  0.00    +0.000 HD
BRANCH  27  29
ATOM     29  C   UNL     1      -1.156  11.291  19.784  0.00  0.00    +0.000 C 
BRANCH  29  30
ATOM     30  C   UNL     1      -2.077  11.012  18.624  0.00  0.00    +0.000 A 
ATOM     31  C   UNL     1      -1.672  10.154  17.592  0.00  0.00    +0.000 A 
ATOM     32  C   UNL     1      -2.482   9.963  16.471  0.00  0.00    +0.000 A 
ATOM     33  C   UNL     1      -3.704  10.626  16.371  0.00  0.00    +0.000 A 
ATOM     34  C   UNL     1      -4.128  11.462  17.402  0.00  0.00    +0.000 A 
ATOM     35  C   UNL     1      -3.320  11.654  18.525  0.00  0.00    +0.000 A 
ENDBRANCH  29  30
ENDBRANCH  27  29
ENDBRANCH  24  25
ENDBRANCH  22  24
ENDBRANCH   2  20
TORSDOF 11
ENDMDL
MODEL 2
REMARK VINA RESULT:      -7.1      4.837      8.729
REMARK  Name = 
REMARK  12 active torsions:
REMARK  status: ('A' for Active; 'I' for Inactive)
REMARK    1  A    between atoms: C_1  and  C_2
REMARK    2  A    between atoms: C_2  and  N_3
REMARK    3  A    between atoms: C_2  and  C_16
REMARK    4  A    between atoms: C_4  and  C_6
REMARK    5  A    between atoms: C_6  and  N_7
REMARK    6  A    between atoms: C_6  and  C_8
REMARK    7  A    between atoms: C_8  and  C_9
REMARK    8  A    between atoms: C_12  and  O_13
REMARK    9  A    between atoms: N_18  and  C_19
REMARK   10  A    between atoms: C_19  and  C_20
REMARK   11  A    between atoms: N_22  and  C_23
REMARK   12  A    between atoms: C_23  and  C_24
REMARK                            x       y       z     vdW  Elec       q    Type
REMARK                         _______ _______ _______ _____ _____    ______ ____
ROOT
ATOM      1  C   UNL     1       5.577   4.003  15.461  0.00  0.00    +0.000 C 
ATOM      2  C   UNL     1       5.761   3.860  16.970  0.00  0.00    +0.000 C 
ENDROOT
BRANCH   2   3
ATOM      3  N   UNL     1       4.587   4.396  17.660  0.00  0.00    +0.000 N 
ATOM      4  C   UNL     1       4.043   5.624  17.345  0.00  0.00    +0.000 C 
ATOM      5  O   UNL     1       4.546   6.363  16.495  0.00  0.00    +0.000 OA
ATOM      6  H   UNL     1       4.005   3.735  18.160  0.00  0.00    +0.000 HD
BRANCH   4   7
ATOM      7  C   UNL     1       2.773   6.016  18.139  0.00  0.00    +0.000 C 
BRANCH   7   8
ATOM      8  N   UNL     1       2.263   4.848  18.885  0.00  0.00    +0.000 NA
ATOM      9  H   UNL     1       1.477   4.414  18.413  0.00  0.00    +0.000 HD
ATOM     10  H   UNL     1       1.958   5.137  19.813  0.00  0.00    +0.000 HD
ENDBRANCH   7   8
BRANCH   7  11
ATOM     11  C   UNL     1       3.076   7.218  19.059  0.00  0.00    +0.000 C 
BRANCH  11  12
ATOM     12  C   UNL     1       1.959   8.229  19.197  0.00  0.00    +0.000 A 
ATOM     13  C   UNL     1       1.571   9.007  18.094  0.00  0.00    +0.000 A 
ATOM     14  C   UNL     1       0.542   9.947  18.208  0.00  0.00    +0.000 A 
ATOM     15  C   UNL     1      -0.104  10.109  19.428  0.00  0.00    +0.000 A 
ATOM     16  C   UNL     1       0.257   9.342  20.529  0.00  0.00    +0.000 A 
ATOM     17  C   UNL     1       1.282   8.400  20.413  0.00  0.00    +0.000 A 
BRANCH  15  18
ATOM     18  O   UNL     1      -1.106  11.020  19.587  0.00  0.00    +0.000 OA
ATOM     19  H   UNL     1      -1.815  10.809  18.958  0.00  0.00    +0.000 HD
ENDBRANCH  15  18
ENDBRANCH  11  12
ENDBRANCH   7  11
ENDBRANCH   4   7
ENDBRANCH   2   3
BRANCH   2  20
ATOM     20  C   UNL     1       7.022   4.626  17.424  0.00  0.00    +0.000 C 
ATOM     21  O   UNL     1       8.140   4.397  16.962  0.00  0.00    +0.000 OA
ATOM     22  N   UNL     1       6.790   5.654  18.303  0.00  0.00    +0.000 N 
ATOM     23  H   UNL     1       5.840   5.868  18.607  0.00  0.00    +0.000 HD
BRANCH  22  24
ATOM     24  C   UNL     1       7.852   6.516  18.794  0.00  0.00    +0.000 C 
BRANCH  24  25
ATOM     25  C   UNL     1       7.884   7.814  17.979  0.00  0.00    +0.000 C 
ATOM     26  O   UNL     1       7.337   7.905  16.881  0.00  0.00    +0.000 OA
ATOM     27  N   UNL     1       8.553   8.860  18.575  0.00  0.00    +0.000 N 
ATOM     28  H   UNL     1       9.021   8.725  19.460  0.00  0.00    +0.000 HD
BRANCH  27  29
ATOM     29  C   UNL     1       8.693  10.150  17.927  0.00  0.00    +0.000 C 
BRANCH  29  30
ATOM     30  C   UNL     1       9.766  10.968  18.598  0.00  0.00    +0.000 A 
ATOM     31  C   UNL     1      10.830  11.490  17.849  0.00  0.00    +0.000 A 
ATOM     32  C   UNL     1      11.873  12.170  18.478  0.00  0.00    +0.000 A 
ATOM     33  C   UNL     1      11.864  12.337  19.862  0.00  0.00    +0.000 A 
ATOM     34  C   UNL     1      10.799  11.846  20.614  0.00  0.00    +0.000 A 
ATOM     35  C   UNL     1       9.754  11.165  19.987  0.00  0.00    +0.000 A 
ENDBRANCH  29  30
ENDBRANCH  27  29
ENDBRANCH  24  25
ENDBRANCH  22  24
ENDBRANCH   2  20
TORSDOF 11
ENDMDL
MODEL 3
REMARK VINA RESULT:      -7.0      2.636      4.182
REMARK  Name = 
REMARK  12 active torsions:
REMARK  status: ('A' for Active; 'I' for Inactive)
REMARK    1  A    between atoms: C_1  and  C_2
REMARK    2  A    between atoms: C_2  and  N_3
REMARK    3  A    between atoms: C_2  and  C_16
REMARK    4  A    between atoms: C_4  and  C_6
REMARK    5  A    between atoms: C_6  and  N_7
REMARK    6  A    between atoms: C_6  and  C_8
REMARK    7  A    between atoms: C_8  and  C_9
REMARK    8  A    between atoms: C_12  and  O_13
REMARK    9  A    between atoms: N_18  and  C_19
REMARK   10  A    between atoms: C_19  and  C_20
REMARK   11  A    between atoms: N_22  and  C_23
REMARK   12  A    between atoms: C_23  and  C_24
REMARK                            x       y       z     vdW  Elec       q    Type
REMARK                         _______ _______ _______ _____ _____    ______ ____
ROOT
ATOM      1  C   UNL     1      -0.829  10.532  18.743  0.00  0.00    +0.000 C 
ATOM      2  C   UNL     1       0.512  10.619  19.469  0.00  0.00    +0.000 C 
ENDROOT
BRANCH   2   3
ATOM      3  N   UNL     1       1.105   9.284  19.565  0.00  0.00    +0.000 N 
ATOM      4  C   UNL     1       1.901   8.757  18.569  0.00  0.00    +0.000 C 
ATOM      5  O   UNL     1       2.121   9.364  17.517  0.00  0.00    +0.000 OA
ATOM      6  H   UNL     1       1.169   8.874  20.488  0.00  0.00    +0.000 HD
BRANCH   4   7
ATOM      7  C   UNL     1       2.487   7.353  18.855  0.00  0.00    +0.000 C 
BRANCH   7   8
ATOM      8  N   UNL     1       2.195   6.957  20.248  0.00  0.00    +0.000 NA
ATOM      9  H   UNL     1       1.206   6.784  20.389  0.00  0.00    +0.000 HD
ATOM     10  H   UNL     1       2.484   7.697  20.885  0.00  0.00    +0.000 HD
ENDBRANCH   7   8
BRANCH   7  11
ATOM     11  C   UNL     1       1.946   6.337  17.827  0.00  0.00    +0.000 C 
BRANCH  11  12
ATOM     12  C   UNL     1       2.494   4.931  17.951  0.00  0.00    +0.000 A 
ATOM     13  C   UNL     1       3.880   4.709  17.923  0.00  0.00    +0.000 A 
ATOM     14  C   UNL     1       4.399   3.415  18.036  0.00  0.00    +0.000 A 
ATOM     15  C   UNL     1       3.530   2.339  18.178  0.00  0.00    +0.000 A 
ATOM     16  C   UNL     1       2.156   2.539  18.219  0.00  0.00    +0.000 A 
ATOM     17  C   UNL     1       1.638   3.832  18.113  0.00  0.00    +0.000 A 
BRANCH  15  18
ATOM     18  O   UNL     1       3.992   1.061  18.281  0.00  0.00    +0.000 OA
ATOM     19  H   UNL     1       4.855   1.081  18.725  0.00  0.00    +0.000 HD
ENDBRANCH  15  18
ENDBRANCH  11  12
ENDBRANCH   7  11
ENDBRANCH   4   7
ENDBRANCH   2   3
BRANCH   2  20
ATOM     20  C   UNL     1       0.309  11.197  20.885  0.00  0.00    +0.000 C 
ATOM     21  O   UNL     1       0.920  12.186  21.292  0.00  0.00    +0.000 OA
ATOM     22  N   UNL     1      -0.678  10.592  21.623  0.00  0.00    +0.000 N 
ATOM     23  H   UNL     1      -1.219   9.824  21.227  0.00  0.00    +0.000 HD
BRANCH  22  24
ATOM     24  C   UNL     1      -1.042  11.040  22.957  0.00  0.00    +0.000 C 
BRANCH  24  25
ATOM     25  C   UNL     1      -2.335  11.862  22.891  0.00  0.00    +0.000 C 
ATOM     26  O   UNL     1      -3.194  11.792  23.768  0.00  0.00    +0.000 OA
ATOM     27  N   UNL     1      -2.446  12.686  21.793  0.00  0.00    +0.000 N 
ATOM     28  H   UNL     1      -1.731  12.679  21.079  0.00  0.00    +0.000 HD
BRANCH  27  29
ATOM     29  C   UNL     1      -3.616  13.514  21.571  0.00  0.00    +0.000 C 
BRANCH  29  30
ATOM     30  C   UNL     1      -4.638  12.777  20.745  0.00  0.00    +0.000 A 
ATOM     31  C   UNL     1      -5.895  12.469  21.285  0.00  0.00    +0.000 A 
ATOM     32  C   UNL     1      -6.812  11.708  20.558  0.00  0.00    +0.000 A 
ATOM     33  C   UNL     1      -6.484  11.249  19.284  0.00  0.00    +0.000 A 
ATOM     34  C   UNL     1      -5.248  11.570  18.726  0.00  0.00    +0.000 A 
ATOM     35  C   UNL     1      -4.329  12.331  19.451  0.00  0.00    +0.000 A 
ENDBRANCH  29  30
ENDBRANCH  27  29
ENDBRANCH  24  25
ENDBRANCH  22  24
ENDBRANCH   2  20
TORSDOF 11
ENDMDL
MODEL 4
REMARK VINA RESULT:      -7.0      4.747      7.715
REMARK  Name = 
REMARK  12 active torsions:
REMARK  status: ('A' for Active; 'I' for Inactive)
REMARK    1  A    between atoms: C_1  and  C_2
REMARK    2  A    between atoms: C_2  and  N_3
REMARK    3  A    between atoms: C_2  and  C_16
REMARK    4  A    between atoms: C_4  and  C_6
REMARK    5  A    between atoms: C_6  and  N_7
REMARK    6  A    between atoms: C_6  and  C_8
REMARK    7  A    between atoms: C_8  and  C_9
REMARK    8  A    between atoms: C_12  and  O_13
REMARK    9  A    between atoms: N_18  and  C_19
REMARK   10  A    between atoms: C_19  and  C_20
REMARK   11  A    between atoms: N_22  and  C_23
REMARK   12  A    between atoms: C_23  and  C_24
REMARK                            x       y       z     vdW  Elec       q    Type
REMARK                         _______ _______ _______ _____ _____    ______ ____
ROOT
ATOM      1  C   UNL     1       7.082   4.649  14.430  0.00  0.00    +0.000 C 
ATOM      2  C   UNL     1       6.764   4.816  15.914  0.00  0.00    +0.000 C 
ENDROOT
BRANCH   2   3
ATOM      3  N   UNL     1       5.643   3.947  16.276  0.00  0.00    +0.000 N 
ATOM      4  C   UNL     1       5.278   3.722  17.587  0.00  0.00    +0.000 C 
ATOM      5  O   UNL     1       5.906   4.203  18.533  0.00  0.00    +0.000 OA
ATOM      6  H   UNL     1       4.960   3.752  15.555  0.00  0.00    +0.000 HD
BRANCH   4   7
ATOM      7  C   UNL     1       4.039   2.816  17.790  0.00  0.00    +0.000 C 
BRANCH   7   8
ATOM      8  N   UNL     1       4.064   2.221  19.142  0.00  0.00    +0.000 NA
ATOM      9  H   UNL     1       4.629   1.380  19.171  0.00  0.00    +0.000 HD
ATOM     10  H   UNL     1       3.117   1.980  19.430  0.00  0.00    +0.000 HD
ENDBRANCH   7   8
BRANCH   7  11
ATOM     11  C   UNL     1       2.748   3.621  17.523  0.00  0.00    +0.000 C 
BRANCH  11  12
ATOM     12  C   UNL     1       2.495   4.776  18.468  0.00  0.00    +0.000 A 
ATOM     13  C   UNL     1       1.980   4.538  19.753  0.00  0.00    +0.000 A 
ATOM     14  C   UNL     1       1.740   5.596  20.634  0.00  0.00    +0.000 A 
ATOM     15  C   UNL     1       2.017   6.897  20.232  0.00  0.00    +0.000 A 
ATOM     16  C   UNL     1       2.537   7.154  18.970  0.00  0.00    +0.000 A 
ATOM     17  C   UNL     1       2.782   6.095  18.091  0.00  0.00    +0.000 A 
BRANCH  15  18
ATOM     18  O   UNL     1       1.789   7.960  21.056  0.00  0.00    +0.000 OA
ATOM     19  H   UNL     1       1.356   7.636  21.862  0.00  0.00    +0.000 HD
ENDBRANCH  15  18
ENDBRANCH  11  12
ENDBRANCH   7  11
ENDBRANCH   4   7
ENDBRANCH   2   3
BRANCH   2  20
ATOM     20  C   UNL     1       6.396   6.285  16.214  0.00  0.00    +0.000 C 
ATOM     21  O   UNL     1       5.344   6.796  15.830  0.00  0.00    +0.000 OA
ATOM     22  N   UNL     1       7.278   6.950  17.028  0.00  0.00    +0.000 N 
ATOM     23  H   UNL     1       8.103   6.472  17.393  0.00  0.00    +0.000 HD
BRANCH  22  24
ATOM     24  C   UNL     1       7.063   8.321  17.458  0.00  0.00    +0.000 C 
BRANCH  24  25
ATOM     25  C   UNL     1       8.302   8.830  18.204  0.00  0.00    +0.000 C 
ATOM     26  O   UNL     1       8.902   8.131  19.019  0.00  0.00    +0.000 OA
ATOM     27  N   UNL     1       8.692  10.111  17.881  0.00  0.00    +0.000 N 
ATOM     28  H   UNL     1       8.143  10.661  17.235  0.00  0.00    +0.000 HD
BRANCH  27  29
ATOM     29  C   UNL     1       9.831  10.748  18.512  0.00  0.00    +0.000 C 
BRANCH  29  30
ATOM     30  C   UNL     1       9.379  11.684  19.603  0.00  0.00    +0.000 A 
ATOM     31  C   UNL     1       9.284  11.232  20.928  0.00  0.00    +0.000 A 
ATOM     32  C   UNL     1       8.779  12.066  21.926  0.00  0.00    +0.000 A 
ATOM     33  C   UNL     1       8.366  13.360  21.613  0.00  0.00    +0.000 A 
ATOM     34  C   UNL     1       8.479  13.829  20.306  0.00  0.00    +0.000 A 
ATOM     35  C   UNL     1       8.985  12.997  19.305  0.00  0.00    +0.000 A 
ENDBRANCH  29  30
ENDBRANCH  27  29
ENDBRANCH  24  25
ENDBRANCH  22  24
ENDBRANCH   2  20
TORSDOF 11
ENDMDL
MODEL 5
REMARK VINA RESULT:      -7.0      3.420      9.250
REMARK  Name = 
REMARK  12 active torsions:
REMARK  status: ('A' for Active; 'I' for Inactive)
REMARK    1  A    between atoms: C_1  and  C_2
REMARK    2  A    between atoms: C_2  and  N_3
REMARK    3  A    between atoms: C_2  and  C_16
REMARK    4  A    between atoms: C_4  and  C_6
REMARK    5  A    between atoms: C_6  and  N_7
REMARK    6  A    between atoms: C_6  and  C_8
REMARK    7  A    between atoms: C_8  and  C_9
REMARK    8  A    between atoms: C_12  and  O_13
REMARK    9  A    between atoms: N_18  and  C_19
REMARK   10  A    between atoms: C_19  and  C_20
REMARK   11  A    between atoms: N_22  and  C_23
REMARK   12  A    between atoms: C_23  and  C_24
REMARK                            x       y       z     vdW  Elec       q    Type
REMARK                         _______ _______ _______ _____ _____    ______ ____
ROOT
ATOM      1  C   UNL     1       3.726   3.253  18.802  0.00  0.00    +0.000 C 
ATOM      2  C   UNL     1       4.402   4.306  19.678  0.00  0.00    +0.000 C 
ENDROOT
BRANCH   2   3
ATOM      3  N   UNL     1       3.513   5.458  19.835  0.00  0.00    +0.000 N 
ATOM      4  C   UNL     1       2.980   6.131  18.755  0.00  0.00    +0.000 C 
ATOM      5  O   UNL     1       3.261   5.829  17.593  0.00  0.00    +0.000 OA
ATOM      6  H   UNL     1       3.060   5.571  20.734  0.00  0.00    +0.000 HD
BRANCH   4   7
ATOM      7  C   UNL     1       2.020   7.295  19.101  0.00  0.00    +0.000 C 
BRANCH   7   8
ATOM      8  N   UNL     1       2.161   7.660  20.525  0.00  0.00    +0.000 NA
ATOM      9  H   UNL     1       3.064   7.388  20.895  0.00  0.00    +0.000 HD
ATOM     10  H   UNL     1       1.438   7.197  21.074  0.00  0.00    +0.000 HD
ENDBRANCH   7   8
BRANCH   7  11
ATOM     11  C   UNL     1       2.278   8.489  18.157  0.00  0.00    +0.000 C 
BRANCH  11  12
ATOM     12  C   UNL     1       1.292   9.632  18.269  0.00  0.00    +0.000 A 
ATOM     13  C   UNL     1      -0.071   9.415  18.011  0.00  0.00    +0.000 A 
ATOM     14  C   UNL     1      -0.993  10.463  18.109  0.00  0.00    +0.000 A 
ATOM     15  C   UNL     1      -0.551  11.731  18.468  0.00  0.00    +0.000 A 
ATOM     16  C   UNL     1       0.791  11.963  18.739  0.00  0.00    +0.000 A 
ATOM     17  C   UNL     1       1.711  10.916  18.646  0.00  0.00    +0.000 A 
BRANCH  15  18
ATOM     18  O   UNL     1      -1.413  12.782  18.566  0.00  0.00    +0.000 OA
ATOM     19  H   UNL     1      -1.146  13.329  19.323  0.00  0.00    +0.000 HD
ENDBRANCH  15  18
ENDBRANCH  11  12
ENDBRANCH   7  11
ENDBRANCH   4   7
ENDBRANCH   2   3
BRANCH   2  20
ATOM     20  C   UNL     1       5.727   4.760  19.030  0.00  0.00    +0.000 C 
ATOM     21  O   UNL     1       6.590   5.381  19.651  0.00  0.00    +0.000 OA
ATOM     22  N   UNL     1       5.919   4.331  17.741  0.00  0.00    +0.000 N 
ATOM     23  H   UNL     1       5.217   3.751  17.281  0.00  0.00    +0.000 HD
BRANCH  22  24
ATOM     24  C   UNL     1       7.132   4.619  16.994  0.00  0.00    +0.000 C 
BRANCH  24  25
ATOM     25  C   UNL     1       6.770   5.134  15.596  0.00  0.00    +0.000 C 
ATOM     26  O   UNL     1       5.833   5.910  15.413  0.00  0.00    +0.000 OA
ATOM     27  N   UNL     1       7.577   4.676  14.579  0.00  0.00    +0.000 N 
ATOM     28  H   UNL     1       8.310   4.008  14.774  0.00  0.00    +0.000 HD
BRANCH  27  29
ATOM     29  C   UNL     1       7.356   5.052  13.196  0.00  0.00    +0.000 C 
BRANCH  29  30
ATOM     30  C   UNL     1       6.802   3.890  12.413  0.00  0.00    +0.000 A 
ATOM     31  C   UNL     1       5.419   3.656  12.379  0.00  0.00    +0.000 A 
ATOM     32  C   UNL     1       4.907   2.530  11.732  0.00  0.00    +0.000 A 
ATOM     33  C   UNL     1       5.770   1.630  11.110  0.00  0.00    +0.000 A 
ATOM     34  C   UNL     1       7.142   1.865  11.114  0.00  0.00    +0.000 A 
ATOM     35  C   UNL     1       7.658   2.991  11.760  0.00  0.00    +0.000 A 
ENDBRANCH  29  30
ENDBRANCH  27  29
ENDBRANCH  24  25
ENDBRANCH  22  24
ENDBRANCH   2  20
TORSDOF 11
ENDMDL
MODEL 6
REMARK VINA RESULT:      -6.9      0.736      1.141
REMARK  Name = 
REMARK  12 active torsions:
REMARK  status: ('A' for Active; 'I' for Inactive)
REMARK    1  A    between atoms: C_1  and  C_2
REMARK    2  A    between atoms: C_2  and  N_3
REMARK    3  A    between atoms: C_2  and  C_16
REMARK    4  A    between atoms: C_4  and  C_6
REMARK    5  A    between atoms: C_6  and  N_7
REMARK    6  A    between atoms: C_6  and  C_8
REMARK    7  A    between atoms: C_8  and  C_9
REMARK    8  A    between atoms: C_12  and  O_13
REMARK    9  A    between atoms: N_18  and  C_19
REMARK   10  A    between atoms: C_19  and  C_20
REMARK   11  A    between atoms: N_22  and  C_23
REMARK   12  A    between atoms: C_23  and  C_24
REMARK                            x       y       z     vdW  Elec       q    Type
REMARK                         _______ _______ _______ _____ _____    ______ ____
ROOT
ATOM      1  C   UNL     1       1.993   8.332  17.541  0.00  0.00    +0.000 C 
ATOM      2  C   UNL     1       2.812   7.529  18.550  0.00  0.00    +0.000 C 
ENDROOT
BRANCH   2   3
ATOM      3  N   UNL     1       3.034   6.177  18.035  0.00  0.00    +0.000 N 
ATOM      4  C   UNL     1       4.202   5.814  17.396  0.00  0.00    +0.000 C 
ATOM      5  O   UNL     1       5.108   6.623  17.180  0.00  0.00    +0.000 OA
ATOM      6  H   UNL     1       2.452   5.439  18.411  0.00  0.00    +0.000 HD
BRANCH   4   7
ATOM      7  C   UNL     1       4.291   4.332  16.959  0.00  0.00    +0.000 C 
BRANCH   7   8
ATOM      8  N   UNL     1       5.347   3.641  17.728  0.00  0.00    +0.000 NA
ATOM      9  H   UNL     1       6.175   3.478  17.166  0.00  0.00    +0.000 HD
ATOM     10  H   UNL     1       5.002   2.741  18.057  0.00  0.00    +0.000 HD
ENDBRANCH   7   8
BRANCH   7  11
ATOM     11  C   UNL     1       2.913   3.653  17.109  0.00  0.00    +0.000 C 
BRANCH  11  12
ATOM     12  C   UNL     1       2.493   3.342  18.530  0.00  0.00    +0.000 A 
ATOM     13  C   UNL     1       3.450   2.953  19.480  0.00  0.00    +0.000 A 
ATOM     14  C   UNL     1       3.075   2.661  20.796  0.00  0.00    +0.000 A 
ATOM     15  C   UNL     1       1.738   2.759  21.163  0.00  0.00    +0.000 A 
ATOM     16  C   UNL     1       0.777   3.152  20.241  0.00  0.00    +0.000 A 
ATOM     17  C   UNL     1       1.153   3.449  18.928  0.00  0.00    +0.000 A 
BRANCH  15  18
ATOM     18  O   UNL     1       1.327   2.474  22.431  0.00  0.00    +0.000 OA
ATOM     19  H   UNL     1       1.042   1.546  22.460  0.00  0.00    +0.000 HD
ENDBRANCH  15  18
ENDBRANCH  11  12
ENDBRANCH   7  11
ENDBRANCH   4   7
ENDBRANCH   2   3
BRANCH   2  20
ATOM     20  C   UNL     1       2.062   7.451  19.897  0.00  0.00    +0.000 C 
ATOM     21  O   UNL     1       1.888   6.392  20.499  0.00  0.00    +0.000 OA
ATOM     22  N   UNL     1       1.695   8.663  20.427  0.00  0.00    +0.000 N 
ATOM     23  H   UNL     1       1.923   9.529  19.939  0.00  0.00    +0.000 HD
BRANCH  22  24
ATOM     24  C   UNL     1       1.029   8.783  21.713  0.00  0.00    +0.000 C 
BRANCH  24  25
ATOM     25  C   UNL     1      -0.112   9.803  21.612  0.00  0.00    +0.000 C 
ATOM     26  O   UNL     1      -0.895   9.996  22.541  0.00  0.00    +0.000 OA
ATOM     27  N   UNL     1      -0.179  10.485  20.418  0.00  0.00    +0.000 N 
ATOM     28  H   UNL     1       0.462  10.263  19.669  0.00  0.00    +0.000 HD
BRANCH  27  29
ATOM     29  C   UNL     1      -1.211  11.469  20.153  0.00  0.00    +0.000 C 
BRANCH  29  30
ATOM     30  C   UNL     1      -1.980  11.109  18.909  0.00  0.00    +0.000 A 
ATOM     31  C   UNL     1      -1.443  10.202  17.984  0.00  0.00    +0.000 A 
ATOM     32  C   UNL     1      -2.108   9.934  16.786  0.00  0.00    +0.000 A 
ATOM     33  C   UNL     1      -3.317  10.567  16.501  0.00  0.00    +0.000 A 
ATOM     34  C   UNL     1      -3.873  11.451  17.423  0.00  0.00    +0.000 A 
ATOM     35  C   UNL     1      -3.210  11.720  18.623  0.00  0.00    +0.000 A 
ENDBRANCH  29  30
ENDBRANCH  27  29
ENDBRANCH  24  25
ENDBRANCH  22  24
ENDBRANCH   2  20
TORSDOF 11
ENDMDL
MODEL 7
REMARK VINA RESULT:      -6.8      4.668      9.143
REMARK  Name = 
REMARK  12 active torsions:
REMARK  status: ('A' for Active; 'I' for Inactive)
REMARK    1  A    between atoms: C_1  and  C_2
REMARK    2  A    between atoms: C_2  and  N_3
REMARK    3  A    between atoms: C_2  and  C_16
REMARK    4  A    between atoms: C_4  and  C_6
REMARK    5  A    between atoms: C_6  and  N_7
REMARK    6  A    between atoms: C_6  and  C_8
REMARK    7  A    between atoms: C_8  and  C_9
REMARK    8  A    between atoms: C_12  and  O_13
REMARK    9  A    between atoms: N_18  and  C_19
REMARK   10  A    between atoms: C_19  and  C_20
REMARK   11  A    between atoms: N_22  and  C_23
REMARK   12  A    between atoms: C_23  and  C_24
REMARK                            x       y       z     vdW  Elec       q    Type
REMARK                         _______ _______ _______ _____ _____    ______ ____
ROOT
ATOM      1  C   UNL     1       3.691   4.507  17.452  0.00  0.00    +0.000 C 
ATOM      2  C   UNL     1       3.875   4.925  18.909  0.00  0.00    +0.000 C 
ENDROOT
BRANCH   2   3
ATOM      3  N   UNL     1       3.182   6.193  19.147  0.00  0.00    +0.000 N 
ATOM      4  C   UNL     1       2.099   6.293  19.996  0.00  0.00    +0.000 C 
ATOM      5  O   UNL     1       1.623   5.309  20.568  0.00  0.00    +0.000 OA
ATOM      6  H   UNL     1       3.683   7.041  18.917  0.00  0.00    +0.000 HD
BRANCH   4   7
ATOM      7  C   UNL     1       1.517   7.717  20.171  0.00  0.00    +0.000 C 
BRANCH   7   8
ATOM      8  N   UNL     1       1.955   8.287  21.462  0.00  0.00    +0.000 NA
ATOM      9  H   UNL     1       2.919   8.598  21.427  0.00  0.00    +0.000 HD
ATOM     10  H   UNL     1       1.871   7.585  22.195  0.00  0.00    +0.000 HD
ENDBRANCH   7   8
BRANCH   7  11
ATOM     11  C   UNL     1       1.917   8.601  18.970  0.00  0.00    +0.000 C 
BRANCH  11  12
ATOM     12  C   UNL     1       1.152   9.900  18.836  0.00  0.00    +0.000 A 
ATOM     13  C   UNL     1      -0.252   9.896  18.836  0.00  0.00    +0.000 A 
ATOM     14  C   UNL     1      -0.971  11.089  18.711  0.00  0.00    +0.000 A 
ATOM     15  C   UNL     1      -0.285  12.291  18.587  0.00  0.00    +0.000 A 
ATOM     16  C   UNL     1       1.104  12.318  18.596  0.00  0.00    +0.000 A 
ATOM     17  C   UNL     1       1.822  11.127  18.726  0.00  0.00    +0.000 A 
BRANCH  15  18
ATOM     18  O   UNL     1      -0.945  13.476  18.453  0.00  0.00    +0.000 OA
ATOM     19  H   UNL     1      -1.709  13.471  19.053  0.00  0.00    +0.000 HD
ENDBRANCH  15  18
ENDBRANCH  11  12
ENDBRANCH   7  11
ENDBRANCH   4   7
ENDBRANCH   2   3
BRANCH   2  20
ATOM     20  C   UNL     1       5.377   5.091  19.226  0.00  0.00    +0.000 C 
ATOM     21  O   UNL     1       5.970   4.367  20.026  0.00  0.00    +0.000 OA
ATOM     22  N   UNL     1       6.028   6.036  18.473  0.00  0.00    +0.000 N 
ATOM     23  H   UNL     1       5.523   6.565  17.762  0.00  0.00    +0.000 HD
BRANCH  22  24
ATOM     24  C   UNL     1       7.453   6.288  18.598  0.00  0.00    +0.000 C 
BRANCH  24  25
ATOM     25  C   UNL     1       7.843   7.493  17.734  0.00  0.00    +0.000 C 
ATOM     26  O   UNL     1       7.843   7.439  16.506  0.00  0.00    +0.000 OA
ATOM     27  N   UNL     1       8.175   8.630  18.437  0.00  0.00    +0.000 N 
ATOM     28  H   UNL     1       8.199   8.614  19.448  0.00  0.00    +0.000 HD
BRANCH  27  29
ATOM     29  C   UNL     1       8.587   9.851  17.771  0.00  0.00    +0.000 C 
BRANCH  29  30
ATOM     30  C   UNL     1       9.551  10.625  18.632  0.00  0.00    +0.000 A 
ATOM     31  C   UNL     1       9.309  10.777  20.005  0.00  0.00    +0.000 A 
ATOM     32  C   UNL     1      10.149  11.568  20.790  0.00  0.00    +0.000 A 
ATOM     33  C   UNL     1      11.240  12.214  20.212  0.00  0.00    +0.000 A 
ATOM     34  C   UNL     1      11.506  12.051  18.855  0.00  0.00    +0.000 A 
ATOM     35  C   UNL     1      10.668  11.259  18.067  0.00  0.00    +0.000 A 
ENDBRANCH  29  30
ENDBRANCH  27  29
ENDBRANCH  24  25
ENDBRANCH  22  24
ENDBRANCH   2  20
TORSDOF 11
ENDMDL
MODEL 8
REMARK VINA RESULT:      -6.8      3.494      8.602
REMARK  Name = 
REMARK  12 active torsions:
REMARK  status: ('A' for Active; 'I' for Inactive)
REMARK    1  A    between atoms: C_1  and  C_2
REMARK    2  A    between atoms: C_2  and  N_3
REMARK    3  A    between atoms: C_2  and  C_16
REMARK    4  A    between atoms: C_4  and  C_6
REMARK    5  A    between atoms: C_6  and  N_7
REMARK    6  A    between atoms: C_6  and  C_8
REMARK    7  A    between atoms: C_8  and  C_9
REMARK    8  A    between atoms: C_12  and  O_13
REMARK    9  A    between atoms: N_18  and  C_19
REMARK   10  A    between atoms: C_19  and  C_20
REMARK   11  A    between atoms: N_22  and  C_23
REMARK   12  A    between atoms: C_23  and  C_24
REMARK                            x       y       z     vdW  Elec       q    Type
REMARK                         _______ _______ _______ _____ _____    ______ ____
ROOT
ATOM      1  C   UNL     1       2.722   1.871  17.479  0.00  0.00    +0.000 C 
ATOM      2  C   UNL     1       3.801   2.674  18.202  0.00  0.00    +0.000 C 
ENDROOT
BRANCH   2   3
ATOM      3  N   UNL     1       3.227   3.312  19.387  0.00  0.00    +0.000 N 
ATOM      4  C   UNL     1       1.958   3.855  19.391  0.00  0.00    +0.000 C 
ATOM      5  O   UNL     1       1.253   3.875  18.379  0.00  0.00    +0.000 OA
ATOM      6  H   UNL     1       3.649   3.090  20.280  0.00  0.00    +0.000 HD
BRANCH   4   7
ATOM      7  C   UNL     1       1.488   4.446  20.742  0.00  0.00    +0.000 C 
BRANCH   7   8
ATOM      8  N   UNL     1       1.573   3.418  21.800  0.00  0.00    +0.000 NA
ATOM      9  H   UNL     1       0.812   2.752  21.738  0.00  0.00    +0.000 HD
ATOM     10  H   UNL     1       1.536   3.862  22.716  0.00  0.00    +0.000 HD
ENDBRANCH   7   8
BRANCH   7  11
ATOM     11  C   UNL     1       2.309   5.709  21.079  0.00  0.00    +0.000 C 
BRANCH  11  12
ATOM     12  C   UNL     1       2.155   6.862  20.110  0.00  0.00    +0.000 A 
ATOM     13  C   UNL     1       1.398   7.989  20.468  0.00  0.00    +0.000 A 
ATOM     14  C   UNL     1       1.247   9.060  19.582  0.00  0.00    +0.000 A 
ATOM     15  C   UNL     1       1.855   9.006  18.334  0.00  0.00    +0.000 A 
ATOM     16  C   UNL     1       2.618   7.905  17.964  0.00  0.00    +0.000 A 
ATOM     17  C   UNL     1       2.773   6.837  18.852  0.00  0.00    +0.000 A 
BRANCH  15  18
ATOM     18  O   UNL     1       1.726  10.023  17.435  0.00  0.00    +0.000 OA
ATOM     19  H   UNL     1       1.266  10.759  17.869  0.00  0.00    +0.000 HD
ENDBRANCH  15  18
ENDBRANCH  11  12
ENDBRANCH   7  11
ENDBRANCH   4   7
ENDBRANCH   2   3
BRANCH   2  20
ATOM     20  C   UNL     1       4.375   3.755  17.261  0.00  0.00    +0.000 C 
ATOM     21  O   UNL     1       3.934   3.950  16.128  0.00  0.00    +0.000 OA
ATOM     22  N   UNL     1       5.344   4.553  17.816  0.00  0.00    +0.000 N 
ATOM     23  H   UNL     1       5.632   4.415  18.785  0.00  0.00    +0.000 HD
BRANCH  22  24
ATOM     24  C   UNL     1       5.957   5.655  17.094  0.00  0.00    +0.000 C 
BRANCH  24  25
ATOM     25  C   UNL     1       6.930   5.108  16.044  0.00  0.00    +0.000 C 
ATOM     26  O   UNL     1       7.950   4.496  16.359  0.00  0.00    +0.000 OA
ATOM     27  N   UNL     1       6.568   5.342  14.736  0.00  0.00    +0.000 N 
ATOM     28  H   UNL     1       5.741   5.885  14.527  0.00  0.00    +0.000 HD
BRANCH  27  29
ATOM     29  C   UNL     1       7.390   4.908  13.623  0.00  0.00    +0.000 C 
BRANCH  29  30
ATOM     30  C   UNL     1       6.618   3.978  12.723  0.00  0.00    +0.000 A 
ATOM     31  C   UNL     1       5.217   4.039  12.679  0.00  0.00    +0.000 A 
ATOM     32  C   UNL     1       4.492   3.120  11.918  0.00  0.00    +0.000 A 
ATOM     33  C   UNL     1       5.158   2.134  11.193  0.00  0.00    +0.000 A 
ATOM     34  C   UNL     1       6.550   2.079  11.208  0.00  0.00    +0.000 A 
ATOM     35  C   UNL     1       7.278   2.997  11.968  0.00  0.00    +0.000 A 
ENDBRANCH  29  30
ENDBRANCH  27  29
ENDBRANCH  24  25
ENDBRANCH  22  24
ENDBRANCH   2  20
TORSDOF 11
ENDMDL
MODEL 9
REMARK VINA RESULT:      -6.8      2.656      4.460
REMARK  Name = 
REMARK  12 active torsions:
REMARK  status: ('A' for Active; 'I' for Inactive)
REMARK    1  A    between atoms: C_1  and  C_2
REMARK    2  A    between atoms: C_2  and  N_3
REMARK    3  A    between atoms: C_2  and  C_16
REMARK    4  A    between atoms: C_4  and  C_6
REMARK    5  A    between atoms: C_6  and  N_7
REMARK    6  A    between atoms: C_6  and  C_8
REMARK    7  A    between atoms: C_8  and  C_9
REMARK    8  A    between atoms: C_12  and  O_13
REMARK    9  A    between atoms: N_18  and  C_19
REMARK   10  A    between atoms: C_19  and  C_20
REMARK   11  A    between atoms: N_22  and  C_23
REMARK   12  A    between atoms: C_23  and  C_24
REMARK                            x       y       z     vdW  Elec       q    Type
REMARK                         _______ _______ _______ _____ _____    ______ ____
ROOT
ATOM      1  C   UNL     1      -1.053  10.327  18.864  0.00  0.00    +0.000 C 
ATOM      2  C   UNL     1       0.320  10.804  19.334  0.00  0.00    +0.000 C 
ENDROOT
BRANCH   2   3
ATOM      3  N   UNL     1       1.263   9.685  19.307  0.00  0.00    +0.000 N 
ATOM      4  C   UNL     1       1.175   8.625  20.185  0.00  0.00    +0.000 C 
ATOM      5  O   UNL     1       0.323   8.582  21.076  0.00  0.00    +0.000 OA
ATOM      6  H   UNL     1       1.795   9.552  18.456  0.00  0.00    +0.000 HD
BRANCH   4   7
ATOM      7  C   UNL     1       2.223   7.503  19.985  0.00  0.00    +0.000 C 
BRANCH   7   8
ATOM      8  N   UNL     1       1.945   6.382  20.906  0.00  0.00    +0.000 NA
ATOM      9  H   UNL     1       1.641   6.710  21.816  0.00  0.00    +0.000 HD
ATOM     10  H   UNL     1       2.786   5.822  21.032  0.00  0.00    +0.000 HD
ENDBRANCH   7   8
BRANCH   7  11
ATOM     11  C   UNL     1       2.247   7.061  18.507  0.00  0.00    +0.000 C 
BRANCH  11  12
ATOM     12  C   UNL     1       2.734   5.649  18.259  0.00  0.00    +0.000 A 
ATOM     13  C   UNL     1       1.831   4.651  17.856  0.00  0.00    +0.000 A 
ATOM     14  C   UNL     1       2.268   3.343  17.626  0.00  0.00    +0.000 A 
ATOM     15  C   UNL     1       3.611   3.030  17.796  0.00  0.00    +0.000 A 
ATOM     16  C   UNL     1       4.522   4.005  18.182  0.00  0.00    +0.000 A 
ATOM     17  C   UNL     1       4.087   5.313  18.407  0.00  0.00    +0.000 A 
BRANCH  15  18
ATOM     18  O   UNL     1       4.078   1.766  17.591  0.00  0.00    +0.000 OA
ATOM     19  H   UNL     1       4.875   1.641  18.132  0.00  0.00    +0.000 HD
ENDBRANCH  15  18
ENDBRANCH  11  12
ENDBRANCH   7  11
ENDBRANCH   4   7
ENDBRANCH   2   3
BRANCH   2  20
ATOM     20  C   UNL     1       0.222  11.363  20.769  0.00  0.00    +0.000 C 
ATOM     21  O   UNL     1       1.142  11.981  21.305  0.00  0.00    +0.000 OA
ATOM     22  N   UNL     1      -1.004  11.212  21.368  0.00  0.00    +0.000 N 
ATOM     23  H   UNL     1      -1.771  10.763  20.867  0.00  0.00    +0.000 HD
BRANCH  22  24
ATOM     24  C   UNL     1      -1.293  11.725  22.697  0.00  0.00    +0.000 C 
BRANCH  24  25
ATOM     25  C   UNL     1      -2.768  12.133  22.785  0.00  0.00    +0.000 C 
ATOM     26  O   UNL     1      -3.436  11.940  23.800  0.00  0.00    +0.000 OA
ATOM     27  N   UNL     1      -3.273  12.738  21.656  0.00  0.00    +0.000 N 
ATOM     28  H   UNL     1      -2.696  12.838  20.832  0.00  0.00    +0.000 HD
BRANCH  27  29
ATOM     29  C   UNL     1      -4.656  13.165  21.568  0.00  0.00    +0.000 C 
BRANCH  29  30
ATOM     30  C   UNL     1      -5.389  12.378  20.513  0.00  0.00    +0.000 A 
ATOM     31  C   UNL     1      -6.647  11.823  20.791  0.00  0.00    +0.000 A 
ATOM     32  C   UNL     1      -7.290  11.017  19.850  0.00  0.00    +0.000 A 
ATOM     33  C   UNL     1      -6.684  10.758  18.623  0.00  0.00    +0.000 A 
ATOM     34  C   UNL     1      -5.446  11.323  18.325  0.00  0.00    +0.000 A 
ATOM     35  C   UNL     1      -4.801  12.131  19.264  0.00  0.00    +0.000 A 
ENDBRANCH  29  30
ENDBRANCH  27  29
ENDBRANCH  24  25
ENDBRANCH  22  24
ENDBRANCH   2  20
TORSDOF 11
ENDMDL
