MODEL 1
REMARK VINA RESULT:      -7.8      0.000      0.000
REMARK  Name = 
REMARK  14 active torsions:
REMARK  status: ('A' for Active; 'I' for Inactive)
REMARK    1  A    between atoms: C_1  and  C_2
REMARK    2  A    between atoms: C_5  and  C_6
REMARK    3  A    between atoms: C_6  and  N_7
REMARK    4  A    between atoms: N_7  and  C_8
REMARK    5  A    between atoms: N_7  and  C_20
REMARK    6  A    between atoms: C_8  and  C_9
REMARK    7  A    between atoms: C_9  and  O_10
REMARK    8  A    between atoms: C_9  and  C_11
REMARK    9  A    between atoms: C_11  and  O_12
REMARK   10  A    between atoms: O_12  and  C_13
REMARK   11  A    between atoms: C_17  and  C_18
REMARK   12  A    between atoms: C_20  and  C_21
REMARK   13  A    between atoms: C_20  and  C_22
REMARK   14  A    between atoms: C_20  and  C_23
REMARK                            x       y       z     vdW  Elec       q    Type
REMARK                         _______ _______ _______ _____ _____    ______ ____
ROOT
ATOM      1  N   UNL     1       3.627   4.398  18.888  0.00  0.00    +0.000 NA
ENDROOT
BRANCH   1   2
ATOM      2  C   UNL     1       2.612   3.325  18.651  0.00  0.00    +0.000 C 
ATOM      3  C   UNL     1       3.240   2.160  17.839  0.00  0.00    +0.000 C 
ATOM      4  C   UNL     1       2.121   2.671  19.971  0.00  0.00    +0.000 C 
ATOM      5  C   UNL     1       1.360   3.821  17.901  0.00  0.00    +0.000 C 
ENDBRANCH   1   2
BRANCH   1   6
ATOM      6  C   UNL     1       3.271   5.399  19.910  0.00  0.00    +0.000 C 
BRANCH   6  11
ATOM      7  C   UNL     1       1.232  10.673  18.552  0.00  0.00    +0.000 C 
ATOM      8  C   UNL     1       1.553   9.235  18.824  0.00  0.00    +0.000 A 
ATOM      9  C   UNL     1       1.276   8.691  20.075  0.00  0.00    +0.000 A 
ATOM     10  C   UNL     1       1.729   7.414  20.399  0.00  0.00    +0.000 A 
ATOM     11  C   UNL     1       2.511   6.661  19.512  0.00  0.00    +0.000 A 
ATOM     12  C   UNL     1       2.701   7.185  18.223  0.00  0.00    +0.000 A 
ATOM     13  C   UNL     1       2.227   8.456  17.884  0.00  0.00    +0.000 A 
ENDBRANCH   6  11
ENDBRANCH   1   6
BRANCH   1  14
ATOM     14  C   UNL     1       5.043   3.982  18.864  0.00  0.00    +0.000 C 
BRANCH  14  15
ATOM     15  C   UNL     1       6.166   5.022  18.545  0.00  0.00    +0.000 C 
BRANCH  15  16
ATOM     16  O   UNL     1       7.158   5.229  19.552  0.00  0.00    +0.000 OA
ATOM     17  H   UNL     1       7.308   6.172  19.695  0.00  0.00    +0.000 HD
ENDBRANCH  15  16
BRANCH  15  18
ATOM     18  C   UNL     1       6.869   4.615  17.222  0.00  0.00    +0.000 C 
BRANCH  18  19
ATOM     19  O   UNL     1       5.875   4.334  16.230  0.00  0.00    +0.000 OA
BRANCH  19  20
ATOM     20  C   UNL     1       6.276   4.415  14.926  0.00  0.00    +0.000 A 
ATOM     21  C   UNL     1       7.409   5.096  14.483  0.00  0.00    +0.000 A 
ATOM     22  C   UNL     1       7.768   5.047  13.134  0.00  0.00    +0.000 A 
ATOM     23  C   UNL     1       6.999   4.321  12.225  0.00  0.00    +0.000 A 
ATOM     24  C   UNL     1       5.861   3.632  12.656  0.00  0.00    +0.000 A 
ATOM     25  C   UNL     1       5.030   2.834  11.696  0.00  0.00    +0.000 C 
ATOM     26  C   UNL     1       5.512   3.683  14.013  0.00  0.00    +0.000 A 
ENDBRANCH  19  20
ENDBRANCH  18  19
ENDBRANCH  15  18
ENDBRANCH  14  15
ENDBRANCH   1  14
TORSDOF 9
ENDMDL
MODEL 2
REMARK VINA RESULT:      -7.7      1.106      1.543
REMARK  Name = 
REMARK  14 active torsions:
REMARK  status: ('A' for Active; 'I' for Inactive)
REMARK    1  A    between atoms: C_1  and  C_2
REMARK    2  A    between atoms: C_5  and  C_6
REMARK    3  A    between atoms: C_6  and  N_7
REMARK    4  A    between atoms: N_7  and  C_8
REMARK    5  A    between atoms: N_7  and  C_20
REMARK    6  A    between atoms: C_8  and  C_9
REMARK    7  A    between atoms: C_9  and  O_10
REMARK    8  A    between atoms: C_9  and  C_11
REMARK    9  A    between atoms: C_11  and  O_12
REMARK   10  A    between atoms: O_12  and  C_13
REMARK   11  A    between atoms: C_17  and  C_18
REMARK   12  A    between atoms: C_20  and  C_21
REMARK   13  A    between atoms: C_20  and  C_22
REMARK   14  A    between atoms: C_20  and  C_23
REMARK                            x       y       z     vdW  Elec       q    Type
REMARK                         _______ _______ _______ _____ _____    ______ ____
ROOT
ATOM      1  N   UNL     1       2.573   4.740  18.730  0.00  0.00    +0.000 NA
ENDROOT
BRANCH   1   2
ATOM      2  C   UNL     1       1.979   3.550  19.413  0.00  0.00    +0.000 C 
ATOM      3  C   UNL     1       3.084   2.738  20.142  0.00  0.00    +0.000 C 
ATOM      4  C   UNL     1       0.976   3.947  20.531  0.00  0.00    +0.000 C 
ATOM      5  C   UNL     1       1.232   2.602  18.455  0.00  0.00    +0.000 C 
ENDBRANCH   1   2
BRANCH   1   6
ATOM      6  C   UNL     1       2.967   5.852  19.613  0.00  0.00    +0.000 C 
BRANCH   6  11
ATOM      7  C   UNL     1      -0.017  10.733  18.564  0.00  0.00    +0.000 C 
ATOM      8  C   UNL     1       0.928   9.616  18.891  0.00  0.00    +0.000 A 
ATOM      9  C   UNL     1       1.714   9.060  17.886  0.00  0.00    +0.000 A 
ATOM     10  C   UNL     1       2.461   7.912  18.136  0.00  0.00    +0.000 A 
ATOM     11  C   UNL     1       2.411   7.253  19.373  0.00  0.00    +0.000 A 
ATOM     12  C   UNL     1       1.688   7.878  20.402  0.00  0.00    +0.000 A 
ATOM     13  C   UNL     1       0.957   9.045  20.163  0.00  0.00    +0.000 A 
ENDBRANCH   6  11
ENDBRANCH   1   6
BRANCH   1  14
ATOM     14  C   UNL     1       3.482   4.465  17.600  0.00  0.00    +0.000 C 
BRANCH  14  15
ATOM     15  C   UNL     1       5.002   4.810  17.708  0.00  0.00    +0.000 C 
BRANCH  15  16
ATOM     16  O   UNL     1       5.887   3.735  18.031  0.00  0.00    +0.000 OA
ATOM     17  H   UNL     1       6.627   4.049  18.565  0.00  0.00    +0.000 HD
ENDBRANCH  15  16
BRANCH  15  18
ATOM     18  C   UNL     1       5.468   5.462  16.378  0.00  0.00    +0.000 C 
BRANCH  18  19
ATOM     19  O   UNL     1       6.649   4.795  15.918  0.00  0.00    +0.000 OA
BRANCH  19  20
ATOM     20  C   UNL     1       6.820   4.725  14.564  0.00  0.00    +0.000 A 
ATOM     21  C   UNL     1       7.771   5.447  13.844  0.00  0.00    +0.000 A 
ATOM     22  C   UNL     1       7.910   5.239  12.470  0.00  0.00    +0.000 A 
ATOM     23  C   UNL     1       7.103   4.312  11.811  0.00  0.00    +0.000 A 
ATOM     24  C   UNL     1       6.145   3.580  12.522  0.00  0.00    +0.000 A 
ATOM     25  C   UNL     1       5.278   2.569  11.833  0.00  0.00    +0.000 C 
ATOM     26  C   UNL     1       6.017   3.793  13.902  0.00  0.00    +0.000 A 
ENDBRANCH  19  20
ENDBRANCH  18  19
ENDBRANCH  15  18
ENDBRANCH  14  15
ENDBRANCH   1  14
TORSDOF 9
ENDMDL
MODEL 3
REMARK VINA RESULT:      -7.7      0.913      1.290
REMARK  Name = 
REMARK  14 active torsions:
REMARK  status: ('A' for Active; 'I' for Inactive)
REMARK    1  A    between atoms: C_1  and  C_2
REMARK    2  A    between atoms: C_5  and  C_6
REMARK    3  A    between atoms: C_6  and  N_7
REMARK    4  A    between atoms: N_7  and  C_8
REMARK    5  A    between atoms: N_7  and  C_20
REMARK    6  A    between atoms: C_8  and  C_9
REMARK    7  A    between atoms: C_9  and  O_10
REMARK    8  A    between atoms: C_9  and  C_11
REMARK    9  A    between atoms: C_11  and  O_12
REMARK   10  A    between atoms: O_12  and  C_13
REMARK   11  A    between atoms: C_17  and  C_18
REMARK   12  A    between atoms: C_20  and  C_21
REMARK   13  A    between atoms: C_20  and  C_22
REMARK   14  A    between atoms: C_20  and  C_23
REMARK                            x       y       z     vdW  Elec       q    Type
REMARK                         _______ _______ _______ _____ _____    ______ ____
ROOT
ATOM      1  N   UNL     1       2.863   4.712  18.684  0.00  0.00    +0.000 NA
ENDROOT
BRANCH   1   2
ATOM      2  C   UNL     1       2.219   3.525  19.327  0.00  0.00    +0.000 C 
ATOM      3  C   UNL     1       0.912   3.948  20.051  0.00  0.00    +0.000 C 
ATOM      4  C   UNL     1       1.772   2.459  18.290  0.00  0.00    +0.000 C 
ATOM      5  C   UNL     1       3.128   2.809  20.344  0.00  0.00    +0.000 C 
ENDBRANCH   1   2
BRANCH   1   6
ATOM      6  C   UNL     1       3.088   5.872  19.565  0.00  0.00    +0.000 C 
BRANCH   6  11
ATOM      7  C   UNL     1       0.919  11.222  18.854  0.00  0.00    +0.000 C 
ATOM      8  C   UNL     1       1.265   9.769  18.979  0.00  0.00    +0.000 A 
ATOM      9  C   UNL     1       1.142   9.134  20.212  0.00  0.00    +0.000 A 
ATOM     10  C   UNL     1       1.625   7.839  20.385  0.00  0.00    +0.000 A 
ATOM     11  C   UNL     1       2.290   7.156  19.355  0.00  0.00    +0.000 A 
ATOM     12  C   UNL     1       2.322   7.774  18.095  0.00  0.00    +0.000 A 
ATOM     13  C   UNL     1       1.815   9.063  17.910  0.00  0.00    +0.000 A 
ENDBRANCH   6  11
ENDBRANCH   1   6
BRANCH   1  14
ATOM     14  C   UNL     1       3.934   4.432  17.707  0.00  0.00    +0.000 C 
BRANCH  14  15
ATOM     15  C   UNL     1       5.434   4.606  18.108  0.00  0.00    +0.000 C 
BRANCH  15  16
ATOM     16  O   UNL     1       5.977   3.643  19.012  0.00  0.00    +0.000 OA
ATOM     17  H   UNL     1       6.936   3.732  19.071  0.00  0.00    +0.000 HD
ENDBRANCH  15  16
BRANCH  15  18
ATOM     18  C   UNL     1       6.301   4.631  16.820  0.00  0.00    +0.000 C 
BRANCH  18  19
ATOM     19  O   UNL     1       5.444   4.770  15.681  0.00  0.00    +0.000 OA
BRANCH  19  20
ATOM     20  C   UNL     1       6.031   4.619  14.456  0.00  0.00    +0.000 A 
ATOM     21  C   UNL     1       7.208   5.248  14.055  0.00  0.00    +0.000 A 
ATOM     22  C   UNL     1       7.761   4.960  12.805  0.00  0.00    +0.000 A 
ATOM     23  C   UNL     1       7.143   4.045  11.953  0.00  0.00    +0.000 A 
ATOM     24  C   UNL     1       5.962   3.406  12.344  0.00  0.00    +0.000 A 
ATOM     25  C   UNL     1       5.290   2.409  11.447  0.00  0.00    +0.000 C 
ATOM     26  C   UNL     1       5.417   3.698  13.602  0.00  0.00    +0.000 A 
ENDBRANCH  19  20
ENDBRANCH  18  19
ENDBRANCH  15  18
ENDBRANCH  14  15
ENDBRANCH   1  14
TORSDOF 9
ENDMDL
MODEL 4
REMARK VINA RESULT:      -7.6      0.452      1.330
REMARK  Name = 
REMARK  14 active torsions:
REMARK  status: ('A' for Active; 'I' for Inactive)
REMARK    1  A    between atoms: C_1  and  C_2
REMARK    2  A    between atoms: C_5  and  C_6
REMARK    3  A    between atoms: C_6  and  N_7
REMARK    4  A    between atoms: N_7  and  C_8
REMARK    5  A    between atoms: N_7  and  C_20
REMARK    6  A    between atoms: C_8  and  C_9
REMARK    7  A    between atoms: C_9  and  O_10
REMARK    8  A    between atoms: C_9  and  C_11
REMARK    9  A    between atoms: C_11  and  O_12
REMARK   10  A    between atoms: O_12  and  C_13
REMARK   11  A    between atoms: C_17  and  C_18
REMARK   12  A    between atoms: C_20  and  C_21
REMARK   13  A    between atoms: C_20  and  C_22
REMARK   14  A    between atoms: C_20  and  C_23
REMARK                            x       y       z     vdW  Elec       q    Type
REMARK                         _______ _______ _______ _____ _____    ______ ____
ROOT
ATOM      1  N   UNL     1       3.415   4.338  18.814  0.00  0.00    +0.000 NA
ENDROOT
BRANCH   1   2
ATOM      2  C   UNL     1       2.319   3.353  18.557  0.00  0.00    +0.000 C 
ATOM      3  C   UNL     1       1.287   3.944  17.558  0.00  0.00    +0.000 C 
ATOM      4  C   UNL     1       2.835   2.057  17.875  0.00  0.00    +0.000 C 
ATOM      5  C   UNL     1       1.569   2.923  19.833  0.00  0.00    +0.000 C 
ENDBRANCH   1   2
BRANCH   1   6
ATOM      6  C   UNL     1       3.143   5.337  19.864  0.00  0.00    +0.000 C 
BRANCH   6  11
ATOM      7  C   UNL     1       0.443  10.247  18.304  0.00  0.00    +0.000 C 
ATOM      8  C   UNL     1       1.321   9.118  18.752  0.00  0.00    +0.000 A 
ATOM      9  C   UNL     1       2.089   8.428  17.819  0.00  0.00    +0.000 A 
ATOM     10  C   UNL     1       2.770   7.270  18.190  0.00  0.00    +0.000 A 
ATOM     11  C   UNL     1       2.667   6.736  19.482  0.00  0.00    +0.000 A 
ATOM     12  C   UNL     1       1.965   7.494  20.434  0.00  0.00    +0.000 A 
ATOM     13  C   UNL     1       1.302   8.670  20.073  0.00  0.00    +0.000 A 
ENDBRANCH   6  11
ENDBRANCH   1   6
BRANCH   1  14
ATOM     14  C   UNL     1       4.795   3.816  18.769  0.00  0.00    +0.000 C 
BRANCH  14  15
ATOM     15  C   UNL     1       5.962   4.713  18.246  0.00  0.00    +0.000 C 
BRANCH  15  16
ATOM     16  O   UNL     1       7.111   4.833  19.087  0.00  0.00    +0.000 OA
ATOM     17  H   UNL     1       7.910   4.569  18.614  0.00  0.00    +0.000 HD
ENDBRANCH  15  16
BRANCH  15  18
ATOM     18  C   UNL     1       6.411   4.196  16.852  0.00  0.00    +0.000 C 
BRANCH  18  19
ATOM     19  O   UNL     1       5.897   5.069  15.841  0.00  0.00    +0.000 OA
BRANCH  19  20
ATOM     20  C   UNL     1       6.347   4.856  14.568  0.00  0.00    +0.000 A 
ATOM     21  C   UNL     1       7.489   5.438  14.020  0.00  0.00    +0.000 A 
ATOM     22  C   UNL     1       7.899   5.088  12.731  0.00  0.00    +0.000 A 
ATOM     23  C   UNL     1       7.173   4.159  11.987  0.00  0.00    +0.000 A 
ATOM     24  C   UNL     1       6.026   3.566  12.525  0.00  0.00    +0.000 A 
ATOM     25  C   UNL     1       5.240   2.555  11.745  0.00  0.00    +0.000 C 
ATOM     26  C   UNL     1       5.625   3.921  13.821  0.00  0.00    +0.000 A 
ENDBRANCH  19  20
ENDBRANCH  18  19
ENDBRANCH  15  18
ENDBRANCH  14  15
ENDBRANCH   1  14
TORSDOF 9
ENDMDL
MODEL 5
REMARK VINA RESULT:      -7.4      2.151      3.637
REMARK  Name = 
REMARK  14 active torsions:
REMARK  status: ('A' for Active; 'I' for Inactive)
REMARK    1  A    between atoms: C_1  and  C_2
REMARK    2  A    between atoms: C_5  and  C_6
REMARK    3  A    between atoms: C_6  and  N_7
REMARK    4  A    between atoms: N_7  and  C_8
REMARK    5  A    between atoms: N_7  and  C_20
REMARK    6  A    between atoms: C_8  and  C_9
REMARK    7  A    between atoms: C_9  and  O_10
REMARK    8  A    between atoms: C_9  and  C_11
REMARK    9  A    between atoms: C_11  and  O_12
REMARK   10  A    between atoms: O_12  and  C_13
REMARK   11  A    between atoms: C_17  and  C_18
REMARK   12  A    between atoms: C_20  and  C_21
REMARK   13  A    between atoms: C_20  and  C_22
REMARK   14  A    between atoms: C_20  and  C_23
REMARK                            x       y       z     vdW  Elec       q    Type
REMARK                         _______ _______ _______ _____ _____    ______ ____
ROOT
ATOM      1  N   UNL     1       2.382   4.698  18.598  0.00  0.00    +0.000 NA
ENDROOT
BRANCH   1   2
ATOM      2  C   UNL     1       2.075   3.602  19.568  0.00  0.00    +0.000 C 
ATOM      3  C   UNL     1       0.935   4.036  20.529  0.00  0.00    +0.000 C 
ATOM      4  C   UNL     1       1.540   2.323  18.868  0.00  0.00    +0.000 C 
ATOM      5  C   UNL     1       3.289   3.175  20.416  0.00  0.00    +0.000 C 
ENDBRANCH   1   2
BRANCH   1   6
ATOM      6  C   UNL     1       2.987   5.911  19.176  0.00  0.00    +0.000 C 
BRANCH   6  11
ATOM      7  C   UNL     1       0.910  11.343  19.257  0.00  0.00    +0.000 C 
ATOM      8  C   UNL     1       1.226   9.880  19.192  0.00  0.00    +0.000 A 
ATOM      9  C   UNL     1       1.204   9.116  20.356  0.00  0.00    +0.000 A 
ATOM     10  C   UNL     1       1.665   7.802  20.341  0.00  0.00    +0.000 A 
ATOM     11  C   UNL     1       2.210   7.224  19.184  0.00  0.00    +0.000 A 
ATOM     12  C   UNL     1       2.139   7.975  18.000  0.00  0.00    +0.000 A 
ATOM     13  C   UNL     1       1.652   9.285  18.004  0.00  0.00    +0.000 A 
ENDBRANCH   6  11
ENDBRANCH   1   6
BRANCH   1  14
ATOM     14  C   UNL     1       2.905   4.285  17.281  0.00  0.00    +0.000 C 
BRANCH  14  15
ATOM     15  C   UNL     1       4.410   3.900  17.115  0.00  0.00    +0.000 C 
BRANCH  15  16
ATOM     16  O   UNL     1       4.712   2.508  17.002  0.00  0.00    +0.000 OA
ATOM     17  H   UNL     1       3.903   1.983  16.982  0.00  0.00    +0.000 HD
ENDBRANCH  15  16
BRANCH  15  18
ATOM     18  C   UNL     1       4.987   4.641  15.878  0.00  0.00    +0.000 C 
BRANCH  18  19
ATOM     19  O   UNL     1       6.417   4.633  15.953  0.00  0.00    +0.000 OA
BRANCH  19  20
ATOM     20  C   UNL     1       6.975   5.293  17.012  0.00  0.00    +0.000 A 
ATOM     21  C   UNL     1       7.459   4.679  18.165  0.00  0.00    +0.000 A 
ATOM     22  C   UNL     1       8.082   5.445  19.154  0.00  0.00    +0.000 A 
ATOM     23  C   UNL     1       8.223   6.823  18.994  0.00  0.00    +0.000 A 
ATOM     24  C   UNL     1       7.743   7.452  17.840  0.00  0.00    +0.000 A 
ATOM     25  C   UNL     1       7.898   8.931  17.645  0.00  0.00    +0.000 C 
ATOM     26  C   UNL     1       7.124   6.673  16.852  0.00  0.00    +0.000 A 
ENDBRANCH  19  20
ENDBRANCH  18  19
ENDBRANCH  15  18
ENDBRANCH  14  15
ENDBRANCH   1  14
TORSDOF 9
ENDMDL
MODEL 6
REMARK VINA RESULT:      -7.2      2.741      8.237
REMARK  Name = 
REMARK  14 active torsions:
REMARK  status: ('A' for Active; 'I' for Inactive)
REMARK    1  A    between atoms: C_1  and  C_2
REMARK    2  A    between atoms: C_5  and  C_6
REMARK    3  A    between atoms: C_6  and  N_7
REMARK    4  A    between atoms: N_7  and  C_8
REMARK    5  A    between atoms: N_7  and  C_20
REMARK    6  A    between atoms: C_8  and  C_9
REMARK    7  A    between atoms: C_9  and  O_10
REMARK    8  A    between atoms: C_9  and  C_11
REMARK    9  A    between atoms: C_11  and  O_12
REMARK   10  A    between atoms: O_12  and  C_13
REMARK   11  A    between atoms: C_17  and  C_18
REMARK   12  A    between atoms: C_20  and  C_21
REMARK   13  A    between atoms: C_20  and  C_22
REMARK   14  A    between atoms: C_20  and  C_23
REMARK                            x       y       z     vdW  Elec       q    Type
REMARK                         _______ _______ _______ _____ _____    ______ ____
ROOT
ATOM      1  N   UNL     1       3.084   5.310  19.206  0.00  0.00    +0.000 NA
ENDROOT
BRANCH   1   2
ATOM      2  C   UNL     1       2.221   4.107  19.421  0.00  0.00    +0.000 C 
ATOM      3  C   UNL     1       1.108   4.422  20.457  0.00  0.00    +0.000 C 
ATOM      4  C   UNL     1       1.460   3.685  18.135  0.00  0.00    +0.000 C 
ATOM      5  C   UNL     1       3.002   2.871  19.908  0.00  0.00    +0.000 C 
ENDBRANCH   1   2
BRANCH   1   6
ATOM      6  C   UNL     1       4.537   5.074  19.280  0.00  0.00    +0.000 C 
BRANCH   6  11
ATOM      7  C   UNL     1       7.052   4.910  14.038  0.00  0.00    +0.000 C 
ATOM      8  C   UNL     1       6.570   4.802  15.453  0.00  0.00    +0.000 A 
ATOM      9  C   UNL     1       5.600   3.858  15.782  0.00  0.00    +0.000 A 
ATOM     10  C   UNL     1       5.017   3.865  17.047  0.00  0.00    +0.000 A 
ATOM     11  C   UNL     1       5.340   4.839  18.003  0.00  0.00    +0.000 A 
ATOM     12  C   UNL     1       6.384   5.723  17.689  0.00  0.00    +0.000 A 
ATOM     13  C   UNL     1       6.991   5.704  16.430  0.00  0.00    +0.000 A 
ENDBRANCH   6  11
ENDBRANCH   1   6
BRANCH   1  14
ATOM     14  C   UNL     1       2.641   6.262  18.169  0.00  0.00    +0.000 C 
BRANCH  14  15
ATOM     15  C   UNL     1       2.643   7.798  18.454  0.00  0.00    +0.000 C 
BRANCH  15  16
ATOM     16  O   UNL     1       2.095   8.644  17.441  0.00  0.00    +0.000 OA
ATOM     17  H   UNL     1       2.316   8.312  16.562  0.00  0.00    +0.000 HD
ENDBRANCH  15  16
BRANCH  15  18
ATOM     18  C   UNL     1       1.895   8.064  19.789  0.00  0.00    +0.000 C 
BRANCH  18  19
ATOM     19  O   UNL     1       1.158   9.286  19.677  0.00  0.00    +0.000 OA
BRANCH  19  20
ATOM     20  C   UNL     1       0.452   9.675  20.781  0.00  0.00    +0.000 A 
ATOM     21  C   UNL     1       0.080   8.831  21.826  0.00  0.00    +0.000 A 
ATOM     22  C   UNL     1      -0.573   9.352  22.944  0.00  0.00    +0.000 A 
ATOM     23  C   UNL     1      -0.857  10.715  23.024  0.00  0.00    +0.000 A 
ATOM     24  C   UNL     1      -0.488  11.575  21.984  0.00  0.00    +0.000 A 
ATOM     25  C   UNL     1      -0.773  13.045  22.058  0.00  0.00    +0.000 C 
ATOM     26  C   UNL     1       0.172  11.042  20.867  0.00  0.00    +0.000 A 
ENDBRANCH  19  20
ENDBRANCH  18  19
ENDBRANCH  15  18
ENDBRANCH  14  15
ENDBRANCH   1  14
TORSDOF 9
ENDMDL
MODEL 7
REMARK VINA RESULT:      -7.2      0.939      1.637
REMARK  Name = 
REMARK  14 active torsions:
REMARK  status: ('A' for Active; 'I' for Inactive)
REMARK    1  A    between atoms: C_1  and  C_2
REMARK    2  A    between atoms: C_5  and  C_6
REMARK    3  A    between atoms: C_6  and  N_7
REMARK    4  A    between atoms: N_7  and  C_8
REMARK    5  A    between atoms: N_7  and  C_20
REMARK    6  A    between atoms: C_8  and  C_9
REMARK    7  A    between atoms: C_9  and  O_10
REMARK    8  A    between atoms: C_9  and  C_11
REMARK    9  A    between atoms: C_11  and  O_12
REMARK   10  A    between atoms: O_12  and  C_13
REMARK   11  A    between atoms: C_17  and  C_18
REMARK   12  A    between atoms: C_20  and  C_21
REMARK   13  A    between atoms: C_20  and  C_22
REMARK   14  A    between atoms: C_20  and  C_23
REMARK                            x       y       z     vdW  Elec       q    Type
REMARK                         _______ _______ _______ _____ _____    ______ ____
ROOT
ATOM      1  N   UNL     1       2.832   5.038  18.794  0.00  0.00    +0.000 NA
ENDROOT
BRANCH   1   2
ATOM      2  C   UNL     1       2.288   3.776  19.384  0.00  0.00    +0.000 C 
ATOM      3  C   UNL     1       1.124   4.095  20.360  0.00  0.00    +0.000 C 
ATOM      4  C   UNL     1       1.663   2.843  18.311  0.00  0.00    +0.000 C 
ATOM      5  C   UNL     1       3.344   2.947  20.140  0.00  0.00    +0.000 C 
ENDBRANCH   1   2
BRANCH   1   6
ATOM      6  C   UNL     1       2.974   6.169  19.729  0.00  0.00    +0.000 C 
BRANCH   6  11
ATOM      7  C   UNL     1      -0.356  10.785  18.533  0.00  0.00    +0.000 C 
ATOM      8  C   UNL     1       0.676   9.749  18.860  0.00  0.00    +0.000 A 
ATOM      9  C   UNL     1       1.363   9.110  17.831  0.00  0.00    +0.000 A 
ATOM     10  C   UNL     1       2.192   8.026  18.110  0.00  0.00    +0.000 A 
ATOM     11  C   UNL     1       2.323   7.512  19.409  0.00  0.00    +0.000 A 
ATOM     12  C   UNL     1       1.698   8.224  20.445  0.00  0.00    +0.000 A 
ATOM     13  C   UNL     1       0.886   9.328  20.173  0.00  0.00    +0.000 A 
ENDBRANCH   6  11
ENDBRANCH   1   6
BRANCH   1  14
ATOM     14  C   UNL     1       3.912   4.889  17.799  0.00  0.00    +0.000 C 
BRANCH  14  15
ATOM     15  C   UNL     1       5.338   5.458  18.090  0.00  0.00    +0.000 C 
BRANCH  15  16
ATOM     16  O   UNL     1       5.821   5.337  19.429  0.00  0.00    +0.000 OA
ATOM     17  H   UNL     1       5.434   6.016  19.995  0.00  0.00    +0.000 HD
ENDBRANCH  15  16
BRANCH  15  18
ATOM     18  C   UNL     1       6.355   4.789  17.126  0.00  0.00    +0.000 C 
BRANCH  18  19
ATOM     19  O   UNL     1       5.640   4.133  16.073  0.00  0.00    +0.000 OA
BRANCH  19  20
ATOM     20  C   UNL     1       6.143   4.281  14.811  0.00  0.00    +0.000 A 
ATOM     21  C   UNL     1       7.251   5.060  14.483  0.00  0.00    +0.000 A 
ATOM     22  C   UNL     1       7.727   5.077  13.170  0.00  0.00    +0.000 A 
ATOM     23  C   UNL     1       7.101   4.317  12.182  0.00  0.00    +0.000 A 
ATOM     24  C   UNL     1       5.989   3.529  12.498  0.00  0.00    +0.000 A 
ATOM     25  C   UNL     1       5.311   2.695  11.452  0.00  0.00    +0.000 C 
ATOM     26  C   UNL     1       5.522   3.515  13.820  0.00  0.00    +0.000 A 
ENDBRANCH  19  20
ENDBRANCH  18  19
ENDBRANCH  15  18
ENDBRANCH  14  15
ENDBRANCH   1  14
TORSDOF 9
ENDMDL
MODEL 8
REMARK VINA RESULT:      -7.2      1.285      1.527
REMARK  Name = 
REMARK  14 active torsions:
REMARK  status: ('A' for Active; 'I' for Inactive)
REMARK    1  A    between atoms: C_1  and  C_2
REMARK    2  A    between atoms: C_5  and  C_6
REMARK    3  A    between atoms: C_6  and  N_7
REMARK    4  A    between atoms: N_7  and  C_8
REMARK    5  A    between atoms: N_7  and  C_20
REMARK    6  A    between atoms: C_8  and  C_9
REMARK    7  A    between atoms: C_9  and  O_10
REMARK    8  A    between atoms: C_9  and  C_11
REMARK    9  A    between atoms: C_11  and  O_12
REMARK   10  A    between atoms: O_12  and  C_13
REMARK   11  A    between atoms: C_17  and  C_18
REMARK   12  A    between atoms: C_20  and  C_21
REMARK   13  A    between atoms: C_20  and  C_22
REMARK   14  A    between atoms: C_20  and  C_23
REMARK                            x       y       z     vdW  Elec       q    Type
REMARK                         _______ _______ _______ _____ _____    ______ ____
ROOT
ATOM      1  N   UNL     1       3.056   4.069  19.373  0.00  0.00    +0.000 NA
ENDROOT
BRANCH   1   2
ATOM      2  C   UNL     1       2.072   3.235  20.128  0.00  0.00    +0.000 C 
ATOM      3  C   UNL     1       1.847   1.879  19.405  0.00  0.00    +0.000 C 
ATOM      4  C   UNL     1       2.583   2.850  21.543  0.00  0.00    +0.000 C 
ATOM      5  C   UNL     1       0.704   3.918  20.315  0.00  0.00    +0.000 C 
ENDBRANCH   1   2
BRANCH   1   6
ATOM      6  C   UNL     1       3.370   5.381  19.967  0.00  0.00    +0.000 C 
BRANCH   6  11
ATOM      7  C   UNL     1       1.319  10.591  18.395  0.00  0.00    +0.000 C 
ATOM      8  C   UNL     1       1.642   9.167  18.729  0.00  0.00    +0.000 A 
ATOM      9  C   UNL     1       1.381   8.680  20.007  0.00  0.00    +0.000 A 
ATOM     10  C   UNL     1       1.836   7.419  20.383  0.00  0.00    +0.000 A 
ATOM     11  C   UNL     1       2.607   6.625  19.521  0.00  0.00    +0.000 A 
ATOM     12  C   UNL     1       2.781   7.090  18.208  0.00  0.00    +0.000 A 
ATOM     13  C   UNL     1       2.304   8.344  17.817  0.00  0.00    +0.000 A 
ENDBRANCH   6  11
ENDBRANCH   1   6
BRANCH   1  14
ATOM     14  C   UNL     1       4.193   3.355  18.759  0.00  0.00    +0.000 C 
BRANCH  14  15
ATOM     15  C   UNL     1       4.334   3.283  17.205  0.00  0.00    +0.000 C 
BRANCH  15  16
ATOM     16  O   UNL     1       3.209   3.710  16.434  0.00  0.00    +0.000 OA
ATOM     17  H   UNL     1       3.154   3.217  15.606  0.00  0.00    +0.000 HD
ENDBRANCH  15  16
BRANCH  15  18
ATOM     18  C   UNL     1       5.580   4.102  16.772  0.00  0.00    +0.000 C 
BRANCH  18  19
ATOM     19  O   UNL     1       5.227   4.944  15.669  0.00  0.00    +0.000 OA
BRANCH  19  20
ATOM     20  C   UNL     1       5.903   4.730  14.500  0.00  0.00    +0.000 A 
ATOM     21  C   UNL     1       7.124   5.314  14.169  0.00  0.00    +0.000 A 
ATOM     22  C   UNL     1       7.764   4.963  12.978  0.00  0.00    +0.000 A 
ATOM     23  C   UNL     1       7.189   4.029  12.116  0.00  0.00    +0.000 A 
ATOM     24  C   UNL     1       5.964   3.435  12.437  0.00  0.00    +0.000 A 
ATOM     25  C   UNL     1       5.337   2.419  11.529  0.00  0.00    +0.000 C 
ATOM     26  C   UNL     1       5.332   3.791  13.637  0.00  0.00    +0.000 A 
ENDBRANCH  19  20
ENDBRANCH  18  19
ENDBRANCH  15  18
ENDBRANCH  14  15
ENDBRANCH   1  14
TORSDOF 9
ENDMDL
MODEL 9
REMARK VINA RESULT:      -7.2      0.938      1.618
REMARK  Name = 
REMARK  14 active torsions:
REMARK  status: ('A' for Active; 'I' for Inactive)
REMARK    1  A    between atoms: C_1  and  C_2
REMARK    2  A    between atoms: C_5  and  C_6
REMARK    3  A    between atoms: C_6  and  N_7
REMARK    4  A    between atoms: N_7  and  C_8
REMARK    5  A    between atoms: N_7  and  C_20
REMARK    6  A    between atoms: C_8  and  C_9
REMARK    7  A    between atoms: C_9  and  O_10
REMARK    8  A    between atoms: C_9  and  C_11
REMARK    9  A    between atoms: C_11  and  O_12
REMARK   10  A    between atoms: O_12  and  C_13
REMARK   11  A    between atoms: C_17  and  C_18
REMARK   12  A    between atoms: C_20  and  C_21
REMARK   13  A    between atoms: C_20  and  C_22
REMARK   14  A    between atoms: C_20  and  C_23
REMARK                            x       y       z     vdW  Elec       q    Type
REMARK                         _______ _______ _______ _____ _____    ______ ____
ROOT
ATOM      1  N   UNL     1       3.346   4.453  18.455  0.00  0.00    +0.000 NA
ENDROOT
BRANCH   1   2
ATOM      2  C   UNL     1       2.958   3.161  19.100  0.00  0.00    +0.000 C 
ATOM      3  C   UNL     1       1.593   3.310  19.827  0.00  0.00    +0.000 C 
ATOM      4  C   UNL     1       2.735   2.025  18.065  0.00  0.00    +0.000 C 
ATOM      5  C   UNL     1       3.995   2.646  20.116  0.00  0.00    +0.000 C 
ENDBRANCH   1   2
BRANCH   1   6
ATOM      6  C   UNL     1       2.229   5.336  18.072  0.00  0.00    +0.000 C 
BRANCH   6  11
ATOM      7  C   UNL     1       0.842  10.505  20.350  0.00  0.00    +0.000 C 
ATOM      8  C   UNL     1       1.420   9.232  19.810  0.00  0.00    +0.000 A 
ATOM      9  C   UNL     1       1.745   9.139  18.459  0.00  0.00    +0.000 A 
ATOM     10  C   UNL     1       2.114   7.913  17.910  0.00  0.00    +0.000 A 
ATOM     11  C   UNL     1       2.121   6.735  18.672  0.00  0.00    +0.000 A 
ATOM     12  C   UNL     1       1.882   6.863  20.050  0.00  0.00    +0.000 A 
ATOM     13  C   UNL     1       1.537   8.096  20.611  0.00  0.00    +0.000 A 
ENDBRANCH   6  11
ENDBRANCH   1   6
BRANCH   1  14
ATOM     14  C   UNL     1       4.540   5.129  18.999  0.00  0.00    +0.000 C 
BRANCH  14  15
ATOM     15  C   UNL     1       5.860   5.190  18.165  0.00  0.00    +0.000 C 
BRANCH  15  16
ATOM     16  O   UNL     1       6.903   4.288  18.539  0.00  0.00    +0.000 OA
ATOM     17  H   UNL     1       7.752   4.580  18.184  0.00  0.00    +0.000 HD
ENDBRANCH  15  16
BRANCH  15  18
ATOM     18  C   UNL     1       5.521   4.973  16.665  0.00  0.00    +0.000 C 
BRANCH  18  19
ATOM     19  O   UNL     1       6.555   4.189  16.060  0.00  0.00    +0.000 OA
BRANCH  19  20
ATOM     20  C   UNL     1       6.740   4.358  14.717  0.00  0.00    +0.000 A 
ATOM     21  C   UNL     1       7.694   5.199  14.145  0.00  0.00    +0.000 A 
ATOM     22  C   UNL     1       7.848   5.236  12.757  0.00  0.00    +0.000 A 
ATOM     23  C   UNL     1       7.053   4.435  11.937  0.00  0.00    +0.000 A 
ATOM     24  C   UNL     1       6.093   3.586  12.498  0.00  0.00    +0.000 A 
ATOM     25  C   UNL     1       5.239   2.709  11.633  0.00  0.00    +0.000 C 
ATOM     26  C   UNL     1       5.950   3.553  13.892  0.00  0.00    +0.000 A 
ENDBRANCH  19  20
ENDBRANCH  18  19
ENDBRANCH  15  18
ENDBRANCH  14  15
ENDBRANCH   1  14
TORSDOF 9
ENDMDL
