MODEL 1
REMARK VINA RESULT:      -7.3      0.000      0.000
REMARK  Name = 
REMARK  2 active torsions:
REMARK  status: ('A' for Active; 'I' for Inactive)
REMARK    1  A    between atoms: N_4  and  S_5
REMARK    2  A    between atoms: S_5  and  C_8
REMARK                            x       y       z     vdW  Elec       q    Type
REMARK                         _______ _______ _______ _____ _____    ______ ____
ROOT
ATOM      1  O   UNL     1       5.838   6.846  17.479  0.00  0.00    +0.000 OA
ATOM      2  C   UNL     1       5.385   5.739  17.779  0.00  0.00    +0.000 C 
ATOM      3  C   UNL     1       4.837   5.566  19.201  0.00  0.00    +0.000 C 
ATOM      4  N   UNL     1       3.874   4.452  19.417  0.00  0.00    +0.000 NA
ATOM      5  C   UNL     1       4.442   3.219  18.819  0.00  0.00    +0.000 C 
ATOM      6  C   UNL     1       4.618   3.403  17.316  0.00  0.00    +0.000 C 
ATOM      7  N   UNL     1       5.409   4.591  16.963  0.00  0.00    +0.000 N 
ATOM      8  C   UNL     1       6.082   4.705  15.738  0.00  0.00    +0.000 A 
ATOM      9  N   UNL     1       7.016   5.576  15.427  0.00  0.00    +0.000 NA
ATOM     10  C   UNL     1       7.475   5.359  14.143  0.00  0.00    +0.000 A 
ATOM     11  C   UNL     1       6.885   4.313  13.472  0.00  0.00    +0.000 A 
ATOM     12  S   UNL     1       5.725   3.571  14.487  0.00  0.00    +0.000 S 
ENDROOT
BRANCH   4  13
ATOM     13  S   UNL     1       2.261   4.790  18.960  0.00  0.00    +0.000 S 
ATOM     14  O   UNL     1       2.145   4.559  17.535  0.00  0.00    +0.000 OA
ATOM     15  O   UNL     1       1.397   4.093  19.890  0.00  0.00    +0.000 OA
BRANCH  13  16
ATOM     16  C   UNL     1       2.068   6.532  19.271  0.00  0.00    +0.000 A 
ATOM     17  C   UNL     1       2.127   7.446  18.202  0.00  0.00    +0.000 A 
ATOM     18  C   UNL     1       1.857   8.803  18.427  0.00  0.00    +0.000 A 
ATOM     19  C   UNL     1       1.491   9.193  19.699  0.00  0.00    +0.000 A 
ATOM     20  C   UNL     1       1.404   8.292  20.749  0.00  0.00    +0.000 A 
ATOM     21  C   UNL     1       1.705   6.953  20.561  0.00  0.00    +0.000 A 
ATOM     22  C   UNL     1       0.988   9.010  21.976  0.00  0.00    +0.000 C 
ATOM     23  C   UNL     1       0.542  10.332  21.346  0.00  0.00    +0.000 C 
ATOM     24  O   UNL     1       1.171  10.479  20.050  0.00  0.00    +0.000 OA
ENDBRANCH  13  16
ENDBRANCH   4  13
TORSDOF 2
ENDMDL
MODEL 2
REMARK VINA RESULT:      -7.3      2.455      7.021
REMARK  Name = 
REMARK  2 active torsions:
REMARK  status: ('A' for Active; 'I' for Inactive)
REMARK    1  A    between atoms: N_4  and  S_5
REMARK    2  A    between atoms: S_5  and  C_8
REMARK                            x       y       z     vdW  Elec       q    Type
REMARK                         _______ _______ _______ _____ _____    ______ ____
ROOT
ATOM      1  O   UNL     1       2.403   8.091  17.597  0.00  0.00    +0.000 OA
ATOM      2  C   UNL     1       2.225   7.110  18.323  0.00  0.00    +0.000 C 
ATOM      3  C   UNL     1       2.401   5.726  17.687  0.00  0.00    +0.000 C 
ATOM      4  N   UNL     1       2.675   4.594  18.613  0.00  0.00    +0.000 NA
ATOM      5  C   UNL     1       1.691   4.645  19.721  0.00  0.00    +0.000 C 
ATOM      6  C   UNL     1       1.856   5.942  20.504  0.00  0.00    +0.000 C 
ATOM      7  N   UNL     1       1.786   7.145  19.661  0.00  0.00    +0.000 N 
ATOM      8  C   UNL     1       1.445   8.402  20.177  0.00  0.00    +0.000 A 
ATOM      9  N   UNL     1       1.095   9.469  19.495  0.00  0.00    +0.000 NA
ATOM     10  C   UNL     1       0.791  10.514  20.345  0.00  0.00    +0.000 A 
ATOM     11  C   UNL     1       0.910  10.237  21.688  0.00  0.00    +0.000 A 
ATOM     12  S   UNL     1       1.409   8.614  21.890  0.00  0.00    +0.000 S 
ENDROOT
BRANCH   4  13
ATOM     13  S   UNL     1       4.304   4.444  19.111  0.00  0.00    +0.000 S 
ATOM     14  O   UNL     1       4.549   5.438  20.135  0.00  0.00    +0.000 OA
ATOM     15  O   UNL     1       4.544   3.041  19.378  0.00  0.00    +0.000 OA
BRANCH  13  16
ATOM     16  C   UNL     1       5.251   4.871  17.666  0.00  0.00    +0.000 A 
ATOM     17  C   UNL     1       6.378   5.705  17.787  0.00  0.00    +0.000 A 
ATOM     18  C   UNL     1       7.193   5.946  16.672  0.00  0.00    +0.000 A 
ATOM     19  C   UNL     1       6.883   5.308  15.488  0.00  0.00    +0.000 A 
ATOM     20  C   UNL     1       5.790   4.463  15.370  0.00  0.00    +0.000 A 
ATOM     21  C   UNL     1       4.947   4.241  16.447  0.00  0.00    +0.000 A 
ATOM     22  C   UNL     1       5.727   3.935  13.988  0.00  0.00    +0.000 C 
ATOM     23  C   UNL     1       7.119   4.347  13.505  0.00  0.00    +0.000 C 
ATOM     24  O   UNL     1       7.610   5.429  14.332  0.00  0.00    +0.000 OA
ENDBRANCH  13  16
ENDBRANCH   4  13
TORSDOF 2
ENDMDL
MODEL 3
REMARK VINA RESULT:      -7.0      1.447      1.711
REMARK  Name = 
REMARK  2 active torsions:
REMARK  status: ('A' for Active; 'I' for Inactive)
REMARK    1  A    between atoms: N_4  and  S_5
REMARK    2  A    between atoms: S_5  and  C_8
REMARK                            x       y       z     vdW  Elec       q    Type
REMARK                         _______ _______ _______ _____ _____    ______ ____
ROOT
ATOM      1  O   UNL     1       5.357   5.380  19.431  0.00  0.00    +0.000 OA
ATOM      2  C   UNL     1       4.835   4.306  19.124  0.00  0.00    +0.000 C 
ATOM      3  C   UNL     1       4.110   3.535  20.234  0.00  0.00    +0.000 C 
ATOM      4  N   UNL     1       3.091   2.540  19.803  0.00  0.00    +0.000 NA
ATOM      5  C   UNL     1       3.688   1.686  18.747  0.00  0.00    +0.000 C 
ATOM      6  C   UNL     1       4.055   2.537  17.537  0.00  0.00    +0.000 C 
ATOM      7  N   UNL     1       4.922   3.677  17.867  0.00  0.00    +0.000 N 
ATOM      8  C   UNL     1       5.745   4.293  16.913  0.00  0.00    +0.000 A 
ATOM      9  N   UNL     1       6.738   5.122  17.142  0.00  0.00    +0.000 NA
ATOM     10  C   UNL     1       7.346   5.493  15.959  0.00  0.00    +0.000 A 
ATOM     11  C   UNL     1       6.809   4.940  14.819  0.00  0.00    +0.000 A 
ATOM     12  S   UNL     1       5.509   3.914  15.246  0.00  0.00    +0.000 S 
ENDROOT
BRANCH   4  13
ATOM     13  S   UNL     1       1.560   3.192  19.414  0.00  0.00    +0.000 S 
ATOM     14  O   UNL     1       1.204   2.729  18.089  0.00  0.00    +0.000 OA
ATOM     15  O   UNL     1       0.686   2.938  20.540  0.00  0.00    +0.000 OA
BRANCH  13  16
ATOM     16  C   UNL     1       1.830   4.950  19.347  0.00  0.00    +0.000 A 
ATOM     17  C   UNL     1       2.160   5.563  18.124  0.00  0.00    +0.000 A 
ATOM     18  C   UNL     1       2.257   6.959  18.045  0.00  0.00    +0.000 A 
ATOM     19  C   UNL     1       1.973   7.697  19.176  0.00  0.00    +0.000 A 
ATOM     20  C   UNL     1       1.619   7.100  20.376  0.00  0.00    +0.000 A 
ATOM     21  C   UNL     1       1.556   5.721  20.490  0.00  0.00    +0.000 A 
ATOM     22  C   UNL     1       1.376   8.150  21.392  0.00  0.00    +0.000 C 
ATOM     23  C   UNL     1       1.317   9.372  20.471  0.00  0.00    +0.000 C 
ATOM     24  O   UNL     1       1.998   9.067  19.231  0.00  0.00    +0.000 OA
ENDBRANCH  13  16
ENDBRANCH   4  13
TORSDOF 2
ENDMDL
MODEL 4
REMARK VINA RESULT:      -6.8      4.749      8.964
REMARK  Name = 
REMARK  2 active torsions:
REMARK  status: ('A' for Active; 'I' for Inactive)
REMARK    1  A    between atoms: N_4  and  S_5
REMARK    2  A    between atoms: S_5  and  C_8
REMARK                            x       y       z     vdW  Elec       q    Type
REMARK                         _______ _______ _______ _____ _____    ______ ____
ROOT
ATOM      1  O   UNL     1       2.196  13.103  21.189  0.00  0.00    +0.000 OA
ATOM      2  C   UNL     1       1.200  12.409  20.971  0.00  0.00    +0.000 C 
ATOM      3  C   UNL     1       1.340  11.286  19.936  0.00  0.00    +0.000 C 
ATOM      4  N   UNL     1       0.358  10.171  20.020  0.00  0.00    +0.000 NA
ATOM      5  C   UNL     1      -1.003  10.752  20.121  0.00  0.00    +0.000 C 
ATOM      6  C   UNL     1      -1.121  11.579  21.395  0.00  0.00    +0.000 C 
ATOM      7  N   UNL     1      -0.081  12.611  21.520  0.00  0.00    +0.000 N 
ATOM      8  C   UNL     1      -0.249  13.751  22.317  0.00  0.00    +0.000 A 
ATOM      9  N   UNL     1       0.479  14.845  22.296  0.00  0.00    +0.000 NA
ATOM     10  C   UNL     1      -0.010  15.773  23.195  0.00  0.00    +0.000 A 
ATOM     11  C   UNL     1      -1.121  15.380  23.905  0.00  0.00    +0.000 A 
ATOM     12  S   UNL     1      -1.573  13.803  23.424  0.00  0.00    +0.000 S 
ENDROOT
BRANCH   4  13
ATOM     13  S   UNL     1       0.714   8.978  21.191  0.00  0.00    +0.000 S 
ATOM     14  O   UNL     1       1.681   9.535  22.114  0.00  0.00    +0.000 OA
ATOM     15  O   UNL     1      -0.549   8.461  21.675  0.00  0.00    +0.000 OA
BRANCH  13  16
ATOM     16  C   UNL     1       1.496   7.672  20.270  0.00  0.00    +0.000 A 
ATOM     17  C   UNL     1       2.167   7.965  19.068  0.00  0.00    +0.000 A 
ATOM     18  C   UNL     1       2.884   6.960  18.404  0.00  0.00    +0.000 A 
ATOM     19  C   UNL     1       2.947   5.711  18.985  0.00  0.00    +0.000 A 
ATOM     20  C   UNL     1       2.312   5.423  20.184  0.00  0.00    +0.000 A 
ATOM     21  C   UNL     1       1.565   6.388  20.839  0.00  0.00    +0.000 A 
ATOM     22  C   UNL     1       2.568   4.010  20.546  0.00  0.00    +0.000 C 
ATOM     23  C   UNL     1       3.695   3.704  19.557  0.00  0.00    +0.000 C 
ATOM     24  O   UNL     1       3.637   4.648  18.461  0.00  0.00    +0.000 OA
ENDBRANCH  13  16
ENDBRANCH   4  13
TORSDOF 2
ENDMDL
MODEL 5
REMARK VINA RESULT:      -6.4      5.434      9.568
REMARK  Name = 
REMARK  2 active torsions:
REMARK  status: ('A' for Active; 'I' for Inactive)
REMARK    1  A    between atoms: N_4  and  S_5
REMARK    2  A    between atoms: S_5  and  C_8
REMARK                            x       y       z     vdW  Elec       q    Type
REMARK                         _______ _______ _______ _____ _____    ______ ____
ROOT
ATOM      1  O   UNL     1       1.859  14.279  21.991  0.00  0.00    +0.000 OA
ATOM      2  C   UNL     1       1.141  13.753  21.138  0.00  0.00    +0.000 C 
ATOM      3  C   UNL     1       1.811  12.781  20.159  0.00  0.00    +0.000 C 
ATOM      4  N   UNL     1       0.925  11.797  19.480  0.00  0.00    +0.000 NA
ATOM      5  C   UNL     1      -0.244  12.523  18.927  0.00  0.00    +0.000 C 
ATOM      6  C   UNL     1      -1.038  13.168  20.058  0.00  0.00    +0.000 C 
ATOM      7  N   UNL     1      -0.222  14.033  20.923  0.00  0.00    +0.000 N 
ATOM      8  C   UNL     1      -0.782  15.060  21.695  0.00  0.00    +0.000 A 
ATOM      9  N   UNL     1      -0.141  16.046  22.282  0.00  0.00    +0.000 NA
ATOM     10  C   UNL     1      -1.028  16.890  22.922  0.00  0.00    +0.000 A 
ATOM     11  C   UNL     1      -2.355  16.541  22.820  0.00  0.00    +0.000 A 
ATOM     12  S   UNL     1      -2.496  15.118  21.883  0.00  0.00    +0.000 S 
ENDROOT
BRANCH   4  13
ATOM     13  S   UNL     1       0.534  10.414  20.406  0.00  0.00    +0.000 S 
ATOM     14  O   UNL     1       1.152  10.561  21.707  0.00  0.00    +0.000 OA
ATOM     15  O   UNL     1      -0.895  10.209  20.291  0.00  0.00    +0.000 OA
BRANCH  13  16
ATOM     16  C   UNL     1       1.326   9.069  19.550  0.00  0.00    +0.000 A 
ATOM     17  C   UNL     1       1.793   9.252  18.235  0.00  0.00    +0.000 A 
ATOM     18  C   UNL     1       2.521   8.236  17.603  0.00  0.00    +0.000 A 
ATOM     19  C   UNL     1       2.801   7.091  18.321  0.00  0.00    +0.000 A 
ATOM     20  C   UNL     1       2.369   6.917  19.627  0.00  0.00    +0.000 A 
ATOM     21  C   UNL     1       1.613   7.890  20.259  0.00  0.00    +0.000 A 
ATOM     22  C   UNL     1       2.827   5.598  20.122  0.00  0.00    +0.000 C 
ATOM     23  C   UNL     1       3.839   5.263  19.023  0.00  0.00    +0.000 C 
ATOM     24  O   UNL     1       3.528   6.034  17.838  0.00  0.00    +0.000 OA
ENDBRANCH  13  16
ENDBRANCH   4  13
TORSDOF 2
ENDMDL
MODEL 6
REMARK VINA RESULT:      -6.4      3.306      7.515
REMARK  Name = 
REMARK  2 active torsions:
REMARK  status: ('A' for Active; 'I' for Inactive)
REMARK    1  A    between atoms: N_4  and  S_5
REMARK    2  A    between atoms: S_5  and  C_8
REMARK                            x       y       z     vdW  Elec       q    Type
REMARK                         _______ _______ _______ _____ _____    ______ ____
ROOT
ATOM      1  O   UNL     1       4.006   2.443  17.460  0.00  0.00    +0.000 OA
ATOM      2  C   UNL     1       4.587   3.405  17.967  0.00  0.00    +0.000 C 
ATOM      3  C   UNL     1       6.006   3.711  17.468  0.00  0.00    +0.000 C 
ATOM      4  N   UNL     1       6.508   5.094  17.685  0.00  0.00    +0.000 NA
ATOM      5  C   UNL     1       6.256   5.469  19.098  0.00  0.00    +0.000 C 
ATOM      6  C   UNL     1       4.757   5.464  19.377  0.00  0.00    +0.000 C 
ATOM      7  N   UNL     1       4.102   4.195  19.027  0.00  0.00    +0.000 N 
ATOM      8  C   UNL     1       2.890   3.794  19.606  0.00  0.00    +0.000 A 
ATOM      9  N   UNL     1       2.360   2.592  19.577  0.00  0.00    +0.000 NA
ATOM     10  C   UNL     1       1.178   2.564  20.290  0.00  0.00    +0.000 A 
ATOM     11  C   UNL     1       0.806   3.756  20.867  0.00  0.00    +0.000 A 
ATOM     12  S   UNL     1       1.982   4.947  20.513  0.00  0.00    +0.000 S 
ENDROOT
BRANCH   4  13
ATOM     13  S   UNL     1       5.981   6.245  16.536  0.00  0.00    +0.000 S 
ATOM     14  O   UNL     1       4.553   6.419  16.704  0.00  0.00    +0.000 OA
ATOM     15  O   UNL     1       6.874   7.381  16.625  0.00  0.00    +0.000 OA
BRANCH  13  16
ATOM     16  C   UNL     1       6.277   5.468  14.962  0.00  0.00    +0.000 A 
ATOM     17  C   UNL     1       7.572   5.473  14.410  0.00  0.00    +0.000 A 
ATOM     18  C   UNL     1       7.832   4.761  13.232  0.00  0.00    +0.000 A 
ATOM     19  C   UNL     1       6.805   4.029  12.671  0.00  0.00    +0.000 A 
ATOM     20  C   UNL     1       5.535   3.997  13.227  0.00  0.00    +0.000 A 
ATOM     21  C   UNL     1       5.243   4.725  14.369  0.00  0.00    +0.000 A 
ATOM     22  C   UNL     1       4.663   3.128  12.404  0.00  0.00    +0.000 C 
ATOM     23  C   UNL     1       5.734   2.447  11.548  0.00  0.00    +0.000 C 
ATOM     24  O   UNL     1       6.929   3.264  11.540  0.00  0.00    +0.000 OA
ENDBRANCH  13  16
ENDBRANCH   4  13
TORSDOF 2
ENDMDL
MODEL 7
REMARK VINA RESULT:      -6.4      4.861      9.167
REMARK  Name = 
REMARK  2 active torsions:
REMARK  status: ('A' for Active; 'I' for Inactive)
REMARK    1  A    between atoms: N_4  and  S_5
REMARK    2  A    between atoms: S_5  and  C_8
REMARK                            x       y       z     vdW  Elec       q    Type
REMARK                         _______ _______ _______ _____ _____    ______ ____
ROOT
ATOM      1  O   UNL     1       0.854  13.549  21.910  0.00  0.00    +0.000 OA
ATOM      2  C   UNL     1       0.345  12.686  21.192  0.00  0.00    +0.000 C 
ATOM      3  C   UNL     1       1.294  11.814  20.360  0.00  0.00    +0.000 C 
ATOM      4  N   UNL     1       0.767  10.502  19.898  0.00  0.00    +0.000 NA
ATOM      5  C   UNL     1      -0.566  10.721  19.286  0.00  0.00    +0.000 C 
ATOM      6  C   UNL     1      -1.531  11.275  20.328  0.00  0.00    +0.000 C 
ATOM      7  N   UNL     1      -1.036  12.487  20.997  0.00  0.00    +0.000 N 
ATOM      8  C   UNL     1      -1.896  13.407  21.611  0.00  0.00    +0.000 A 
ATOM      9  N   UNL     1      -1.602  14.630  21.994  0.00  0.00    +0.000 NA
ATOM     10  C   UNL     1      -2.714  15.255  22.523  0.00  0.00    +0.000 A 
ATOM     11  C   UNL     1      -3.864  14.499  22.543  0.00  0.00    +0.000 A 
ATOM     12  S   UNL     1      -3.544  12.962  21.866  0.00  0.00    +0.000 S 
ENDROOT
BRANCH   4  13
ATOM     13  S   UNL     1       0.822   9.249  21.060  0.00  0.00    +0.000 S 
ATOM     14  O   UNL     1       1.738   9.653  22.106  0.00  0.00    +0.000 OA
ATOM     15  O   UNL     1      -0.546   8.898  21.378  0.00  0.00    +0.000 OA
BRANCH  13  16
ATOM     16  C   UNL     1       1.528   7.867  20.189  0.00  0.00    +0.000 A 
ATOM     17  C   UNL     1       2.179   8.072  18.958  0.00  0.00    +0.000 A 
ATOM     18  C   UNL     1       2.838   7.007  18.329  0.00  0.00    +0.000 A 
ATOM     19  C   UNL     1       2.868   5.787  18.973  0.00  0.00    +0.000 A 
ATOM     20  C   UNL     1       2.253   5.586  20.200  0.00  0.00    +0.000 A 
ATOM     21  C   UNL     1       1.561   6.613  20.821  0.00  0.00    +0.000 A 
ATOM     22  C   UNL     1       2.462   4.184  20.628  0.00  0.00    +0.000 C 
ATOM     23  C   UNL     1       3.551   3.783  19.629  0.00  0.00    +0.000 C 
ATOM     24  O   UNL     1       3.501   4.672  18.487  0.00  0.00    +0.000 OA
ENDBRANCH  13  16
ENDBRANCH   4  13
TORSDOF 2
ENDMDL
MODEL 8
REMARK VINA RESULT:      -6.3      0.543      1.462
REMARK  Name = 
REMARK  2 active torsions:
REMARK  status: ('A' for Active; 'I' for Inactive)
REMARK    1  A    between atoms: N_4  and  S_5
REMARK    2  A    between atoms: S_5  and  C_8
REMARK                            x       y       z     vdW  Elec       q    Type
REMARK                         _______ _______ _______ _____ _____    ______ ____
ROOT
ATOM      1  O   UNL     1       5.547   7.031  17.326  0.00  0.00    +0.000 OA
ATOM      2  C   UNL     1       5.218   5.919  17.745  0.00  0.00    +0.000 C 
ATOM      3  C   UNL     1       4.689   5.839  19.182  0.00  0.00    +0.000 C 
ATOM      4  N   UNL     1       3.853   4.656  19.524  0.00  0.00    +0.000 NA
ATOM      5  C   UNL     1       4.554   3.436  19.054  0.00  0.00    +0.000 C 
ATOM      6  C   UNL     1       4.712   3.478  17.539  0.00  0.00    +0.000 C 
ATOM      7  N   UNL     1       5.369   4.701  17.054  0.00  0.00    +0.000 N 
ATOM      8  C   UNL     1       6.028   4.757  15.819  0.00  0.00    +0.000 A 
ATOM      9  N   UNL     1       6.861   5.686  15.408  0.00  0.00    +0.000 NA
ATOM     10  C   UNL     1       7.345   5.387  14.150  0.00  0.00    +0.000 A 
ATOM     11  C   UNL     1       6.874   4.217  13.599  0.00  0.00    +0.000 A 
ATOM     12  S   UNL     1       5.800   3.465  14.697  0.00  0.00    +0.000 S 
ENDROOT
BRANCH   4  13
ATOM     13  S   UNL     1       2.214   4.765  19.049  0.00  0.00    +0.000 S 
ATOM     14  O   UNL     1       2.151   4.559  17.617  0.00  0.00    +0.000 OA
ATOM     15  O   UNL     1       1.450   3.925  19.947  0.00  0.00    +0.000 OA
BRANCH  13  16
ATOM     16  C   UNL     1       1.763   6.451  19.400  0.00  0.00    +0.000 A 
ATOM     17  C   UNL     1       1.483   6.842  20.723  0.00  0.00    +0.000 A 
ATOM     18  C   UNL     1       1.244   8.191  21.018  0.00  0.00    +0.000 A 
ATOM     19  C   UNL     1       1.342   9.110  19.994  0.00  0.00    +0.000 A 
ATOM     20  C   UNL     1       1.646   8.735  18.694  0.00  0.00    +0.000 A 
ATOM     21  C   UNL     1       1.846   7.403  18.370  0.00  0.00    +0.000 A 
ATOM     22  C   UNL     1       1.680   9.939  17.833  0.00  0.00    +0.000 C 
ATOM     23  C   UNL     1       1.691  11.017  18.919  0.00  0.00    +0.000 C 
ATOM     24  O   UNL     1       1.164  10.461  20.148  0.00  0.00    +0.000 OA
ENDBRANCH  13  16
ENDBRANCH   4  13
TORSDOF 2
ENDMDL
MODEL 9
REMARK VINA RESULT:      -6.3      4.700      8.789
REMARK  Name = 
REMARK  2 active torsions:
REMARK  status: ('A' for Active; 'I' for Inactive)
REMARK    1  A    between atoms: N_4  and  S_5
REMARK    2  A    between atoms: S_5  and  C_8
REMARK                            x       y       z     vdW  Elec       q    Type
REMARK                         _______ _______ _______ _____ _____    ______ ____
ROOT
ATOM      1  O   UNL     1       2.014  13.129  20.190  0.00  0.00    +0.000 OA
ATOM      2  C   UNL     1       1.069  12.350  20.044  0.00  0.00    +0.000 C 
ATOM      3  C   UNL     1       1.346  11.046  19.285  0.00  0.00    +0.000 C 
ATOM      4  N   UNL     1       0.403   9.920  19.523  0.00  0.00    +0.000 NA
ATOM      5  C   UNL     1      -0.982  10.432  19.386  0.00  0.00    +0.000 C 
ATOM      6  C   UNL     1      -1.249  11.499  20.442  0.00  0.00    +0.000 C 
ATOM      7  N   UNL     1      -0.264  12.590  20.430  0.00  0.00    +0.000 N 
ATOM      8  C   UNL     1      -0.547  13.860  20.950  0.00  0.00    +0.000 A 
ATOM      9  N   UNL     1       0.138  14.965  20.758  0.00  0.00    +0.000 NA
ATOM     10  C   UNL     1      -0.466  16.030  21.396  0.00  0.00    +0.000 A 
ATOM     11  C   UNL     1      -1.622  15.732  22.079  0.00  0.00    +0.000 A 
ATOM     12  S   UNL     1      -1.969  14.067  21.908  0.00  0.00    +0.000 S 
ENDROOT
BRANCH   4  13
ATOM     13  S   UNL     1       0.693   9.019  20.946  0.00  0.00    +0.000 S 
ATOM     14  O   UNL     1       1.546   9.811  21.808  0.00  0.00    +0.000 OA
ATOM     15  O   UNL     1      -0.588   8.540  21.420  0.00  0.00    +0.000 OA
BRANCH  13  16
ATOM     16  C   UNL     1       1.611   7.598  20.391  0.00  0.00    +0.000 A 
ATOM     17  C   UNL     1       1.443   6.358  21.037  0.00  0.00    +0.000 A 
ATOM     18  C   UNL     1       2.072   5.214  20.528  0.00  0.00    +0.000 A 
ATOM     19  C   UNL     1       2.807   5.336  19.366  0.00  0.00    +0.000 A 
ATOM     20  C   UNL     1       2.952   6.549  18.710  0.00  0.00    +0.000 A 
ATOM     21  C   UNL     1       2.373   7.701  19.215  0.00  0.00    +0.000 A 
ATOM     22  C   UNL     1       3.787   6.355  17.502  0.00  0.00    +0.000 C 
ATOM     23  C   UNL     1       3.770   4.826  17.436  0.00  0.00    +0.000 C 
ATOM     24  O   UNL     1       3.447   4.295  18.744  0.00  0.00    +0.000 OA
ENDBRANCH  13  16
ENDBRANCH   4  13
TORSDOF 2
ENDMDL
