MODEL 1
REMARK VINA RESULT:      -6.8      0.000      0.000
REMARK  Name = 
REMARK  10 active torsions:
REMARK  status: ('A' for Active; 'I' for Inactive)
REMARK    1  A    between atoms: C_1  and  C_2
REMARK    2  A    between atoms: C_2  and  O_4
REMARK    3  A    between atoms: O_4  and  C_5
REMARK    4  A    between atoms: C_5  and  C_6
REMARK    5  A    between atoms: C_6  and  C_8
REMARK    6  A    between atoms: C_8  and  O_9
REMARK    7  A    between atoms: C_10  and  C_11
REMARK    8  A    between atoms: C_16  and  O_17
REMARK    9  A    between atoms: C_19  and  C_20
REMARK   10  A    between atoms: C_21  and  C_22
REMARK                            x       y       z     vdW  Elec       q    Type
REMARK                         _______ _______ _______ _____ _____    ______ ____
ROOT
ATOM      1  C   UNL     1       6.975  14.457  23.917  0.00  0.00    +0.000 C 
ATOM      2  C   UNL     1       7.534  15.591  24.804  0.00  0.00    +0.000 C 
ATOM      3  C   UNL     1       8.047  15.272  26.215  0.00  0.00    +0.000 C 
ATOM      4  C   UNL     1       8.748  16.016  23.941  0.00  0.00    +0.000 C 
ATOM      5  C   UNL     1       9.334  14.683  23.372  0.00  0.00    +0.000 C 
ATOM      6  C   UNL     1       9.754  14.781  21.881  0.00  0.00    +0.000 C 
ATOM      7  C   UNL     1      10.224  13.386  21.394  0.00  0.00    +0.000 C 
ATOM      8  C   UNL     1       9.286  12.203  21.802  0.00  0.00    +0.000 C 
ATOM      9  C   UNL     1       7.984  12.683  22.403  0.00  0.00    +0.000 C 
ATOM     10  C   UNL     1       8.225  13.587  23.619  0.00  0.00    +0.000 C 
ATOM     11  C   UNL     1       8.635  12.631  24.778  0.00  0.00    +0.000 C 
ATOM     12  C   UNL     1      10.686  13.362  19.918  0.00  0.00    +0.000 C 
ATOM     13  C   UNL     1      11.678  12.144  19.840  0.00  0.00    +0.000 C 
ATOM     14  C   UNL     1       9.519  13.176  18.958  0.00  0.00    +0.000 C 
ATOM     15  C   UNL     1       9.800  13.023  17.651  0.00  0.00    +0.000 C 
ATOM     16  C   UNL     1      11.122  13.584  17.199  0.00  0.00    +0.000 C 
ATOM     17  O   UNL     1      11.619  13.264  16.133  0.00  0.00    +0.000 OA
ATOM     18  C   UNL     1      11.692  14.650  18.077  0.00  0.00    +0.000 C 
ATOM     19  C   UNL     1      11.373  14.619  19.399  0.00  0.00    +0.000 C 
ATOM     20  C   UNL     1      11.309  15.900  20.175  0.00  0.00    +0.000 C 
ATOM     21  C   UNL     1      10.899  15.789  21.649  0.00  0.00    +0.000 C 
ATOM     22  F   UNL     1      10.498  17.031  22.042  0.00  0.00    +0.000 F 
ENDROOT
BRANCH   1  23
ATOM     23  C   UNL     1       5.670  13.659  24.215  0.00  0.00    +0.000 C 
ATOM     24  O   UNL     1       4.676  13.780  23.503  0.00  0.00    +0.000 OA
BRANCH  23  25
ATOM     25  C   UNL     1       5.629  12.742  25.414  0.00  0.00    +0.000 C 
BRANCH  25  26
ATOM     26  O   UNL     1       5.317  11.391  25.053  0.00  0.00    +0.000 OA
BRANCH  26  28
ATOM     27  C   UNL     1       5.829  10.765  27.258  0.00  0.00    +0.000 C 
ATOM     28  C   UNL     1       4.882  10.642  26.103  0.00  0.00    +0.000 C 
ATOM     29  O   UNL     1       3.847   9.989  26.117  0.00  0.00    +0.000 OA
ENDBRANCH  26  28
ENDBRANCH  25  26
ENDBRANCH  23  25
ENDBRANCH   1  23
BRANCH   1  30
ATOM     30  O   UNL     1       6.611  15.124  22.663  0.00  0.00    +0.000 OA
ATOM     31  H   UNL     1       7.277  14.886  21.990  0.00  0.00    +0.000 HD
ENDBRANCH   1  30
BRANCH   8  32
ATOM     32  O   UNL     1       8.964  11.263  20.780  0.00  0.00    +0.000 OA
ATOM     33  H   UNL     1       9.246  10.377  21.072  0.00  0.00    +0.000 HD
ENDBRANCH   8  32
TORSDOF 6
ENDMDL
MODEL 2
REMARK VINA RESULT:      -6.6      8.756     10.559
REMARK  Name = 
REMARK  10 active torsions:
REMARK  status: ('A' for Active; 'I' for Inactive)
REMARK    1  A    between atoms: C_1  and  C_2
REMARK    2  A    between atoms: C_2  and  O_4
REMARK    3  A    between atoms: O_4  and  C_5
REMARK    4  A    between atoms: C_5  and  C_6
REMARK    5  A    between atoms: C_6  and  C_8
REMARK    6  A    between atoms: C_8  and  O_9
REMARK    7  A    between atoms: C_10  and  C_11
REMARK    8  A    between atoms: C_16  and  O_17
REMARK    9  A    between atoms: C_19  and  C_20
REMARK   10  A    between atoms: C_21  and  C_22
REMARK                            x       y       z     vdW  Elec       q    Type
REMARK                         _______ _______ _______ _____ _____    ______ ____
ROOT
ATOM      1  C   UNL     1      -1.120  14.955  22.315  0.00  0.00    +0.000 C 
ATOM      2  C   UNL     1      -1.702  14.457  23.655  0.00  0.00    +0.000 C 
ATOM      3  C   UNL     1      -3.201  14.625  23.943  0.00  0.00    +0.000 C 
ATOM      4  C   UNL     1      -1.412  12.942  23.514  0.00  0.00    +0.000 C 
ATOM      5  C   UNL     1      -1.687  12.610  22.011  0.00  0.00    +0.000 C 
ATOM      6  C   UNL     1      -0.632  11.657  21.388  0.00  0.00    +0.000 C 
ATOM      7  C   UNL     1      -0.942  11.476  19.879  0.00  0.00    +0.000 C 
ATOM      8  C   UNL     1      -1.256  12.803  19.114  0.00  0.00    +0.000 C 
ATOM      9  C   UNL     1      -0.975  14.029  19.952  0.00  0.00    +0.000 C 
ATOM     10  C   UNL     1      -1.759  14.002  21.270  0.00  0.00    +0.000 C 
ATOM     11  C   UNL     1      -3.228  14.356  20.892  0.00  0.00    +0.000 C 
ATOM     12  C   UNL     1       0.037  10.527  19.150  0.00  0.00    +0.000 C 
ATOM     13  C   UNL     1      -0.784   9.986  17.923  0.00  0.00    +0.000 C 
ATOM     14  C   UNL     1       1.294  11.252  18.685  0.00  0.00    +0.000 C 
ATOM     15  C   UNL     1       2.175  10.564  17.936  0.00  0.00    +0.000 C 
ATOM     16  C   UNL     1       2.128   9.066  18.087  0.00  0.00    +0.000 C 
ATOM     17  O   UNL     1       2.654   8.327  17.273  0.00  0.00    +0.000 OA
ATOM     18  C   UNL     1       1.524   8.576  19.362  0.00  0.00    +0.000 C 
ATOM     19  C   UNL     1       0.583   9.357  19.958  0.00  0.00    +0.000 C 
ATOM     20  C   UNL     1       0.430   9.323  21.450  0.00  0.00    +0.000 C 
ATOM     21  C   UNL     1      -0.619  10.265  22.053  0.00  0.00    +0.000 C 
ATOM     22  F   UNL     1      -0.319  10.396  23.376  0.00  0.00    +0.000 F 
ENDROOT
BRANCH   1  23
ATOM     23  C   UNL     1      -1.039  16.450  21.883  0.00  0.00    +0.000 C 
ATOM     24  O   UNL     1      -2.036  17.168  21.892  0.00  0.00    +0.000 OA
BRANCH  23  25
ATOM     25  C   UNL     1       0.288  17.010  21.427  0.00  0.00    +0.000 C 
BRANCH  25  26
ATOM     26  O   UNL     1       0.148  17.882  20.298  0.00  0.00    +0.000 OA
BRANCH  26  28
ATOM     27  C   UNL     1      -0.830  17.406  18.217  0.00  0.00    +0.000 C 
ATOM     28  C   UNL     1       0.366  17.260  19.108  0.00  0.00    +0.000 C 
ATOM     29  O   UNL     1       1.405  16.693  18.794  0.00  0.00    +0.000 OA
ENDBRANCH  26  28
ENDBRANCH  25  26
ENDBRANCH  23  25
ENDBRANCH   1  23
BRANCH   1  30
ATOM     30  O   UNL     1       0.304  14.611  22.389  0.00  0.00    +0.000 OA
ATOM     31  H   UNL     1       0.794  15.411  22.665  0.00  0.00    +0.000 HD
ENDBRANCH   1  30
BRANCH   8  32
ATOM     32  O   UNL     1      -0.605  12.984  17.860  0.00  0.00    +0.000 OA
ATOM     33  H   UNL     1      -1.274  13.222  17.192  0.00  0.00    +0.000 HD
ENDBRANCH   8  32
TORSDOF 6
ENDMDL
MODEL 3
REMARK VINA RESULT:      -6.5      8.905     12.664
REMARK  Name = 
REMARK  10 active torsions:
REMARK  status: ('A' for Active; 'I' for Inactive)
REMARK    1  A    between atoms: C_1  and  C_2
REMARK    2  A    between atoms: C_2  and  O_4
REMARK    3  A    between atoms: O_4  and  C_5
REMARK    4  A    between atoms: C_5  and  C_6
REMARK    5  A    between atoms: C_6  and  C_8
REMARK    6  A    between atoms: C_8  and  O_9
REMARK    7  A    between atoms: C_10  and  C_11
REMARK    8  A    between atoms: C_16  and  O_17
REMARK    9  A    between atoms: C_19  and  C_20
REMARK   10  A    between atoms: C_21  and  C_22
REMARK                            x       y       z     vdW  Elec       q    Type
REMARK                         _______ _______ _______ _____ _____    ______ ____
ROOT
ATOM      1  C   UNL     1      -0.484  12.343  18.823  0.00  0.00    +0.000 C 
ATOM      2  C   UNL     1      -1.413  11.575  17.859  0.00  0.00    +0.000 C 
ATOM      3  C   UNL     1      -1.318  10.045  17.766  0.00  0.00    +0.000 C 
ATOM      4  C   UNL     1      -2.784  11.928  18.488  0.00  0.00    +0.000 C 
ATOM      5  C   UNL     1      -2.546  11.900  20.033  0.00  0.00    +0.000 C 
ATOM      6  C   UNL     1      -3.241  13.066  20.785  0.00  0.00    +0.000 C 
ATOM      7  C   UNL     1      -2.860  12.999  22.287  0.00  0.00    +0.000 C 
ATOM      8  C   UNL     1      -1.338  12.769  22.563  0.00  0.00    +0.000 C 
ATOM      9  C   UNL     1      -0.503  12.879  21.307  0.00  0.00    +0.000 C 
ATOM     10  C   UNL     1      -0.979  11.901  20.226  0.00  0.00    +0.000 C 
ATOM     11  C   UNL     1      -0.473  10.499  20.675  0.00  0.00    +0.000 C 
ATOM     12  C   UNL     1      -3.510  14.108  23.146  0.00  0.00    +0.000 C 
ATOM     13  C   UNL     1      -3.551  13.503  24.598  0.00  0.00    +0.000 C 
ATOM     14  C   UNL     1      -2.703  15.399  23.119  0.00  0.00    +0.000 C 
ATOM     15  C   UNL     1      -3.099  16.405  23.918  0.00  0.00    +0.000 C 
ATOM     16  C   UNL     1      -4.550  16.381  24.325  0.00  0.00    +0.000 C 
ATOM     17  O   UNL     1      -4.962  17.048  25.257  0.00  0.00    +0.000 OA
ATOM     18  C   UNL     1      -5.448  15.601  23.421  0.00  0.00    +0.000 C 
ATOM     19  C   UNL     1      -4.907  14.557  22.738  0.00  0.00    +0.000 C 
ATOM     20  C   UNL     1      -5.471  14.176  21.401  0.00  0.00    +0.000 C 
ATOM     21  C   UNL     1      -4.779  13.017  20.671  0.00  0.00    +0.000 C 
ATOM     22  F   UNL     1      -5.140  13.105  19.360  0.00  0.00    +0.000 F 
ENDROOT
BRANCH   1  23
ATOM     23  C   UNL     1       1.064  12.445  18.671  0.00  0.00    +0.000 C 
ATOM     24  O   UNL     1       1.761  11.437  18.590  0.00  0.00    +0.000 OA
BRANCH  23  25
ATOM     25  C   UNL     1       1.709  13.811  18.646  0.00  0.00    +0.000 C 
BRANCH  25  26
ATOM     26  O   UNL     1       2.967  13.828  19.332  0.00  0.00    +0.000 OA
BRANCH  26  28
ATOM     27  C   UNL     1       2.141  15.529  20.725  0.00  0.00    +0.000 C 
ATOM     28  C   UNL     1       2.864  14.220  20.632  0.00  0.00    +0.000 C 
ATOM     29  O   UNL     1       3.271  13.578  21.591  0.00  0.00    +0.000 OA
ENDBRANCH  26  28
ENDBRANCH  25  26
ENDBRANCH  23  25
ENDBRANCH   1  23
BRANCH   1  30
ATOM     30  O   UNL     1      -0.871  13.748  18.657  0.00  0.00    +0.000 OA
ATOM     31  H   UNL     1      -1.827  13.822  18.845  0.00  0.00    +0.000 HD
ENDBRANCH   1  30
BRANCH   8  32
ATOM     32  O   UNL     1      -0.737  13.600  23.551  0.00  0.00    +0.000 OA
ATOM     33  H   UNL     1       0.196  13.337  23.655  0.00  0.00    +0.000 HD
ENDBRANCH   8  32
TORSDOF 6
ENDMDL
MODEL 4
REMARK VINA RESULT:      -6.5     11.157     13.487
REMARK  Name = 
REMARK  10 active torsions:
REMARK  status: ('A' for Active; 'I' for Inactive)
REMARK    1  A    between atoms: C_1  and  C_2
REMARK    2  A    between atoms: C_2  and  O_4
REMARK    3  A    between atoms: O_4  and  C_5
REMARK    4  A    between atoms: C_5  and  C_6
REMARK    5  A    between atoms: C_6  and  C_8
REMARK    6  A    between atoms: C_8  and  O_9
REMARK    7  A    between atoms: C_10  and  C_11
REMARK    8  A    between atoms: C_16  and  O_17
REMARK    9  A    between atoms: C_19  and  C_20
REMARK   10  A    between atoms: C_21  and  C_22
REMARK                            x       y       z     vdW  Elec       q    Type
REMARK                         _______ _______ _______ _____ _____    ______ ____
ROOT
ATOM      1  C   UNL     1      -6.533  12.372  20.712  0.00  0.00    +0.000 C 
ATOM      2  C   UNL     1      -7.390  12.496  19.434  0.00  0.00    +0.000 C 
ATOM      3  C   UNL     1      -7.916  13.871  18.999  0.00  0.00    +0.000 C 
ATOM      4  C   UNL     1      -6.352  12.031  18.383  0.00  0.00    +0.000 C 
ATOM      5  C   UNL     1      -4.991  12.642  18.852  0.00  0.00    +0.000 C 
ATOM      6  C   UNL     1      -3.796  11.661  18.718  0.00  0.00    +0.000 C 
ATOM      7  C   UNL     1      -2.524  12.331  19.300  0.00  0.00    +0.000 C 
ATOM      8  C   UNL     1      -2.730  13.031  20.683  0.00  0.00    +0.000 C 
ATOM      9  C   UNL     1      -4.083  12.724  21.286  0.00  0.00    +0.000 C 
ATOM     10  C   UNL     1      -5.224  13.117  20.339  0.00  0.00    +0.000 C 
ATOM     11  C   UNL     1      -5.321  14.669  20.420  0.00  0.00    +0.000 C 
ATOM     12  C   UNL     1      -1.256  11.449  19.207  0.00  0.00    +0.000 C 
ATOM     13  C   UNL     1      -0.066  12.477  19.210  0.00  0.00    +0.000 C 
ATOM     14  C   UNL     1      -1.144  10.485  20.380  0.00  0.00    +0.000 C 
ATOM     15  C   UNL     1      -0.027   9.742  20.479  0.00  0.00    +0.000 C 
ATOM     16  C   UNL     1       0.724   9.522  19.192  0.00  0.00    +0.000 C 
ATOM     17  O   UNL     1       1.877   9.127  19.186  0.00  0.00    +0.000 OA
ATOM     18  C   UNL     1      -0.088   9.686  17.948  0.00  0.00    +0.000 C 
ATOM     19  C   UNL     1      -1.146  10.539  17.991  0.00  0.00    +0.000 C 
ATOM     20  C   UNL     1      -2.339  10.283  17.118  0.00  0.00    +0.000 C 
ATOM     21  C   UNL     1      -3.511  11.263  17.255  0.00  0.00    +0.000 C 
ATOM     22  F   UNL     1      -4.606  10.645  16.731  0.00  0.00    +0.000 F 
ENDROOT
BRANCH   1  23
ATOM     23  C   UNL     1      -7.053  12.634  22.158  0.00  0.00    +0.000 C 
ATOM     24  O   UNL     1      -7.276  11.704  22.930  0.00  0.00    +0.000 OA
BRANCH  23  25
ATOM     25  C   UNL     1      -7.305  14.056  22.600  0.00  0.00    +0.000 C 
BRANCH  25  26
ATOM     26  O   UNL     1      -6.679  14.353  23.854  0.00  0.00    +0.000 OA
BRANCH  26  28
ATOM     27  C   UNL     1      -6.748  16.669  23.477  0.00  0.00    +0.000 C 
ATOM     28  C   UNL     1      -5.910  15.475  23.817  0.00  0.00    +0.000 C 
ATOM     29  O   UNL     1      -4.711  15.512  24.063  0.00  0.00    +0.000 OA
ENDBRANCH  26  28
ENDBRANCH  25  26
ENDBRANCH  23  25
ENDBRANCH   1  23
BRANCH   1  30
ATOM     30  O   UNL     1      -6.204  10.945  20.791  0.00  0.00    +0.000 OA
ATOM     31  H   UNL     1      -6.730  10.476  20.114  0.00  0.00    +0.000 HD
ENDBRANCH   1  30
BRANCH   8  32
ATOM     32  O   UNL     1      -1.748  12.772  21.681  0.00  0.00    +0.000 OA
ATOM     33  H   UNL     1      -2.147  12.214  22.374  0.00  0.00    +0.000 HD
ENDBRANCH   8  32
TORSDOF 6
ENDMDL
MODEL 5
REMARK VINA RESULT:      -6.4      9.074     12.866
REMARK  Name = 
REMARK  10 active torsions:
REMARK  status: ('A' for Active; 'I' for Inactive)
REMARK    1  A    between atoms: C_1  and  C_2
REMARK    2  A    between atoms: C_2  and  O_4
REMARK    3  A    between atoms: O_4  and  C_5
REMARK    4  A    between atoms: C_5  and  C_6
REMARK    5  A    between atoms: C_6  and  C_8
REMARK    6  A    between atoms: C_8  and  O_9
REMARK    7  A    between atoms: C_10  and  C_11
REMARK    8  A    between atoms: C_16  and  O_17
REMARK    9  A    between atoms: C_19  and  C_20
REMARK   10  A    between atoms: C_21  and  C_22
REMARK                            x       y       z     vdW  Elec       q    Type
REMARK                         _______ _______ _______ _____ _____    ______ ____
ROOT
ATOM      1  C   UNL     1      -0.503  12.327  18.799  0.00  0.00    +0.000 C 
ATOM      2  C   UNL     1      -1.434  11.576  17.823  0.00  0.00    +0.000 C 
ATOM      3  C   UNL     1      -1.353  10.047  17.717  0.00  0.00    +0.000 C 
ATOM      4  C   UNL     1      -2.805  11.937  18.449  0.00  0.00    +0.000 C 
ATOM      5  C   UNL     1      -2.575  11.893  19.995  0.00  0.00    +0.000 C 
ATOM      6  C   UNL     1      -3.263  13.059  20.754  0.00  0.00    +0.000 C 
ATOM      7  C   UNL     1      -2.889  12.974  22.257  0.00  0.00    +0.000 C 
ATOM      8  C   UNL     1      -1.371  12.727  22.538  0.00  0.00    +0.000 C 
ATOM      9  C   UNL     1      -0.529  12.841  21.288  0.00  0.00    +0.000 C 
ATOM     10  C   UNL     1      -1.009  11.878  20.195  0.00  0.00    +0.000 C 
ATOM     11  C   UNL     1      -0.517  10.467  20.634  0.00  0.00    +0.000 C 
ATOM     12  C   UNL     1      -3.533  14.081  23.123  0.00  0.00    +0.000 C 
ATOM     13  C   UNL     1      -3.587  13.464  24.569  0.00  0.00    +0.000 C 
ATOM     14  C   UNL     1      -2.714  15.365  23.111  0.00  0.00    +0.000 C 
ATOM     15  C   UNL     1      -3.105  16.368  23.917  0.00  0.00    +0.000 C 
ATOM     16  C   UNL     1      -4.557  16.353  24.317  0.00  0.00    +0.000 C 
ATOM     17  O   UNL     1      -4.968  17.016  25.253  0.00  0.00    +0.000 OA
ATOM     18  C   UNL     1      -5.458  15.590  23.402  0.00  0.00    +0.000 C 
ATOM     19  C   UNL     1      -4.924  14.547  22.712  0.00  0.00    +0.000 C 
ATOM     20  C   UNL     1      -5.485  14.183  21.369  0.00  0.00    +0.000 C 
ATOM     21  C   UNL     1      -4.800  13.025  20.632  0.00  0.00    +0.000 C 
ATOM     22  F   UNL     1      -5.154  13.128  19.320  0.00  0.00    +0.000 F 
ENDROOT
BRANCH   1  23
ATOM     23  C   UNL     1       1.046  12.416  18.655  0.00  0.00    +0.000 C 
ATOM     24  O   UNL     1       1.756  11.426  18.814  0.00  0.00    +0.000 OA
BRANCH  23  25
ATOM     25  C   UNL     1       1.677  13.751  18.336  0.00  0.00    +0.000 C 
BRANCH  25  26
ATOM     26  O   UNL     1       1.823  14.573  19.501  0.00  0.00    +0.000 OA
BRANCH  26  28
ATOM     27  C   UNL     1       2.948  16.617  19.232  0.00  0.00    +0.000 C 
ATOM     28  C   UNL     1       1.633  15.898  19.250  0.00  0.00    +0.000 C 
ATOM     29  O   UNL     1       0.549  16.421  19.033  0.00  0.00    +0.000 OA
ENDBRANCH  26  28
ENDBRANCH  25  26
ENDBRANCH  23  25
ENDBRANCH   1  23
BRANCH   1  30
ATOM     30  O   UNL     1      -0.876  13.737  18.644  0.00  0.00    +0.000 OA
ATOM     31  H   UNL     1      -0.537  14.226  19.418  0.00  0.00    +0.000 HD
ENDBRANCH   1  30
BRANCH   8  32
ATOM     32  O   UNL     1      -0.767  13.544  23.536  0.00  0.00    +0.000 OA
ATOM     33  H   UNL     1      -0.293  12.970  24.166  0.00  0.00    +0.000 HD
ENDBRANCH   8  32
TORSDOF 6
ENDMDL
MODEL 6
REMARK VINA RESULT:      -6.4      9.057     12.889
REMARK  Name = 
REMARK  10 active torsions:
REMARK  status: ('A' for Active; 'I' for Inactive)
REMARK    1  A    between atoms: C_1  and  C_2
REMARK    2  A    between atoms: C_2  and  O_4
REMARK    3  A    between atoms: O_4  and  C_5
REMARK    4  A    between atoms: C_5  and  C_6
REMARK    5  A    between atoms: C_6  and  C_8
REMARK    6  A    between atoms: C_8  and  O_9
REMARK    7  A    between atoms: C_10  and  C_11
REMARK    8  A    between atoms: C_16  and  O_17
REMARK    9  A    between atoms: C_19  and  C_20
REMARK   10  A    between atoms: C_21  and  C_22
REMARK                            x       y       z     vdW  Elec       q    Type
REMARK                         _______ _______ _______ _____ _____    ______ ____
ROOT
ATOM      1  C   UNL     1      -0.516  12.363  18.840  0.00  0.00    +0.000 C 
ATOM      2  C   UNL     1      -1.446  11.599  17.874  0.00  0.00    +0.000 C 
ATOM      3  C   UNL     1      -1.355  10.070  17.779  0.00  0.00    +0.000 C 
ATOM      4  C   UNL     1      -2.817  11.955  18.502  0.00  0.00    +0.000 C 
ATOM      5  C   UNL     1      -2.580  11.924  20.048  0.00  0.00    +0.000 C 
ATOM      6  C   UNL     1      -3.273  13.090  20.801  0.00  0.00    +0.000 C 
ATOM      7  C   UNL     1      -2.892  13.020  22.303  0.00  0.00    +0.000 C 
ATOM      8  C   UNL     1      -1.371  12.785  22.580  0.00  0.00    +0.000 C 
ATOM      9  C   UNL     1      -0.535  12.896  21.325  0.00  0.00    +0.000 C 
ATOM     10  C   UNL     1      -1.013  11.921  20.242  0.00  0.00    +0.000 C 
ATOM     11  C   UNL     1      -0.510  10.517  20.689  0.00  0.00    +0.000 C 
ATOM     12  C   UNL     1      -3.540  14.129  23.164  0.00  0.00    +0.000 C 
ATOM     13  C   UNL     1      -3.584  13.521  24.615  0.00  0.00    +0.000 C 
ATOM     14  C   UNL     1      -2.730  15.418  23.139  0.00  0.00    +0.000 C 
ATOM     15  C   UNL     1      -3.125  16.424  23.940  0.00  0.00    +0.000 C 
ATOM     16  C   UNL     1      -4.575  16.402  24.345  0.00  0.00    +0.000 C 
ATOM     17  O   UNL     1      -4.986  17.069  25.279  0.00  0.00    +0.000 OA
ATOM     18  C   UNL     1      -5.475  15.626  23.440  0.00  0.00    +0.000 C 
ATOM     19  C   UNL     1      -4.936  14.581  22.755  0.00  0.00    +0.000 C 
ATOM     20  C   UNL     1      -5.500  14.204  21.418  0.00  0.00    +0.000 C 
ATOM     21  C   UNL     1      -4.811  13.045  20.686  0.00  0.00    +0.000 C 
ATOM     22  F   UNL     1      -5.171  13.136  19.375  0.00  0.00    +0.000 F 
ENDROOT
BRANCH   1  23
ATOM     23  C   UNL     1       1.032  12.462  18.689  0.00  0.00    +0.000 C 
ATOM     24  O   UNL     1       1.734  11.454  18.675  0.00  0.00    +0.000 OA
BRANCH  23  25
ATOM     25  C   UNL     1       1.672  13.826  18.582  0.00  0.00    +0.000 C 
BRANCH  25  26
ATOM     26  O   UNL     1       3.073  13.746  18.292  0.00  0.00    +0.000 OA
BRANCH  26  28
ATOM     27  C   UNL     1       2.616  16.044  18.132  0.00  0.00    +0.000 C 
ATOM     28  C   UNL     1       3.623  14.947  17.963  0.00  0.00    +0.000 C 
ATOM     29  O   UNL     1       4.784  15.114  17.614  0.00  0.00    +0.000 OA
ENDBRANCH  26  28
ENDBRANCH  25  26
ENDBRANCH  23  25
ENDBRANCH   1  23
BRANCH   1  30
ATOM     30  O   UNL     1      -0.900  13.770  18.676  0.00  0.00    +0.000 OA
ATOM     31  H   UNL     1      -0.928  13.965  17.719  0.00  0.00    +0.000 HD
ENDBRANCH   1  30
BRANCH   8  32
ATOM     32  O   UNL     1      -0.769  13.614  23.570  0.00  0.00    +0.000 OA
ATOM     33  H   UNL     1      -1.461  14.161  23.983  0.00  0.00    +0.000 HD
ENDBRANCH   8  32
TORSDOF 6
ENDMDL
MODEL 7
REMARK VINA RESULT:      -6.4      9.742     12.102
REMARK  Name = 
REMARK  10 active torsions:
REMARK  status: ('A' for Active; 'I' for Inactive)
REMARK    1  A    between atoms: C_1  and  C_2
REMARK    2  A    between atoms: C_2  and  O_4
REMARK    3  A    between atoms: O_4  and  C_5
REMARK    4  A    between atoms: C_5  and  C_6
REMARK    5  A    between atoms: C_6  and  C_8
REMARK    6  A    between atoms: C_8  and  O_9
REMARK    7  A    between atoms: C_10  and  C_11
REMARK    8  A    between atoms: C_16  and  O_17
REMARK    9  A    between atoms: C_19  and  C_20
REMARK   10  A    between atoms: C_21  and  C_22
REMARK                            x       y       z     vdW  Elec       q    Type
REMARK                         _______ _______ _______ _____ _____    ______ ____
ROOT
ATOM      1  C   UNL     1      -4.854  13.693  22.370  0.00  0.00    +0.000 C 
ATOM      2  C   UNL     1      -6.182  13.637  21.585  0.00  0.00    +0.000 C 
ATOM      3  C   UNL     1      -6.827  14.938  21.086  0.00  0.00    +0.000 C 
ATOM      4  C   UNL     1      -5.714  12.833  20.346  0.00  0.00    +0.000 C 
ATOM      5  C   UNL     1      -4.278  13.365  20.031  0.00  0.00    +0.000 C 
ATOM      6  C   UNL     1      -3.274  12.242  19.655  0.00  0.00    +0.000 C 
ATOM      7  C   UNL     1      -1.867  12.865  19.461  0.00  0.00    +0.000 C 
ATOM      8  C   UNL     1      -1.439  13.870  20.580  0.00  0.00    +0.000 C 
ATOM      9  C   UNL     1      -2.395  13.866  21.752  0.00  0.00    +0.000 C 
ATOM     10  C   UNL     1      -3.830  14.176  21.309  0.00  0.00    +0.000 C 
ATOM     11  C   UNL     1      -3.862  15.709  21.035  0.00  0.00    +0.000 C 
ATOM     12  C   UNL     1      -0.779  11.840  19.065  0.00  0.00    +0.000 C 
ATOM     13  C   UNL     1       0.306  12.694  18.311  0.00  0.00    +0.000 C 
ATOM     14  C   UNL     1      -0.177  11.148  20.280  0.00  0.00    +0.000 C 
ATOM     15  C   UNL     1       0.861  10.316  20.080  0.00  0.00    +0.000 C 
ATOM     16  C   UNL     1       0.970   9.733  18.696  0.00  0.00    +0.000 C 
ATOM     17  O   UNL     1       1.999   9.211  18.303  0.00  0.00    +0.000 OA
ATOM     18  C   UNL     1      -0.302   9.718  17.913  0.00  0.00    +0.000 C 
ATOM     19  C   UNL     1      -1.224  10.680  18.183  0.00  0.00    +0.000 C 
ATOM     20  C   UNL     1      -2.681  10.385  17.988  0.00  0.00    +0.000 C 
ATOM     21  C   UNL     1      -3.663  11.505  18.357  0.00  0.00    +0.000 C 
ATOM     22  F   UNL     1      -4.885  10.922  18.514  0.00  0.00    +0.000 F 
ENDROOT
BRANCH   1  23
ATOM     23  C   UNL     1      -4.686  14.324  23.785  0.00  0.00    +0.000 C 
ATOM     24  O   UNL     1      -5.399  15.254  24.154  0.00  0.00    +0.000 OA
BRANCH  23  25
ATOM     25  C   UNL     1      -3.610  13.790  24.702  0.00  0.00    +0.000 C 
BRANCH  25  26
ATOM     26  O   UNL     1      -3.067  14.809  25.550  0.00  0.00    +0.000 OA
BRANCH  26  28
ATOM     27  C   UNL     1      -2.255  16.889  24.824  0.00  0.00    +0.000 C 
ATOM     28  C   UNL     1      -1.979  15.429  25.016  0.00  0.00    +0.000 C 
ATOM     29  O   UNL     1      -0.915  14.880  24.762  0.00  0.00    +0.000 OA
ENDBRANCH  26  28
ENDBRANCH  25  26
ENDBRANCH  23  25
ENDBRANCH   1  23
BRANCH   1  30
ATOM     30  O   UNL     1      -4.542  12.289  22.655  0.00  0.00    +0.000 OA
ATOM     31  H   UNL     1      -3.571  12.181  22.614  0.00  0.00    +0.000 HD
ENDBRANCH   1  30
BRANCH   8  32
ATOM     32  O   UNL     1      -0.122  13.719  21.102  0.00  0.00    +0.000 OA
ATOM     33  H   UNL     1      -0.043  14.257  21.911  0.00  0.00    +0.000 HD
ENDBRANCH   8  32
TORSDOF 6
ENDMDL
MODEL 8
REMARK VINA RESULT:      -6.4     10.825     13.492
REMARK  Name = 
REMARK  10 active torsions:
REMARK  status: ('A' for Active; 'I' for Inactive)
REMARK    1  A    between atoms: C_1  and  C_2
REMARK    2  A    between atoms: C_2  and  O_4
REMARK    3  A    between atoms: O_4  and  C_5
REMARK    4  A    between atoms: C_5  and  C_6
REMARK    5  A    between atoms: C_6  and  C_8
REMARK    6  A    between atoms: C_8  and  O_9
REMARK    7  A    between atoms: C_10  and  C_11
REMARK    8  A    between atoms: C_16  and  O_17
REMARK    9  A    between atoms: C_19  and  C_20
REMARK   10  A    between atoms: C_21  and  C_22
REMARK                            x       y       z     vdW  Elec       q    Type
REMARK                         _______ _______ _______ _____ _____    ______ ____
ROOT
ATOM      1  C   UNL     1      -6.789  13.812  20.760  0.00  0.00    +0.000 C 
ATOM      2  C   UNL     1      -7.336  13.612  19.330  0.00  0.00    +0.000 C 
ATOM      3  C   UNL     1      -7.614  14.835  18.444  0.00  0.00    +0.000 C 
ATOM      4  C   UNL     1      -6.149  12.835  18.708  0.00  0.00    +0.000 C 
ATOM      5  C   UNL     1      -4.865  13.497  19.306  0.00  0.00    +0.000 C 
ATOM      6  C   UNL     1      -3.775  12.471  19.715  0.00  0.00    +0.000 C 
ATOM      7  C   UNL     1      -2.595  13.224  20.384  0.00  0.00    +0.000 C 
ATOM      8  C   UNL     1      -3.021  14.286  21.450  0.00  0.00    +0.000 C 
ATOM      9  C   UNL     1      -4.495  14.211  21.779  0.00  0.00    +0.000 C 
ATOM     10  C   UNL     1      -5.361  14.372  20.523  0.00  0.00    +0.000 C 
ATOM     11  C   UNL     1      -5.316  15.889  20.174  0.00  0.00    +0.000 C 
ATOM     12  C   UNL     1      -1.433  12.302  20.821  0.00  0.00    +0.000 C 
ATOM     13  C   UNL     1      -0.173  13.243  20.835  0.00  0.00    +0.000 C 
ATOM     14  C   UNL     1      -1.673  11.694  22.196  0.00  0.00    +0.000 C 
ATOM     15  C   UNL     1      -0.684  10.964  22.742  0.00  0.00    +0.000 C 
ATOM     16  C   UNL     1       0.298  10.368  21.768  0.00  0.00    +0.000 C 
ATOM     17  O   UNL     1       1.379   9.942  22.134  0.00  0.00    +0.000 OA
ATOM     18  C   UNL     1      -0.208  10.215  20.371  0.00  0.00    +0.000 C 
ATOM     19  C   UNL     1      -1.158  11.088  19.942  0.00  0.00    +0.000 C 
ATOM     20  C   UNL     1      -2.157  10.649  18.913  0.00  0.00    +0.000 C 
ATOM     21  C   UNL     1      -3.225  11.675  18.513  0.00  0.00    +0.000 C 
ATOM     22  F   UNL     1      -4.240  10.980  17.926  0.00  0.00    +0.000 F 
ENDROOT
BRANCH   1  23
ATOM     23  C   UNL     1      -7.577  14.482  21.926  0.00  0.00    +0.000 C 
ATOM     24  O   UNL     1      -7.906  15.664  21.872  0.00  0.00    +0.000 OA
BRANCH  23  25
ATOM     25  C   UNL     1      -7.916  13.661  23.147  0.00  0.00    +0.000 C 
BRANCH  25  26
ATOM     26  O   UNL     1      -6.831  13.604  24.081  0.00  0.00    +0.000 OA
BRANCH  26  28
ATOM     27  C   UNL     1      -4.973  12.366  24.809  0.00  0.00    +0.000 C 
ATOM     28  C   UNL     1      -6.386  12.338  24.310  0.00  0.00    +0.000 C 
ATOM     29  O   UNL     1      -7.055  11.324  24.166  0.00  0.00    +0.000 OA
ENDBRANCH  26  28
ENDBRANCH  25  26
ENDBRANCH  23  25
ENDBRANCH   1  23
BRANCH   1  30
ATOM     30  O   UNL     1      -6.631  12.450  21.281  0.00  0.00    +0.000 OA
ATOM     31  H   UNL     1      -7.020  12.422  22.176  0.00  0.00    +0.000 HD
ENDBRANCH   1  30
BRANCH   8  32
ATOM     32  O   UNL     1      -2.307  14.273  22.682  0.00  0.00    +0.000 OA
ATOM     33  H   UNL     1      -2.313  13.366  23.037  0.00  0.00    +0.000 HD
ENDBRANCH   8  32
TORSDOF 6
ENDMDL
MODEL 9
REMARK VINA RESULT:      -6.3      3.348      6.777
REMARK  Name = 
REMARK  10 active torsions:
REMARK  status: ('A' for Active; 'I' for Inactive)
REMARK    1  A    between atoms: C_1  and  C_2
REMARK    2  A    between atoms: C_2  and  O_4
REMARK    3  A    between atoms: O_4  and  C_5
REMARK    4  A    between atoms: C_5  and  C_6
REMARK    5  A    between atoms: C_6  and  C_8
REMARK    6  A    between atoms: C_8  and  O_9
REMARK    7  A    between atoms: C_10  and  C_11
REMARK    8  A    between atoms: C_16  and  O_17
REMARK    9  A    between atoms: C_19  and  C_20
REMARK   10  A    between atoms: C_21  and  C_22
REMARK                            x       y       z     vdW  Elec       q    Type
REMARK                         _______ _______ _______ _____ _____    ______ ____
ROOT
ATOM      1  C   UNL     1       9.783  11.924  19.351  0.00  0.00    +0.000 C 
ATOM      2  C   UNL     1      10.962  12.025  20.342  0.00  0.00    +0.000 C 
ATOM      3  C   UNL     1      12.333  12.508  19.847  0.00  0.00    +0.000 C 
ATOM      4  C   UNL     1      10.399  13.101  21.303  0.00  0.00    +0.000 C 
ATOM      5  C   UNL     1       9.651  14.121  20.383  0.00  0.00    +0.000 C 
ATOM      6  C   UNL     1       8.294  14.597  20.967  0.00  0.00    +0.000 C 
ATOM      7  C   UNL     1       7.596  15.522  19.935  0.00  0.00    +0.000 C 
ATOM      8  C   UNL     1       7.600  14.982  18.468  0.00  0.00    +0.000 C 
ATOM      9  C   UNL     1       8.091  13.555  18.382  0.00  0.00    +0.000 C 
ATOM     10  C   UNL     1       9.493  13.404  18.986  0.00  0.00    +0.000 C 
ATOM     11  C   UNL     1      10.470  14.010  17.935  0.00  0.00    +0.000 C 
ATOM     12  C   UNL     1       6.234  16.075  20.414  0.00  0.00    +0.000 C 
ATOM     13  C   UNL     1       6.045  17.407  19.599  0.00  0.00    +0.000 C 
ATOM     14  C   UNL     1       5.094  15.103  20.139  0.00  0.00    +0.000 C 
ATOM     15  C   UNL     1       3.841  15.513  20.404  0.00  0.00    +0.000 C 
ATOM     16  C   UNL     1       3.718  16.618  21.421  0.00  0.00    +0.000 C 
ATOM     17  O   UNL     1       2.694  17.269  21.535  0.00  0.00    +0.000 OA
ATOM     18  C   UNL     1       4.877  16.752  22.354  0.00  0.00    +0.000 C 
ATOM     19  C   UNL     1       6.100  16.363  21.904  0.00  0.00    +0.000 C 
ATOM     20  C   UNL     1       7.113  15.837  22.877  0.00  0.00    +0.000 C 
ATOM     21  C   UNL     1       8.453  15.376  22.289  0.00  0.00    +0.000 C 
ATOM     22  F   UNL     1       9.038  14.572  23.222  0.00  0.00    +0.000 F 
ENDROOT
BRANCH   1  23
ATOM     23  C   UNL     1       9.709  10.923  18.159  0.00  0.00    +0.000 C 
ATOM     24  O   UNL     1      10.624  10.838  17.343  0.00  0.00    +0.000 OA
BRANCH  23  25
ATOM     25  C   UNL     1       8.477  10.063  18.000  0.00  0.00    +0.000 C 
BRANCH  25  26
ATOM     26  O   UNL     1       8.623   8.785  18.630  0.00  0.00    +0.000 OA
BRANCH  26  28
ATOM     27  C   UNL     1       8.003   6.525  18.790  0.00  0.00    +0.000 C 
ATOM     28  C   UNL     1       7.954   7.789  17.986  0.00  0.00    +0.000 C 
ATOM     29  O   UNL     1       7.364   7.917  16.922  0.00  0.00    +0.000 OA
ENDBRANCH  26  28
ENDBRANCH  25  26
ENDBRANCH  23  25
ENDBRANCH   1  23
BRANCH   1  30
ATOM     30  O   UNL     1       8.659  11.460  20.171  0.00  0.00    +0.000 OA
ATOM     31  H   UNL     1       8.003  12.182  20.221  0.00  0.00    +0.000 HD
ENDBRANCH   1  30
BRANCH   8  32
ATOM     32  O   UNL     1       6.367  15.053  17.759  0.00  0.00    +0.000 OA
ATOM     33  H   UNL     1       5.657  15.273  18.390  0.00  0.00    +0.000 HD
ENDBRANCH   8  32
TORSDOF 6
ENDMDL
