MODEL 1
REMARK VINA RESULT:      -8.6      0.000      0.000
REMARK  Name = 
REMARK  9 active torsions:
REMARK  status: ('A' for Active; 'I' for Inactive)
REMARK    1  A    between atoms: C_1  and  C_2
REMARK    2  A    between atoms: C_5  and  O_6
REMARK    3  A    between atoms: C_7  and  C_8
REMARK    4  A    between atoms: C_7  and  C_9
REMARK    5  A    between atoms: C_14  and  C_15
REMARK    6  A    between atoms: C_15  and  O_17
REMARK    7  A    between atoms: C_19  and  C_20
REMARK    8  A    between atoms: C_21  and  C_22
REMARK    9  A    between atoms: C_22  and  O_24
REMARK                            x       y       z     vdW  Elec       q    Type
REMARK                         _______ _______ _______ _____ _____    ______ ____
ROOT
ATOM      1  C   UNL     1       4.833   2.261  20.439  0.00  0.00    +0.000 C 
ATOM      2  C   UNL     1       3.692   3.234  20.111  0.00  0.00    +0.000 C 
ATOM      3  C   UNL     1       2.341   2.491  20.106  0.00  0.00    +0.000 C 
ATOM      4  C   UNL     1       1.146   3.421  19.884  0.00  0.00    +0.000 C 
ATOM      5  C   UNL     1       1.306   4.341  18.669  0.00  0.00    +0.000 C 
ATOM      6  C   UNL     1       2.675   5.087  18.646  0.00  0.00    +0.000 C 
ATOM      7  C   UNL     1       2.676   6.114  19.818  0.00  0.00    +0.000 C 
ATOM      8  C   UNL     1       2.778   5.949  17.364  0.00  0.00    +0.000 C 
ATOM      9  C   UNL     1       3.883   4.049  18.785  0.00  0.00    +0.000 C 
ATOM     10  C   UNL     1       4.029   3.077  17.582  0.00  0.00    +0.000 C 
ATOM     11  C   UNL     1       5.067   3.776  16.806  0.00  0.00    +0.000 A 
ATOM     12  C   UNL     1       5.361   3.576  15.473  0.00  0.00    +0.000 A 
ATOM     13  C   UNL     1       6.318   4.392  14.872  0.00  0.00    +0.000 A 
ATOM     14  C   UNL     1       6.989   5.358  15.659  0.00  0.00    +0.000 A 
ATOM     15  C   UNL     1       6.705   5.529  17.045  0.00  0.00    +0.000 A 
ATOM     16  C   UNL     1       5.702   4.727  17.586  0.00  0.00    +0.000 A 
ATOM     17  O   UNL     1       5.157   4.799  18.855  0.00  0.00    +0.000 OA
ENDROOT
BRANCH   5  18
ATOM     18  O   UNL     1       1.080   3.605  17.468  0.00  0.00    +0.000 OA
ATOM     19  H   UNL     1       1.771   3.816  16.818  0.00  0.00    +0.000 HD
ENDBRANCH   5  18
BRANCH  13  20
ATOM     20  C   UNL     1       6.549   4.139  13.420  0.00  0.00    +0.000 C 
ATOM     21  O   UNL     1       7.331   4.816  12.764  0.00  0.00    +0.000 OA
BRANCH  20  22
ATOM     22  O   UNL     1       5.914   3.074  12.895  0.00  0.00    +0.000 OA
ATOM     23  H   UNL     1       4.961   2.999  13.059  0.00  0.00    +0.000 HD
ENDBRANCH  20  22
ENDBRANCH  13  20
BRANCH  15  24
ATOM     24  C   UNL     1       7.427   6.589  17.778  0.00  0.00    +0.000 C 
ATOM     25  C   UNL     1       7.585   7.854  17.360  0.00  0.00    +0.000 C 
BRANCH  25  26
ATOM     26  C   UNL     1       8.312   8.822  18.224  0.00  0.00    +0.000 C 
ATOM     27  O   UNL     1       8.351  10.020  18.045  0.00  0.00    +0.000 OA
BRANCH  26  28
ATOM     28  O   UNL     1       8.941   8.200  19.246  0.00  0.00    +0.000 OA
ATOM     29  H   UNL     1       8.721   7.263  19.367  0.00  0.00    +0.000 HD
ENDBRANCH  26  28
ENDBRANCH  25  26
ENDBRANCH  15  24
TORSDOF 6
ENDMDL
MODEL 2
REMARK VINA RESULT:      -7.4      1.438      4.866
REMARK  Name = 
REMARK  9 active torsions:
REMARK  status: ('A' for Active; 'I' for Inactive)
REMARK    1  A    between atoms: C_1  and  C_2
REMARK    2  A    between atoms: C_5  and  O_6
REMARK    3  A    between atoms: C_7  and  C_8
REMARK    4  A    between atoms: C_7  and  C_9
REMARK    5  A    between atoms: C_14  and  C_15
REMARK    6  A    between atoms: C_15  and  O_17
REMARK    7  A    between atoms: C_19  and  C_20
REMARK    8  A    between atoms: C_21  and  C_22
REMARK    9  A    between atoms: C_22  and  O_24
REMARK                            x       y       z     vdW  Elec       q    Type
REMARK                         _______ _______ _______ _____ _____    ______ ____
ROOT
ATOM      1  C   UNL     1       0.868   4.842  17.163  0.00  0.00    +0.000 C 
ATOM      2  C   UNL     1       1.519   3.774  18.053  0.00  0.00    +0.000 C 
ATOM      3  C   UNL     1       0.858   3.762  19.445  0.00  0.00    +0.000 C 
ATOM      4  C   UNL     1       1.392   2.652  20.353  0.00  0.00    +0.000 C 
ATOM      5  C   UNL     1       2.922   2.615  20.438  0.00  0.00    +0.000 C 
ATOM      6  C   UNL     1       3.610   2.646  19.039  0.00  0.00    +0.000 C 
ATOM      7  C   UNL     1       3.304   1.293  18.329  0.00  0.00    +0.000 C 
ATOM      8  C   UNL     1       5.148   2.662  19.214  0.00  0.00    +0.000 C 
ATOM      9  C   UNL     1       3.079   3.885  18.178  0.00  0.00    +0.000 C 
ATOM     10  C   UNL     1       3.466   5.274  18.756  0.00  0.00    +0.000 C 
ATOM     11  C   UNL     1       4.663   5.567  17.949  0.00  0.00    +0.000 A 
ATOM     12  C   UNL     1       5.638   6.497  18.247  0.00  0.00    +0.000 A 
ATOM     13  C   UNL     1       6.754   6.582  17.416  0.00  0.00    +0.000 A 
ATOM     14  C   UNL     1       6.824   5.750  16.273  0.00  0.00    +0.000 A 
ATOM     15  C   UNL     1       5.791   4.821  15.954  0.00  0.00    +0.000 A 
ATOM     16  C   UNL     1       4.723   4.735  16.845  0.00  0.00    +0.000 A 
ATOM     17  O   UNL     1       3.681   3.827  16.828  0.00  0.00    +0.000 OA
ENDROOT
BRANCH   5  18
ATOM     18  O   UNL     1       3.388   3.665  21.284  0.00  0.00    +0.000 OA
ATOM     19  H   UNL     1       3.500   4.480  20.766  0.00  0.00    +0.000 HD
ENDBRANCH   5  18
BRANCH  13  20
ATOM     20  C   UNL     1       7.780   7.583  17.829  0.00  0.00    +0.000 C 
ATOM     21  O   UNL     1       7.907   8.653  17.246  0.00  0.00    +0.000 OA
BRANCH  20  22
ATOM     22  O   UNL     1       8.498   7.279  18.926  0.00  0.00    +0.000 OA
ATOM     23  H   UNL     1       9.393   6.929  18.790  0.00  0.00    +0.000 HD
ENDBRANCH  20  22
ENDBRANCH  13  20
BRANCH  15  24
ATOM     24  C   UNL     1       5.967   3.966  14.761  0.00  0.00    +0.000 C 
ATOM     25  C   UNL     1       5.360   4.146  13.579  0.00  0.00    +0.000 C 
BRANCH  25  26
ATOM     26  C   UNL     1       5.661   3.219  12.456  0.00  0.00    +0.000 C 
ATOM     27  O   UNL     1       4.863   2.867  11.614  0.00  0.00    +0.000 OA
BRANCH  26  28
ATOM     28  O   UNL     1       6.946   2.802  12.487  0.00  0.00    +0.000 OA
ATOM     29  H   UNL     1       7.092   1.915  12.851  0.00  0.00    +0.000 HD
ENDBRANCH  26  28
ENDBRANCH  25  26
ENDBRANCH  15  24
TORSDOF 6
ENDMDL
MODEL 3
REMARK VINA RESULT:      -7.0      0.742      1.090
REMARK  Name = 
REMARK  9 active torsions:
REMARK  status: ('A' for Active; 'I' for Inactive)
REMARK    1  A    between atoms: C_1  and  C_2
REMARK    2  A    between atoms: C_5  and  O_6
REMARK    3  A    between atoms: C_7  and  C_8
REMARK    4  A    between atoms: C_7  and  C_9
REMARK    5  A    between atoms: C_14  and  C_15
REMARK    6  A    between atoms: C_15  and  O_17
REMARK    7  A    between atoms: C_19  and  C_20
REMARK    8  A    between atoms: C_21  and  C_22
REMARK    9  A    between atoms: C_22  and  O_24
REMARK                            x       y       z     vdW  Elec       q    Type
REMARK                         _______ _______ _______ _____ _____    ______ ____
ROOT
ATOM      1  C   UNL     1       5.002   2.503  20.641  0.00  0.00    +0.000 C 
ATOM      2  C   UNL     1       3.671   3.218  20.368  0.00  0.00    +0.000 C 
ATOM      3  C   UNL     1       2.492   2.244  20.563  0.00  0.00    +0.000 C 
ATOM      4  C   UNL     1       1.126   2.916  20.402  0.00  0.00    +0.000 C 
ATOM      5  C   UNL     1       0.995   3.733  19.113  0.00  0.00    +0.000 C 
ATOM      6  C   UNL     1       2.189   4.711  18.888  0.00  0.00    +0.000 C 
ATOM      7  C   UNL     1       2.102   5.825  19.974  0.00  0.00    +0.000 C 
ATOM      8  C   UNL     1       2.008   5.454  17.542  0.00  0.00    +0.000 C 
ATOM      9  C   UNL     1       3.581   3.928  18.972  0.00  0.00    +0.000 C 
ATOM     10  C   UNL     1       3.797   2.891  17.835  0.00  0.00    +0.000 C 
ATOM     11  C   UNL     1       4.608   3.692  16.903  0.00  0.00    +0.000 A 
ATOM     12  C   UNL     1       4.810   3.426  15.564  0.00  0.00    +0.000 A 
ATOM     13  C   UNL     1       5.536   4.343  14.805  0.00  0.00    +0.000 A 
ATOM     14  C   UNL     1       6.079   5.484  15.441  0.00  0.00    +0.000 A 
ATOM     15  C   UNL     1       5.897   5.728  16.833  0.00  0.00    +0.000 A 
ATOM     16  C   UNL     1       5.118   4.811  17.537  0.00  0.00    +0.000 A 
ATOM     17  O   UNL     1       4.689   4.900  18.848  0.00  0.00    +0.000 OA
ENDROOT
BRANCH   5  18
ATOM     18  O   UNL     1       0.804   2.861  18.001  0.00  0.00    +0.000 OA
ATOM     19  H   UNL     1       1.320   2.047  18.129  0.00  0.00    +0.000 HD
ENDBRANCH   5  18
BRANCH  13  20
ATOM     20  C   UNL     1       5.675   4.002  13.359  0.00  0.00    +0.000 C 
ATOM     21  O   UNL     1       4.714   3.658  12.682  0.00  0.00    +0.000 OA
BRANCH  20  22
ATOM     22  O   UNL     1       6.898   4.176  12.824  0.00  0.00    +0.000 OA
ATOM     23  H   UNL     1       7.643   3.739  13.265  0.00  0.00    +0.000 HD
ENDBRANCH  20  22
ENDBRANCH  13  20
BRANCH  15  24
ATOM     24  C   UNL     1       6.468   6.966  17.404  0.00  0.00    +0.000 C 
ATOM     25  C   UNL     1       7.767   7.173  17.668  0.00  0.00    +0.000 C 
BRANCH  25  26
ATOM     26  C   UNL     1       8.199   8.486  18.215  0.00  0.00    +0.000 C 
ATOM     27  O   UNL     1       9.017   8.635  19.097  0.00  0.00    +0.000 OA
BRANCH  26  28
ATOM     28  O   UNL     1       7.561   9.511  17.608  0.00  0.00    +0.000 OA
ATOM     29  H   UNL     1       7.161  10.167  18.201  0.00  0.00    +0.000 HD
ENDBRANCH  26  28
ENDBRANCH  25  26
ENDBRANCH  15  24
TORSDOF 6
ENDMDL
MODEL 4
REMARK VINA RESULT:      -6.6      7.726     10.310
REMARK  Name = 
REMARK  9 active torsions:
REMARK  status: ('A' for Active; 'I' for Inactive)
REMARK    1  A    between atoms: C_1  and  C_2
REMARK    2  A    between atoms: C_5  and  O_6
REMARK    3  A    between atoms: C_7  and  C_8
REMARK    4  A    between atoms: C_7  and  C_9
REMARK    5  A    between atoms: C_14  and  C_15
REMARK    6  A    between atoms: C_15  and  O_17
REMARK    7  A    between atoms: C_19  and  C_20
REMARK    8  A    between atoms: C_21  and  C_22
REMARK    9  A    between atoms: C_22  and  O_24
REMARK                            x       y       z     vdW  Elec       q    Type
REMARK                         _______ _______ _______ _____ _____    ______ ____
ROOT
ATOM      1  C   UNL     1      -2.144  11.839  23.105  0.00  0.00    +0.000 C 
ATOM      2  C   UNL     1      -1.326  12.984  22.493  0.00  0.00    +0.000 C 
ATOM      3  C   UNL     1      -1.948  14.344  22.867  0.00  0.00    +0.000 C 
ATOM      4  C   UNL     1      -1.125  15.536  22.372  0.00  0.00    +0.000 C 
ATOM      5  C   UNL     1      -0.764  15.454  20.886  0.00  0.00    +0.000 C 
ATOM      6  C   UNL     1      -0.151  14.078  20.483  0.00  0.00    +0.000 C 
ATOM      7  C   UNL     1       1.252  13.969  21.151  0.00  0.00    +0.000 C 
ATOM      8  C   UNL     1       0.132  14.058  18.961  0.00  0.00    +0.000 C 
ATOM      9  C   UNL     1      -1.106  12.880  20.944  0.00  0.00    +0.000 C 
ATOM     10  C   UNL     1      -2.478  12.845  20.215  0.00  0.00    +0.000 C 
ATOM     11  C   UNL     1      -2.189  11.857  19.163  0.00  0.00    +0.000 A 
ATOM     12  C   UNL     1      -2.910  11.670  18.001  0.00  0.00    +0.000 A 
ATOM     13  C   UNL     1      -2.442  10.747  17.067  0.00  0.00    +0.000 A 
ATOM     14  C   UNL     1      -1.276  10.001  17.364  0.00  0.00    +0.000 A 
ATOM     15  C   UNL     1      -0.562  10.175  18.585  0.00  0.00    +0.000 A 
ATOM     16  C   UNL     1      -1.039  11.148  19.461  0.00  0.00    +0.000 A 
ATOM     17  O   UNL     1      -0.449  11.592  20.630  0.00  0.00    +0.000 OA
ENDROOT
BRANCH   5  18
ATOM     18  O   UNL     1      -1.901  15.784  20.090  0.00  0.00    +0.000 OA
ATOM     19  H   UNL     1      -2.713  15.500  20.542  0.00  0.00    +0.000 HD
ENDBRANCH   5  18
BRANCH  13  20
ATOM     20  C   UNL     1      -3.255  10.633  15.822  0.00  0.00    +0.000 C 
ATOM     21  O   UNL     1      -2.765  10.254  14.765  0.00  0.00    +0.000 OA
BRANCH  20  22
ATOM     22  O   UNL     1      -4.570  10.888  15.947  0.00  0.00    +0.000 OA
ATOM     23  H   UNL     1      -5.129  10.737  15.168  0.00  0.00    +0.000 HD
ENDBRANCH  20  22
ENDBRANCH  13  20
BRANCH  15  24
ATOM     24  C   UNL     1       0.667   9.380  18.793  0.00  0.00    +0.000 C 
ATOM     25  C   UNL     1       1.353   8.744  17.831  0.00  0.00    +0.000 C 
BRANCH  25  26
ATOM     26  C   UNL     1       2.593   8.006  18.187  0.00  0.00    +0.000 C 
ATOM     27  O   UNL     1       3.582   7.931  17.490  0.00  0.00    +0.000 OA
BRANCH  26  28
ATOM     28  O   UNL     1       2.488   7.414  19.398  0.00  0.00    +0.000 OA
ATOM     29  H   UNL     1       2.550   8.008  20.163  0.00  0.00    +0.000 HD
ENDBRANCH  26  28
ENDBRANCH  25  26
ENDBRANCH  15  24
TORSDOF 6
ENDMDL
MODEL 5
REMARK VINA RESULT:      -6.6      1.599      4.881
REMARK  Name = 
REMARK  9 active torsions:
REMARK  status: ('A' for Active; 'I' for Inactive)
REMARK    1  A    between atoms: C_1  and  C_2
REMARK    2  A    between atoms: C_5  and  O_6
REMARK    3  A    between atoms: C_7  and  C_8
REMARK    4  A    between atoms: C_7  and  C_9
REMARK    5  A    between atoms: C_14  and  C_15
REMARK    6  A    between atoms: C_15  and  O_17
REMARK    7  A    between atoms: C_19  and  C_20
REMARK    8  A    between atoms: C_21  and  C_22
REMARK    9  A    between atoms: C_22  and  O_24
REMARK                            x       y       z     vdW  Elec       q    Type
REMARK                         _______ _______ _______ _____ _____    ______ ____
ROOT
ATOM      1  C   UNL     1       1.078   5.526  17.648  0.00  0.00    +0.000 C 
ATOM      2  C   UNL     1       1.342   4.165  18.308  0.00  0.00    +0.000 C 
ATOM      3  C   UNL     1       0.556   4.051  19.629  0.00  0.00    +0.000 C 
ATOM      4  C   UNL     1       0.695   2.679  20.293  0.00  0.00    +0.000 C 
ATOM      5  C   UNL     1       2.148   2.217  20.442  0.00  0.00    +0.000 C 
ATOM      6  C   UNL     1       2.965   2.343  19.120  0.00  0.00    +0.000 C 
ATOM      7  C   UNL     1       2.406   1.294  18.113  0.00  0.00    +0.000 C 
ATOM      8  C   UNL     1       4.431   1.910  19.369  0.00  0.00    +0.000 C 
ATOM      9  C   UNL     1       2.857   3.826  18.531  0.00  0.00    +0.000 C 
ATOM     10  C   UNL     1       3.518   4.914  19.421  0.00  0.00    +0.000 C 
ATOM     11  C   UNL     1       4.828   5.032  18.759  0.00  0.00    +0.000 A 
ATOM     12  C   UNL     1       5.969   5.586  19.304  0.00  0.00    +0.000 A 
ATOM     13  C   UNL     1       7.151   5.534  18.568  0.00  0.00    +0.000 A 
ATOM     14  C   UNL     1       7.130   4.962  17.273  0.00  0.00    +0.000 A 
ATOM     15  C   UNL     1       5.937   4.428  16.706  0.00  0.00    +0.000 A 
ATOM     16  C   UNL     1       4.793   4.455  17.502  0.00  0.00    +0.000 A 
ATOM     17  O   UNL     1       3.564   3.882  17.233  0.00  0.00    +0.000 OA
ENDROOT
BRANCH   5  18
ATOM     18  O   UNL     1       2.771   2.910  21.521  0.00  0.00    +0.000 OA
ATOM     19  H   UNL     1       3.722   2.715  21.532  0.00  0.00    +0.000 HD
ENDBRANCH   5  18
BRANCH  13  20
ATOM     20  C   UNL     1       8.347   6.118  19.242  0.00  0.00    +0.000 C 
ATOM     21  O   UNL     1       8.717   7.264  19.018  0.00  0.00    +0.000 OA
BRANCH  20  22
ATOM     22  O   UNL     1       8.940   5.346  20.171  0.00  0.00    +0.000 OA
ATOM     23  H   UNL     1       8.913   5.655  21.090  0.00  0.00    +0.000 HD
ENDBRANCH  20  22
ENDBRANCH  13  20
BRANCH  15  24
ATOM     24  C   UNL     1       6.017   3.816  15.363  0.00  0.00    +0.000 C 
ATOM     25  C   UNL     1       5.612   4.391  14.221  0.00  0.00    +0.000 C 
BRANCH  25  26
ATOM     26  C   UNL     1       5.785   3.662  12.937  0.00  0.00    +0.000 C 
ATOM     27  O   UNL     1       6.848   3.287  12.489  0.00  0.00    +0.000 OA
BRANCH  26  28
ATOM     28  O   UNL     1       4.602   3.467  12.312  0.00  0.00    +0.000 OA
ATOM     29  H   UNL     1       4.338   2.541  12.192  0.00  0.00    +0.000 HD
ENDBRANCH  26  28
ENDBRANCH  25  26
ENDBRANCH  15  24
TORSDOF 6
ENDMDL
MODEL 6
REMARK VINA RESULT:      -6.5      2.705      6.539
REMARK  Name = 
REMARK  9 active torsions:
REMARK  status: ('A' for Active; 'I' for Inactive)
REMARK    1  A    between atoms: C_1  and  C_2
REMARK    2  A    between atoms: C_5  and  O_6
REMARK    3  A    between atoms: C_7  and  C_8
REMARK    4  A    between atoms: C_7  and  C_9
REMARK    5  A    between atoms: C_14  and  C_15
REMARK    6  A    between atoms: C_15  and  O_17
REMARK    7  A    between atoms: C_19  and  C_20
REMARK    8  A    between atoms: C_21  and  C_22
REMARK    9  A    between atoms: C_22  and  O_24
REMARK                            x       y       z     vdW  Elec       q    Type
REMARK                         _______ _______ _______ _____ _____    ______ ____
ROOT
ATOM      1  C   UNL     1       7.678   5.569  18.820  0.00  0.00    +0.000 C 
ATOM      2  C   UNL     1       6.930   4.761  17.749  0.00  0.00    +0.000 C 
ATOM      3  C   UNL     1       7.631   4.907  16.384  0.00  0.00    +0.000 C 
ATOM      4  C   UNL     1       6.995   4.047  15.289  0.00  0.00    +0.000 C 
ATOM      5  C   UNL     1       5.476   4.219  15.183  0.00  0.00    +0.000 C 
ATOM      6  C   UNL     1       4.751   4.095  16.557  0.00  0.00    +0.000 C 
ATOM      7  C   UNL     1       4.865   2.612  17.022  0.00  0.00    +0.000 C 
ATOM      8  C   UNL     1       3.233   4.336  16.370  0.00  0.00    +0.000 C 
ATOM      9  C   UNL     1       5.401   5.089  17.628  0.00  0.00    +0.000 C 
ATOM     10  C   UNL     1       5.207   6.595  17.299  0.00  0.00    +0.000 C 
ATOM     11  C   UNL     1       4.029   6.893  18.131  0.00  0.00    +0.000 A 
ATOM     12  C   UNL     1       3.185   7.977  17.990  0.00  0.00    +0.000 A 
ATOM     13  C   UNL     1       2.062   8.057  18.810  0.00  0.00    +0.000 A 
ATOM     14  C   UNL     1       1.852   7.056  19.789  0.00  0.00    +0.000 A 
ATOM     15  C   UNL     1       2.752   5.963  19.951  0.00  0.00    +0.000 A 
ATOM     16  C   UNL     1       3.831   5.898  19.071  0.00  0.00    +0.000 A 
ATOM     17  O   UNL     1       4.752   4.875  18.940  0.00  0.00    +0.000 OA
ENDROOT
BRANCH   5  18
ATOM     18  O   UNL     1       5.171   5.450  14.529  0.00  0.00    +0.000 OA
ATOM     19  H   UNL     1       4.310   5.781  14.836  0.00  0.00    +0.000 HD
ENDBRANCH   5  18
BRANCH  13  20
ATOM     20  C   UNL     1       1.180   9.236  18.568  0.00  0.00    +0.000 C 
ATOM     21  O   UNL     1       0.323   9.576  19.375  0.00  0.00    +0.000 OA
BRANCH  20  22
ATOM     22  O   UNL     1       1.438   9.951  17.458  0.00  0.00    +0.000 OA
ATOM     23  H   UNL     1       2.120   9.611  16.857  0.00  0.00    +0.000 HD
ENDBRANCH  20  22
ENDBRANCH  13  20
BRANCH  15  24
ATOM     24  C   UNL     1       2.433   4.944  20.973  0.00  0.00    +0.000 C 
ATOM     25  C   UNL     1       2.175   3.651  20.728  0.00  0.00    +0.000 C 
BRANCH  25  26
ATOM     26  C   UNL     1       1.899   2.734  21.865  0.00  0.00    +0.000 C 
ATOM     27  O   UNL     1       0.827   2.616  22.418  0.00  0.00    +0.000 OA
BRANCH  26  28
ATOM     28  O   UNL     1       3.002   2.038  22.221  0.00  0.00    +0.000 OA
ATOM     29  H   UNL     1       3.734   2.564  22.580  0.00  0.00    +0.000 HD
ENDBRANCH  26  28
ENDBRANCH  25  26
ENDBRANCH  15  24
TORSDOF 6
ENDMDL
MODEL 7
REMARK VINA RESULT:      -6.3      2.700      6.287
REMARK  Name = 
REMARK  9 active torsions:
REMARK  status: ('A' for Active; 'I' for Inactive)
REMARK    1  A    between atoms: C_1  and  C_2
REMARK    2  A    between atoms: C_5  and  O_6
REMARK    3  A    between atoms: C_7  and  C_8
REMARK    4  A    between atoms: C_7  and  C_9
REMARK    5  A    between atoms: C_14  and  C_15
REMARK    6  A    between atoms: C_15  and  O_17
REMARK    7  A    between atoms: C_19  and  C_20
REMARK    8  A    between atoms: C_21  and  C_22
REMARK    9  A    between atoms: C_22  and  O_24
REMARK                            x       y       z     vdW  Elec       q    Type
REMARK                         _______ _______ _______ _____ _____    ______ ____
ROOT
ATOM      1  C   UNL     1       4.419   5.151  14.585  0.00  0.00    +0.000 C 
ATOM      2  C   UNL     1       5.626   5.494  15.469  0.00  0.00    +0.000 C 
ATOM      3  C   UNL     1       6.828   4.602  15.101  0.00  0.00    +0.000 C 
ATOM      4  C   UNL     1       8.099   4.957  15.877  0.00  0.00    +0.000 C 
ATOM      5  C   UNL     1       7.884   5.044  17.391  0.00  0.00    +0.000 C 
ATOM      6  C   UNL     1       6.660   5.927  17.784  0.00  0.00    +0.000 C 
ATOM      7  C   UNL     1       7.008   7.404  17.432  0.00  0.00    +0.000 C 
ATOM      8  C   UNL     1       6.481   5.917  19.322  0.00  0.00    +0.000 C 
ATOM      9  C   UNL     1       5.346   5.441  17.011  0.00  0.00    +0.000 C 
ATOM     10  C   UNL     1       4.859   4.022  17.414  0.00  0.00    +0.000 C 
ATOM     11  C   UNL     1       3.827   4.372  18.404  0.00  0.00    +0.000 A 
ATOM     12  C   UNL     1       3.292   3.528  19.356  0.00  0.00    +0.000 A 
ATOM     13  C   UNL     1       2.385   4.051  20.275  0.00  0.00    +0.000 A 
ATOM     14  C   UNL     1       2.007   5.411  20.171  0.00  0.00    +0.000 A 
ATOM     15  C   UNL     1       2.537   6.263  19.159  0.00  0.00    +0.000 A 
ATOM     16  C   UNL     1       3.481   5.708  18.298  0.00  0.00    +0.000 A 
ATOM     17  O   UNL     1       4.231   6.358  17.335  0.00  0.00    +0.000 OA
ENDROOT
BRANCH   5  18
ATOM     18  O   UNL     1       7.795   3.733  17.947  0.00  0.00    +0.000 OA
ATOM     19  H   UNL     1       6.902   3.376  17.806  0.00  0.00    +0.000 HD
ENDBRANCH   5  18
BRANCH  13  20
ATOM     20  C   UNL     1       1.883   3.084  21.295  0.00  0.00    +0.000 C 
ATOM     21  O   UNL     1       2.600   2.672  22.200  0.00  0.00    +0.000 OA
BRANCH  20  22
ATOM     22  O   UNL     1       0.580   2.758  21.214  0.00  0.00    +0.000 OA
ATOM     23  H   UNL     1       0.282   1.985  21.719  0.00  0.00    +0.000 HD
ENDBRANCH  20  22
ENDBRANCH  13  20
BRANCH  15  24
ATOM     24  C   UNL     1       2.115   7.680  19.150  0.00  0.00    +0.000 C 
ATOM     25  C   UNL     1       1.883   8.415  18.052  0.00  0.00    +0.000 C 
BRANCH  25  26
ATOM     26  C   UNL     1       1.433   9.824  18.201  0.00  0.00    +0.000 C 
ATOM     27  O   UNL     1       0.569  10.200  18.964  0.00  0.00    +0.000 OA
BRANCH  26  28
ATOM     28  O   UNL     1       2.105  10.651  17.369  0.00  0.00    +0.000 OA
ATOM     29  H   UNL     1       1.796  10.663  16.449  0.00  0.00    +0.000 HD
ENDBRANCH  26  28
ENDBRANCH  25  26
ENDBRANCH  15  24
TORSDOF 6
ENDMDL
MODEL 8
REMARK VINA RESULT:      -6.3      2.841      4.421
REMARK  Name = 
REMARK  9 active torsions:
REMARK  status: ('A' for Active; 'I' for Inactive)
REMARK    1  A    between atoms: C_1  and  C_2
REMARK    2  A    between atoms: C_5  and  O_6
REMARK    3  A    between atoms: C_7  and  C_8
REMARK    4  A    between atoms: C_7  and  C_9
REMARK    5  A    between atoms: C_14  and  C_15
REMARK    6  A    between atoms: C_15  and  O_17
REMARK    7  A    between atoms: C_19  and  C_20
REMARK    8  A    between atoms: C_21  and  C_22
REMARK    9  A    between atoms: C_22  and  O_24
REMARK                            x       y       z     vdW  Elec       q    Type
REMARK                         _______ _______ _______ _____ _____    ______ ____
ROOT
ATOM      1  C   UNL     1       2.420   4.608  21.942  0.00  0.00    +0.000 C 
ATOM      2  C   UNL     1       2.050   3.745  20.727  0.00  0.00    +0.000 C 
ATOM      3  C   UNL     1       2.354   2.261  21.015  0.00  0.00    +0.000 C 
ATOM      4  C   UNL     1       1.916   1.329  19.882  0.00  0.00    +0.000 C 
ATOM      5  C   UNL     1       2.419   1.767  18.503  0.00  0.00    +0.000 C 
ATOM      6  C   UNL     1       2.138   3.271  18.201  0.00  0.00    +0.000 C 
ATOM      7  C   UNL     1       0.598   3.443  18.042  0.00  0.00    +0.000 C 
ATOM      8  C   UNL     1       2.724   3.644  16.817  0.00  0.00    +0.000 C 
ATOM      9  C   UNL     1       2.705   4.195  19.376  0.00  0.00    +0.000 C 
ATOM     10  C   UNL     1       4.254   4.179  19.507  0.00  0.00    +0.000 C 
ATOM     11  C   UNL     1       4.592   5.394  18.747  0.00  0.00    +0.000 A 
ATOM     12  C   UNL     1       5.829   5.709  18.222  0.00  0.00    +0.000 A 
ATOM     13  C   UNL     1       5.952   6.862  17.449  0.00  0.00    +0.000 A 
ATOM     14  C   UNL     1       4.820   7.693  17.271  0.00  0.00    +0.000 A 
ATOM     15  C   UNL     1       3.556   7.378  17.850  0.00  0.00    +0.000 A 
ATOM     16  C   UNL     1       3.472   6.186  18.568  0.00  0.00    +0.000 A 
ATOM     17  O   UNL     1       2.338   5.602  19.102  0.00  0.00    +0.000 OA
ENDROOT
BRANCH   5  18
ATOM     18  O   UNL     1       3.802   1.445  18.364  0.00  0.00    +0.000 OA
ATOM     19  H   UNL     1       4.217   2.047  17.724  0.00  0.00    +0.000 HD
ENDBRANCH   5  18
BRANCH  13  20
ATOM     20  C   UNL     1       7.311   7.109  16.887  0.00  0.00    +0.000 C 
ATOM     21  O   UNL     1       7.819   6.349  16.071  0.00  0.00    +0.000 OA
BRANCH  20  22
ATOM     22  O   UNL     1       7.908   8.256  17.261  0.00  0.00    +0.000 OA
ATOM     23  H   UNL     1       7.690   9.057  16.758  0.00  0.00    +0.000 HD
ENDBRANCH  20  22
ENDBRANCH  13  20
BRANCH  15  24
ATOM     24  C   UNL     1       2.420   8.284  17.579  0.00  0.00    +0.000 C 
ATOM     25  C   UNL     1       1.794   9.040  18.492  0.00  0.00    +0.000 C 
BRANCH  25  26
ATOM     26  C   UNL     1       0.682   9.930  18.063  0.00  0.00    +0.000 C 
ATOM     27  O   UNL     1      -0.406   9.549  17.688  0.00  0.00    +0.000 OA
BRANCH  26  28
ATOM     28  O   UNL     1       1.033  11.233  18.136  0.00  0.00    +0.000 OA
ATOM     29  H   UNL     1       1.533  11.576  17.379  0.00  0.00    +0.000 HD
ENDBRANCH  26  28
ENDBRANCH  25  26
ENDBRANCH  15  24
TORSDOF 6
ENDMDL
MODEL 9
REMARK VINA RESULT:      -6.3      7.973     11.319
REMARK  Name = 
REMARK  9 active torsions:
REMARK  status: ('A' for Active; 'I' for Inactive)
REMARK    1  A    between atoms: C_1  and  C_2
REMARK    2  A    between atoms: C_5  and  O_6
REMARK    3  A    between atoms: C_7  and  C_8
REMARK    4  A    between atoms: C_7  and  C_9
REMARK    5  A    between atoms: C_14  and  C_15
REMARK    6  A    between atoms: C_15  and  O_17
REMARK    7  A    between atoms: C_19  and  C_20
REMARK    8  A    between atoms: C_21  and  C_22
REMARK    9  A    between atoms: C_22  and  O_24
REMARK                            x       y       z     vdW  Elec       q    Type
REMARK                         _______ _______ _______ _____ _____    ______ ____
ROOT
ATOM      1  C   UNL     1       3.071  14.711  17.991  0.00  0.00    +0.000 C 
ATOM      2  C   UNL     1       2.091  15.376  18.967  0.00  0.00    +0.000 C 
ATOM      3  C   UNL     1       2.859  16.220  20.003  0.00  0.00    +0.000 C 
ATOM      4  C   UNL     1       1.936  16.993  20.950  0.00  0.00    +0.000 C 
ATOM      5  C   UNL     1       0.858  16.120  21.599  0.00  0.00    +0.000 C 
ATOM      6  C   UNL     1       0.082  15.243  20.568  0.00  0.00    +0.000 C 
ATOM      7  C   UNL     1      -0.777  16.196  19.685  0.00  0.00    +0.000 C 
ATOM      8  C   UNL     1      -0.947  14.354  21.309  0.00  0.00    +0.000 C 
ATOM      9  C   UNL     1       1.100  14.389  19.678  0.00  0.00    +0.000 C 
ATOM     10  C   UNL     1       1.897  13.318  20.473  0.00  0.00    +0.000 C 
ATOM     11  C   UNL     1       1.076  12.127  20.202  0.00  0.00    +0.000 A 
ATOM     12  C   UNL     1       1.087  10.949  20.920  0.00  0.00    +0.000 A 
ATOM     13  C   UNL     1       0.175   9.952  20.579  0.00  0.00    +0.000 A 
ATOM     14  C   UNL     1      -0.693  10.161  19.481  0.00  0.00    +0.000 A 
ATOM     15  C   UNL     1      -0.668  11.366  18.721  0.00  0.00    +0.000 A 
ATOM     16  C   UNL     1       0.223  12.354  19.136  0.00  0.00    +0.000 A 
ATOM     17  O   UNL     1       0.336  13.645  18.652  0.00  0.00    +0.000 OA
ENDROOT
BRANCH   5  18
ATOM     18  O   UNL     1       1.430  15.334  22.642  0.00  0.00    +0.000 OA
ATOM     19  H   UNL     1       1.071  14.431  22.609  0.00  0.00    +0.000 HD
ENDBRANCH   5  18
BRANCH  13  20
ATOM     20  C   UNL     1       0.225   8.726  21.429  0.00  0.00    +0.000 C 
ATOM     21  O   UNL     1      -0.791   8.218  21.886  0.00  0.00    +0.000 OA
BRANCH  20  22
ATOM     22  O   UNL     1       1.438   8.166  21.592  0.00  0.00    +0.000 OA
ATOM     23  H   UNL     1       1.465   7.233  21.855  0.00  0.00    +0.000 HD
ENDBRANCH  20  22
ENDBRANCH  13  20
BRANCH  15  24
ATOM     24  C   UNL     1      -1.637  11.512  17.615  0.00  0.00    +0.000 C 
ATOM     25  C   UNL     1      -2.107  10.511  16.856  0.00  0.00    +0.000 C 
BRANCH  25  26
ATOM     26  C   UNL     1      -3.106  10.807  15.795  0.00  0.00    +0.000 C 
ATOM     27  O   UNL     1      -3.101  10.328  14.682  0.00  0.00    +0.000 OA
BRANCH  26  28
ATOM     28  O   UNL     1      -4.035  11.693  16.221  0.00  0.00    +0.000 OA
ATOM     29  H   UNL     1      -4.386  11.537  17.112  0.00  0.00    +0.000 HD
ENDBRANCH  26  28
ENDBRANCH  25  26
ENDBRANCH  15  24
TORSDOF 6
ENDMDL
