MODEL 1
REMARK VINA RESULT:      -8.3      0.000      0.000
REMARK  Name = 
REMARK  7 active torsions:
REMARK  status: ('A' for Active; 'I' for Inactive)
REMARK    1  A    between atoms: C_1  and  O_2
REMARK    2  A    between atoms: O_2  and  C_3
REMARK    3  A    between atoms: C_5  and  N_6
REMARK    4  A    between atoms: C_7  and  C_9
REMARK    5  A    between atoms: C_9  and  N_10
REMARK    6  A    between atoms: C_28  and  O_29
REMARK    7  A    between atoms: O_29  and  C_30
REMARK                            x       y       z     vdW  Elec       q    Type
REMARK                         _______ _______ _______ _____ _____    ______ ____
ROOT
ATOM      1  N   UNL     1       1.420   8.906  19.010  0.00  0.00    +0.000 N 
ATOM      2  N   UNL     1       1.515   7.595  19.442  0.00  0.00    +0.000 NA
ATOM      3  C   UNL     1       2.500   7.124  18.744  0.00  0.00    +0.000 A 
ATOM      4  C   UNL     1       3.068   5.819  18.847  0.00  0.00    +0.000 A 
ATOM      5  C   UNL     1       2.797   4.760  19.753  0.00  0.00    +0.000 A 
ATOM      6  C   UNL     1       3.634   3.686  19.516  0.00  0.00    +0.000 A 
ATOM      7  S   UNL     1       4.720   3.971  18.229  0.00  0.00    +0.000 S 
ATOM      8  C   UNL     1       4.112   5.548  17.980  0.00  0.00    +0.000 A 
ATOM      9  N   UNL     1       4.647   6.407  17.057  0.00  0.00    +0.000 NA
ATOM     10  C   UNL     1       4.112   7.593  17.046  0.00  0.00    +0.000 A 
ATOM     11  N   UNL     1       3.063   7.974  17.858  0.00  0.00    +0.000 N 
ATOM     12  C   UNL     1       2.412   9.179  18.048  0.00  0.00    +0.000 A 
ATOM     13  O   UNL     1       2.682  10.263  17.542  0.00  0.00    +0.000 OA
ATOM     14  C   UNL     1       3.599   2.391  20.271  0.00  0.00    +0.000 C 
ATOM     15  C   UNL     1       2.794   2.547  21.574  0.00  0.00    +0.000 C 
ATOM     16  C   UNL     1       1.499   3.341  21.349  0.00  0.00    +0.000 C 
ATOM     17  C   UNL     1       1.804   4.765  20.874  0.00  0.00    +0.000 C 
ENDROOT
BRANCH   1  18
ATOM     18  C   UNL     1       0.675   9.885  19.768  0.00  0.00    +0.000 C 
BRANCH  18  20
ATOM     19  N   UNL     1      -1.340   9.780  18.338  0.00  0.00    +0.000 N 
ATOM     20  C   UNL     1      -0.399  10.601  18.948  0.00  0.00    +0.000 C 
ATOM     21  O   UNL     1      -0.397  11.833  18.919  0.00  0.00    +0.000 OA
ATOM     22  H   UNL     1      -1.278   8.787  18.574  0.00  0.00    +0.000 HD
BRANCH  19  25
ATOM     23  C   UNL     1      -4.532  11.325  17.164  0.00  0.00    +0.000 A 
ATOM     24  C   UNL     1      -3.542  10.812  18.007  0.00  0.00    +0.000 A 
ATOM     25  C   UNL     1      -2.401  10.200  17.498  0.00  0.00    +0.000 A 
ATOM     26  C   UNL     1      -2.281  10.058  16.107  0.00  0.00    +0.000 A 
ATOM     27  C   UNL     1      -3.268  10.567  15.251  0.00  0.00    +0.000 A 
ATOM     28  C   UNL     1      -4.386  11.207  15.780  0.00  0.00    +0.000 A 
BRANCH  23  30
ATOM     29  C   UNL     1      -6.557  11.123  18.392  0.00  0.00    +0.000 C 
ATOM     30  O   UNL     1      -5.570  11.955  17.795  0.00  0.00    +0.000 OA
ENDBRANCH  23  30
BRANCH  27  31
ATOM     31  O   UNL     1      -3.004  10.401  13.917  0.00  0.00    +0.000 OA
ATOM     32  C   UNL     1      -4.062   9.919  13.096  0.00  0.00    +0.000 C 
ENDBRANCH  27  31
ENDBRANCH  19  25
ENDBRANCH  18  20
ENDBRANCH   1  18
TORSDOF 5
ENDMDL
MODEL 2
REMARK VINA RESULT:      -8.2      0.708      2.253
REMARK  Name = 
REMARK  7 active torsions:
REMARK  status: ('A' for Active; 'I' for Inactive)
REMARK    1  A    between atoms: C_1  and  O_2
REMARK    2  A    between atoms: O_2  and  C_3
REMARK    3  A    between atoms: C_5  and  N_6
REMARK    4  A    between atoms: C_7  and  C_9
REMARK    5  A    between atoms: C_9  and  N_10
REMARK    6  A    between atoms: C_28  and  O_29
REMARK    7  A    between atoms: O_29  and  C_30
REMARK                            x       y       z     vdW  Elec       q    Type
REMARK                         _______ _______ _______ _____ _____    ______ ____
ROOT
ATOM      1  N   UNL     1       1.450   9.000  19.118  0.00  0.00    +0.000 N 
ATOM      2  N   UNL     1       1.538   7.681  19.525  0.00  0.00    +0.000 NA
ATOM      3  C   UNL     1       2.453   7.192  18.747  0.00  0.00    +0.000 A 
ATOM      4  C   UNL     1       2.988   5.870  18.789  0.00  0.00    +0.000 A 
ATOM      5  C   UNL     1       2.756   4.806  19.700  0.00  0.00    +0.000 A 
ATOM      6  C   UNL     1       3.539   3.712  19.386  0.00  0.00    +0.000 A 
ATOM      7  S   UNL     1       4.531   3.984  18.023  0.00  0.00    +0.000 S 
ATOM      8  C   UNL     1       3.954   5.582  17.841  0.00  0.00    +0.000 A 
ATOM      9  N   UNL     1       4.442   6.438  16.891  0.00  0.00    +0.000 NA
ATOM     10  C   UNL     1       3.943   7.639  16.936  0.00  0.00    +0.000 A 
ATOM     11  N   UNL     1       2.971   8.038  17.832  0.00  0.00    +0.000 N 
ATOM     12  C   UNL     1       2.374   9.258  18.085  0.00  0.00    +0.000 A 
ATOM     13  O   UNL     1       2.636  10.342  17.575  0.00  0.00    +0.000 OA
ATOM     14  C   UNL     1       3.523   2.406  20.125  0.00  0.00    +0.000 C 
ATOM     15  C   UNL     1       2.825   2.567  21.488  0.00  0.00    +0.000 C 
ATOM     16  C   UNL     1       1.541   3.401  21.373  0.00  0.00    +0.000 C 
ATOM     17  C   UNL     1       1.851   4.822  20.894  0.00  0.00    +0.000 C 
ENDROOT
BRANCH   1  18
ATOM     18  C   UNL     1       0.795   9.988  19.943  0.00  0.00    +0.000 C 
BRANCH  18  20
ATOM     19  N   UNL     1      -1.429  10.151  18.874  0.00  0.00    +0.000 N 
ATOM     20  C   UNL     1      -0.249  10.815  19.191  0.00  0.00    +0.000 C 
ATOM     21  O   UNL     1      -0.011  12.001  18.961  0.00  0.00    +0.000 OA
ATOM     22  H   UNL     1      -1.521   9.208  19.256  0.00  0.00    +0.000 HD
BRANCH  19  25
ATOM     23  C   UNL     1      -3.886  10.805  16.137  0.00  0.00    +0.000 A 
ATOM     24  C   UNL     1      -2.746  10.363  16.813  0.00  0.00    +0.000 A 
ATOM     25  C   UNL     1      -2.522  10.686  18.148  0.00  0.00    +0.000 A 
ATOM     26  C   UNL     1      -3.448  11.517  18.800  0.00  0.00    +0.000 A 
ATOM     27  C   UNL     1      -4.595  11.967  18.132  0.00  0.00    +0.000 A 
ATOM     28  C   UNL     1      -4.817  11.603  16.806  0.00  0.00    +0.000 A 
BRANCH  23  30
ATOM     29  C   UNL     1      -2.826   9.900  14.212  0.00  0.00    +0.000 C 
ATOM     30  O   UNL     1      -4.011  10.363  14.848  0.00  0.00    +0.000 OA
ENDBRANCH  23  30
BRANCH  27  31
ATOM     31  O   UNL     1      -5.436  12.731  18.898  0.00  0.00    +0.000 OA
ATOM     32  C   UNL     1      -6.760  12.928  18.418  0.00  0.00    +0.000 C 
ENDBRANCH  27  31
ENDBRANCH  19  25
ENDBRANCH  18  20
ENDBRANCH   1  18
TORSDOF 5
ENDMDL
MODEL 3
REMARK VINA RESULT:      -8.0      1.689      3.100
REMARK  Name = 
REMARK  7 active torsions:
REMARK  status: ('A' for Active; 'I' for Inactive)
REMARK    1  A    between atoms: C_1  and  O_2
REMARK    2  A    between atoms: O_2  and  C_3
REMARK    3  A    between atoms: C_5  and  N_6
REMARK    4  A    between atoms: C_7  and  C_9
REMARK    5  A    between atoms: C_9  and  N_10
REMARK    6  A    between atoms: C_28  and  O_29
REMARK    7  A    between atoms: O_29  and  C_30
REMARK                            x       y       z     vdW  Elec       q    Type
REMARK                         _______ _______ _______ _____ _____    ______ ____
ROOT
ATOM      1  N   UNL     1       1.668   8.502  19.991  0.00  0.00    +0.000 N 
ATOM      2  N   UNL     1       2.570   7.914  19.122  0.00  0.00    +0.000 NA
ATOM      3  C   UNL     1       2.525   6.661  19.453  0.00  0.00    +0.000 A 
ATOM      4  C   UNL     1       3.219   5.589  18.818  0.00  0.00    +0.000 A 
ATOM      5  C   UNL     1       4.032   5.572  17.654  0.00  0.00    +0.000 A 
ATOM      6  C   UNL     1       4.458   4.288  17.372  0.00  0.00    +0.000 A 
ATOM      7  S   UNL     1       3.875   3.141  18.494  0.00  0.00    +0.000 S 
ATOM      8  C   UNL     1       3.016   4.334  19.365  0.00  0.00    +0.000 A 
ATOM      9  N   UNL     1       2.215   4.032  20.435  0.00  0.00    +0.000 NA
ATOM     10  C   UNL     1       1.578   5.049  20.939  0.00  0.00    +0.000 A 
ATOM     11  N   UNL     1       1.708   6.345  20.481  0.00  0.00    +0.000 N 
ATOM     12  C   UNL     1       1.081   7.528  20.823  0.00  0.00    +0.000 A 
ATOM     13  O   UNL     1       0.167   7.686  21.625  0.00  0.00    +0.000 OA
ATOM     14  C   UNL     1       5.356   3.915  16.230  0.00  0.00    +0.000 C 
ATOM     15  C   UNL     1       5.425   5.061  15.202  0.00  0.00    +0.000 C 
ATOM     16  C   UNL     1       5.577   6.427  15.886  0.00  0.00    +0.000 C 
ATOM     17  C   UNL     1       4.367   6.735  16.772  0.00  0.00    +0.000 C 
ENDROOT
BRANCH   1  18
ATOM     18  C   UNL     1       1.159   9.832  19.744  0.00  0.00    +0.000 C 
BRANCH  18  20
ATOM     19  N   UNL     1      -1.045  10.523  18.861  0.00  0.00    +0.000 N 
ATOM     20  C   UNL     1       0.165   9.897  18.584  0.00  0.00    +0.000 C 
ATOM     21  O   UNL     1       0.504   9.449  17.488  0.00  0.00    +0.000 OA
ATOM     22  H   UNL     1      -1.115  10.961  19.782  0.00  0.00    +0.000 HD
BRANCH  19  25
ATOM     23  C   UNL     1      -4.375  11.475  17.462  0.00  0.00    +0.000 A 
ATOM     24  C   UNL     1      -3.345  11.231  18.373  0.00  0.00    +0.000 A 
ATOM     25  C   UNL     1      -2.137  10.670  17.969  0.00  0.00    +0.000 A 
ATOM     26  C   UNL     1      -1.986  10.302  16.623  0.00  0.00    +0.000 A 
ATOM     27  C   UNL     1      -3.014  10.541  15.699  0.00  0.00    +0.000 A 
ATOM     28  C   UNL     1      -4.202  11.135  16.119  0.00  0.00    +0.000 A 
BRANCH  23  30
ATOM     29  C   UNL     1      -6.622  11.263  18.210  0.00  0.00    +0.000 C 
ATOM     30  O   UNL     1      -5.484  12.086  17.982  0.00  0.00    +0.000 OA
ENDBRANCH  23  30
BRANCH  27  31
ATOM     31  O   UNL     1      -2.719  10.175  14.413  0.00  0.00    +0.000 OA
ATOM     32  C   UNL     1      -3.810   9.975  13.523  0.00  0.00    +0.000 C 
ENDBRANCH  27  31
ENDBRANCH  19  25
ENDBRANCH  18  20
ENDBRANCH   1  18
TORSDOF 5
ENDMDL
MODEL 4
REMARK VINA RESULT:      -7.9      3.783      9.336
REMARK  Name = 
REMARK  7 active torsions:
REMARK  status: ('A' for Active; 'I' for Inactive)
REMARK    1  A    between atoms: C_1  and  O_2
REMARK    2  A    between atoms: O_2  and  C_3
REMARK    3  A    between atoms: C_5  and  N_6
REMARK    4  A    between atoms: C_7  and  C_9
REMARK    5  A    between atoms: C_9  and  N_10
REMARK    6  A    between atoms: C_28  and  O_29
REMARK    7  A    between atoms: O_29  and  C_30
REMARK                            x       y       z     vdW  Elec       q    Type
REMARK                         _______ _______ _______ _____ _____    ______ ____
ROOT
ATOM      1  N   UNL     1       0.490  10.274  19.579  0.00  0.00    +0.000 N 
ATOM      2  N   UNL     1      -0.793  10.521  19.125  0.00  0.00    +0.000 NA
ATOM      3  C   UNL     1      -1.294  11.278  20.050  0.00  0.00    +0.000 A 
ATOM      4  C   UNL     1      -2.586  11.884  20.045  0.00  0.00    +0.000 A 
ATOM      5  C   UNL     1      -3.594  11.909  19.044  0.00  0.00    +0.000 A 
ATOM      6  C   UNL     1      -4.672  12.671  19.454  0.00  0.00    +0.000 A 
ATOM      7  S   UNL     1      -4.452  13.337  21.011  0.00  0.00    +0.000 S 
ATOM      8  C   UNL     1      -2.897  12.644  21.158  0.00  0.00    +0.000 A 
ATOM      9  N   UNL     1      -2.088  12.872  22.240  0.00  0.00    +0.000 NA
ATOM     10  C   UNL     1      -0.910  12.327  22.160  0.00  0.00    +0.000 A 
ATOM     11  N   UNL     1      -0.492  11.543  21.102  0.00  0.00    +0.000 N 
ATOM     12  C   UNL     1       0.716  10.944  20.799  0.00  0.00    +0.000 A 
ATOM     13  O   UNL     1       1.771  11.031  21.416  0.00  0.00    +0.000 OA
ATOM     14  C   UNL     1      -5.922  12.885  18.654  0.00  0.00    +0.000 C 
ATOM     15  C   UNL     1      -5.698  12.480  17.185  0.00  0.00    +0.000 C 
ATOM     16  C   UNL     1      -4.930  11.156  17.072  0.00  0.00    +0.000 C 
ATOM     17  C   UNL     1      -3.533  11.276  17.689  0.00  0.00    +0.000 C 
ENDROOT
BRANCH   1  18
ATOM     18  C   UNL     1       1.504   9.751  18.693  0.00  0.00    +0.000 C 
BRANCH  18  20
ATOM     19  N   UNL     1       2.568   7.623  18.017  0.00  0.00    +0.000 N 
ATOM     20  C   UNL     1       1.940   8.327  19.038  0.00  0.00    +0.000 C 
ATOM     21  O   UNL     1       1.760   7.915  20.186  0.00  0.00    +0.000 OA
ATOM     22  H   UNL     1       2.760   8.158  17.167  0.00  0.00    +0.000 HD
BRANCH  19  25
ATOM     23  C   UNL     1       4.746   4.642  18.579  0.00  0.00    +0.000 A 
ATOM     24  C   UNL     1       4.335   5.966  18.411  0.00  0.00    +0.000 A 
ATOM     25  C   UNL     1       3.022   6.282  18.078  0.00  0.00    +0.000 A 
ATOM     26  C   UNL     1       2.115   5.233  17.860  0.00  0.00    +0.000 A 
ATOM     27  C   UNL     1       2.515   3.900  18.025  0.00  0.00    +0.000 A 
ATOM     28  C   UNL     1       3.826   3.607  18.393  0.00  0.00    +0.000 A 
BRANCH  23  30
ATOM     29  C   UNL     1       7.048   4.846  18.025  0.00  0.00    +0.000 C 
ATOM     30  O   UNL     1       6.048   4.476  18.967  0.00  0.00    +0.000 OA
ENDBRANCH  23  30
BRANCH  27  31
ATOM     31  O   UNL     1       1.522   2.979  17.826  0.00  0.00    +0.000 OA
ATOM     32  C   UNL     1       0.792   2.546  18.968  0.00  0.00    +0.000 C 
ENDBRANCH  27  31
ENDBRANCH  19  25
ENDBRANCH  18  20
ENDBRANCH   1  18
TORSDOF 5
ENDMDL
MODEL 5
REMARK VINA RESULT:      -7.9      3.817      9.292
REMARK  Name = 
REMARK  7 active torsions:
REMARK  status: ('A' for Active; 'I' for Inactive)
REMARK    1  A    between atoms: C_1  and  O_2
REMARK    2  A    between atoms: O_2  and  C_3
REMARK    3  A    between atoms: C_5  and  N_6
REMARK    4  A    between atoms: C_7  and  C_9
REMARK    5  A    between atoms: C_9  and  N_10
REMARK    6  A    between atoms: C_28  and  O_29
REMARK    7  A    between atoms: O_29  and  C_30
REMARK                            x       y       z     vdW  Elec       q    Type
REMARK                         _______ _______ _______ _____ _____    ______ ____
ROOT
ATOM      1  N   UNL     1       0.436  10.307  19.641  0.00  0.00    +0.000 N 
ATOM      2  N   UNL     1      -0.850  10.543  19.191  0.00  0.00    +0.000 NA
ATOM      3  C   UNL     1      -1.329  11.360  20.076  0.00  0.00    +0.000 A 
ATOM      4  C   UNL     1      -2.613  11.981  20.053  0.00  0.00    +0.000 A 
ATOM      5  C   UNL     1      -3.635  11.959  19.067  0.00  0.00    +0.000 A 
ATOM      6  C   UNL     1      -4.698  12.757  19.445  0.00  0.00    +0.000 A 
ATOM      7  S   UNL     1      -4.448  13.512  20.956  0.00  0.00    +0.000 S 
ATOM      8  C   UNL     1      -2.899  12.809  21.123  0.00  0.00    +0.000 A 
ATOM      9  N   UNL     1      -2.072  13.091  22.177  0.00  0.00    +0.000 NA
ATOM     10  C   UNL     1      -0.901  12.528  22.114  0.00  0.00    +0.000 A 
ATOM     11  N   UNL     1      -0.508  11.677  21.099  0.00  0.00    +0.000 N 
ATOM     12  C   UNL     1       0.688  11.046  20.815  0.00  0.00    +0.000 A 
ATOM     13  O   UNL     1       1.754  11.157  21.411  0.00  0.00    +0.000 OA
ATOM     14  C   UNL     1      -5.958  12.938  18.651  0.00  0.00    +0.000 C 
ATOM     15  C   UNL     1      -5.760  12.444  17.206  0.00  0.00    +0.000 C 
ATOM     16  C   UNL     1      -5.009  11.106  17.162  0.00  0.00    +0.000 C 
ATOM     17  C   UNL     1      -3.602  11.245  17.751  0.00  0.00    +0.000 C 
ENDROOT
BRANCH   1  18
ATOM     18  C   UNL     1       1.431   9.721  18.773  0.00  0.00    +0.000 C 
BRANCH  18  20
ATOM     19  N   UNL     1       2.487   7.556  18.210  0.00  0.00    +0.000 N 
ATOM     20  C   UNL     1       1.843   8.307  19.187  0.00  0.00    +0.000 C 
ATOM     21  O   UNL     1       1.630   7.943  20.345  0.00  0.00    +0.000 OA
ATOM     22  H   UNL     1       2.707   8.053  17.345  0.00  0.00    +0.000 HD
BRANCH  19  25
ATOM     23  C   UNL     1       2.553   3.823  18.085  0.00  0.00    +0.000 A 
ATOM     24  C   UNL     1       2.083   5.139  18.067  0.00  0.00    +0.000 A 
ATOM     25  C   UNL     1       2.924   6.214  18.337  0.00  0.00    +0.000 A 
ATOM     26  C   UNL     1       4.259   5.949  18.683  0.00  0.00    +0.000 A 
ATOM     27  C   UNL     1       4.742   4.633  18.706  0.00  0.00    +0.000 A 
ATOM     28  C   UNL     1       3.891   3.575  18.398  0.00  0.00    +0.000 A 
BRANCH  23  30
ATOM     29  C   UNL     1       0.749   2.432  18.764  0.00  0.00    +0.000 C 
ATOM     30  O   UNL     1       1.635   2.869  17.740  0.00  0.00    +0.000 OA
ENDBRANCH  23  30
BRANCH  27  31
ATOM     31  O   UNL     1       6.071   4.521  19.015  0.00  0.00    +0.000 OA
ATOM     32  C   UNL     1       6.860   5.703  18.957  0.00  0.00    +0.000 C 
ENDBRANCH  27  31
ENDBRANCH  19  25
ENDBRANCH  18  20
ENDBRANCH   1  18
TORSDOF 5
ENDMDL
MODEL 6
REMARK VINA RESULT:      -7.9      1.782      3.835
REMARK  Name = 
REMARK  7 active torsions:
REMARK  status: ('A' for Active; 'I' for Inactive)
REMARK    1  A    between atoms: C_1  and  O_2
REMARK    2  A    between atoms: O_2  and  C_3
REMARK    3  A    between atoms: C_5  and  N_6
REMARK    4  A    between atoms: C_7  and  C_9
REMARK    5  A    between atoms: C_9  and  N_10
REMARK    6  A    between atoms: C_28  and  O_29
REMARK    7  A    between atoms: O_29  and  C_30
REMARK                            x       y       z     vdW  Elec       q    Type
REMARK                         _______ _______ _______ _____ _____    ______ ____
ROOT
ATOM      1  N   UNL     1       1.688   8.379  20.147  0.00  0.00    +0.000 N 
ATOM      2  N   UNL     1       2.590   7.822  19.259  0.00  0.00    +0.000 NA
ATOM      3  C   UNL     1       2.465   6.549  19.468  0.00  0.00    +0.000 A 
ATOM      4  C   UNL     1       3.124   5.502  18.758  0.00  0.00    +0.000 A 
ATOM      5  C   UNL     1       3.981   5.546  17.627  0.00  0.00    +0.000 A 
ATOM      6  C   UNL     1       4.348   4.271  17.240  0.00  0.00    +0.000 A 
ATOM      7  S   UNL     1       3.659   3.061  18.227  0.00  0.00    +0.000 S 
ATOM      8  C   UNL     1       2.832   4.216  19.177  0.00  0.00    +0.000 A 
ATOM      9  N   UNL     1       1.975   3.863  20.184  0.00  0.00    +0.000 NA
ATOM     10  C   UNL     1       1.374   4.863  20.760  0.00  0.00    +0.000 A 
ATOM     11  N   UNL     1       1.591   6.187  20.431  0.00  0.00    +0.000 N 
ATOM     12  C   UNL     1       1.016   7.367  20.863  0.00  0.00    +0.000 A 
ATOM     13  O   UNL     1       0.080   7.502  21.644  0.00  0.00    +0.000 OA
ATOM     14  C   UNL     1       5.270   3.955  16.099  0.00  0.00    +0.000 C 
ATOM     15  C   UNL     1       5.442   5.184  15.188  0.00  0.00    +0.000 C 
ATOM     16  C   UNL     1       5.640   6.471  16.002  0.00  0.00    +0.000 C 
ATOM     17  C   UNL     1       4.413   6.765  16.871  0.00  0.00    +0.000 C 
ENDROOT
BRANCH   1  18
ATOM     18  C   UNL     1       1.261   9.752  20.010  0.00  0.00    +0.000 C 
BRANCH  18  20
ATOM     19  N   UNL     1      -0.925  10.448  19.085  0.00  0.00    +0.000 N 
ATOM     20  C   UNL     1       0.357   9.991  18.800  0.00  0.00    +0.000 C 
ATOM     21  O   UNL     1       0.820   9.817  17.671  0.00  0.00    +0.000 OA
ATOM     22  H   UNL     1      -1.105  10.669  20.066  0.00  0.00    +0.000 HD
BRANCH  19  25
ATOM     23  C   UNL     1      -2.970  10.359  15.961  0.00  0.00    +0.000 A 
ATOM     24  C   UNL     1      -1.901  10.200  16.847  0.00  0.00    +0.000 A 
ATOM     25  C   UNL     1      -1.953  10.701  18.144  0.00  0.00    +0.000 A 
ATOM     26  C   UNL     1      -3.091  11.422  18.538  0.00  0.00    +0.000 A 
ATOM     27  C   UNL     1      -4.170  11.589  17.658  0.00  0.00    +0.000 A 
ATOM     28  C   UNL     1      -4.111  11.049  16.376  0.00  0.00    +0.000 A 
BRANCH  23  30
ATOM     29  C   UNL     1      -3.855   9.959  13.792  0.00  0.00    +0.000 C 
ATOM     30  O   UNL     1      -2.811   9.764  14.739  0.00  0.00    +0.000 OA
ENDBRANCH  23  30
BRANCH  27  31
ATOM     31  O   UNL     1      -5.233  12.272  18.185  0.00  0.00    +0.000 OA
ATOM     32  C   UNL     1      -5.338  12.329  19.603  0.00  0.00    +0.000 C 
ENDBRANCH  27  31
ENDBRANCH  19  25
ENDBRANCH  18  20
ENDBRANCH   1  18
TORSDOF 5
ENDMDL
MODEL 7
REMARK VINA RESULT:      -7.8      6.903      9.216
REMARK  Name = 
REMARK  7 active torsions:
REMARK  status: ('A' for Active; 'I' for Inactive)
REMARK    1  A    between atoms: C_1  and  O_2
REMARK    2  A    between atoms: O_2  and  C_3
REMARK    3  A    between atoms: C_5  and  N_6
REMARK    4  A    between atoms: C_7  and  C_9
REMARK    5  A    between atoms: C_9  and  N_10
REMARK    6  A    between atoms: C_28  and  O_29
REMARK    7  A    between atoms: O_29  and  C_30
REMARK                            x       y       z     vdW  Elec       q    Type
REMARK                         _______ _______ _______ _____ _____    ______ ____
ROOT
ATOM      1  N   UNL     1       6.929   6.373  17.914  0.00  0.00    +0.000 N 
ATOM      2  N   UNL     1       5.821   5.911  18.601  0.00  0.00    +0.000 NA
ATOM      3  C   UNL     1       5.210   5.182  17.720  0.00  0.00    +0.000 A 
ATOM      4  C   UNL     1       4.031   4.406  17.929  0.00  0.00    +0.000 A 
ATOM      5  C   UNL     1       3.288   4.149  19.113  0.00  0.00    +0.000 A 
ATOM      6  C   UNL     1       2.238   3.289  18.855  0.00  0.00    +0.000 A 
ATOM      7  S   UNL     1       2.169   2.807  17.219  0.00  0.00    +0.000 S 
ATOM      8  C   UNL     1       3.561   3.718  16.825  0.00  0.00    +0.000 A 
ATOM      9  N   UNL     1       4.121   3.705  15.575  0.00  0.00    +0.000 NA
ATOM     10  C   UNL     1       5.217   4.397  15.465  0.00  0.00    +0.000 A 
ATOM     11  N   UNL     1       5.775   5.128  16.495  0.00  0.00    +0.000 N 
ATOM     12  C   UNL     1       6.944   5.857  16.602  0.00  0.00    +0.000 A 
ATOM     13  O   UNL     1       7.833   5.973  15.766  0.00  0.00    +0.000 OA
ATOM     14  C   UNL     1       1.237   2.832  19.874  0.00  0.00    +0.000 C 
ATOM     15  C   UNL     1       1.744   3.124  21.298  0.00  0.00    +0.000 C 
ATOM     16  C   UNL     1       2.363   4.525  21.403  0.00  0.00    +0.000 C 
ATOM     17  C   UNL     1       3.586   4.656  20.490  0.00  0.00    +0.000 C 
ENDROOT
BRANCH   1  18
ATOM     18  C   UNL     1       8.054   6.944  18.618  0.00  0.00    +0.000 C 
BRANCH  18  20
ATOM     19  N   UNL     1       9.116   9.086  19.253  0.00  0.00    +0.000 N 
ATOM     20  C   UNL     1       8.177   8.459  18.442  0.00  0.00    +0.000 C 
ATOM     21  O   UNL     1       7.491   9.012  17.581  0.00  0.00    +0.000 OA
ATOM     22  H   UNL     1       9.697   8.463  19.818  0.00  0.00    +0.000 HD
BRANCH  19  25
ATOM     23  C   UNL     1       9.720  12.531  20.563  0.00  0.00    +0.000 A 
ATOM     24  C   UNL     1       9.347  11.186  20.502  0.00  0.00    +0.000 A 
ATOM     25  C   UNL     1       9.383  10.476  19.306  0.00  0.00    +0.000 A 
ATOM     26  C   UNL     1       9.756  11.155  18.135  0.00  0.00    +0.000 A 
ATOM     27  C   UNL     1      10.133  12.505  18.183  0.00  0.00    +0.000 A 
ATOM     28  C   UNL     1      10.122  13.187  19.397  0.00  0.00    +0.000 A 
BRANCH  23  30
ATOM     29  C   UNL     1       8.535  12.854  22.598  0.00  0.00    +0.000 C 
ATOM     30  O   UNL     1       9.697  13.090  21.812  0.00  0.00    +0.000 OA
ENDBRANCH  23  30
BRANCH  27  31
ATOM     31  O   UNL     1      10.517  13.031  16.979  0.00  0.00    +0.000 OA
ATOM     32  C   UNL     1      11.897  13.333  16.807  0.00  0.00    +0.000 C 
ENDBRANCH  27  31
ENDBRANCH  19  25
ENDBRANCH  18  20
ENDBRANCH   1  18
TORSDOF 5
ENDMDL
MODEL 8
REMARK VINA RESULT:      -7.8      1.875      3.848
REMARK  Name = 
REMARK  7 active torsions:
REMARK  status: ('A' for Active; 'I' for Inactive)
REMARK    1  A    between atoms: C_1  and  O_2
REMARK    2  A    between atoms: O_2  and  C_3
REMARK    3  A    between atoms: C_5  and  N_6
REMARK    4  A    between atoms: C_7  and  C_9
REMARK    5  A    between atoms: C_9  and  N_10
REMARK    6  A    between atoms: C_28  and  O_29
REMARK    7  A    between atoms: O_29  and  C_30
REMARK                            x       y       z     vdW  Elec       q    Type
REMARK                         _______ _______ _______ _____ _____    ______ ____
ROOT
ATOM      1  N   UNL     1       2.034   8.964  19.059  0.00  0.00    +0.000 N 
ATOM      2  N   UNL     1       2.898   8.198  18.298  0.00  0.00    +0.000 NA
ATOM      3  C   UNL     1       2.864   7.043  18.886  0.00  0.00    +0.000 A 
ATOM      4  C   UNL     1       3.530   5.854  18.462  0.00  0.00    +0.000 A 
ATOM      5  C   UNL     1       4.294   5.585  17.295  0.00  0.00    +0.000 A 
ATOM      6  C   UNL     1       4.706   4.266  17.272  0.00  0.00    +0.000 A 
ATOM      7  S   UNL     1       4.167   3.386  18.631  0.00  0.00    +0.000 S 
ATOM      8  C   UNL     1       3.347   4.744  19.267  0.00  0.00    +0.000 A 
ATOM      9  N   UNL     1       2.591   4.681  20.407  0.00  0.00    +0.000 NA
ATOM     10  C   UNL     1       1.977   5.787  20.712  0.00  0.00    +0.000 A 
ATOM     11  N   UNL     1       2.090   6.957  19.988  0.00  0.00    +0.000 N 
ATOM     12  C   UNL     1       1.480   8.192  20.100  0.00  0.00    +0.000 A 
ATOM     13  O   UNL     1       0.600   8.524  20.887  0.00  0.00    +0.000 OA
ATOM     14  C   UNL     1       5.555   3.654  16.198  0.00  0.00    +0.000 C 
ATOM     15  C   UNL     1       5.584   4.558  14.952  0.00  0.00    +0.000 C 
ATOM     16  C   UNL     1       5.766   6.035  15.327  0.00  0.00    +0.000 C 
ATOM     17  C   UNL     1       4.594   6.535  16.177  0.00  0.00    +0.000 C 
ENDROOT
BRANCH   1  18
ATOM     18  C   UNL     1       1.518  10.218  18.560  0.00  0.00    +0.000 C 
BRANCH  18  20
ATOM     19  N   UNL     1      -0.733  11.194  18.241  0.00  0.00    +0.000 N 
ATOM     20  C   UNL     1       0.102  10.110  17.991  0.00  0.00    +0.000 C 
ATOM     21  O   UNL     1      -0.192   9.119  17.321  0.00  0.00    +0.000 OA
ATOM     22  H   UNL     1      -0.291  11.994  18.697  0.00  0.00    +0.000 HD
BRANCH  19  25
ATOM     23  C   UNL     1      -3.881  10.987  16.242  0.00  0.00    +0.000 A 
ATOM     24  C   UNL     1      -2.525  10.976  16.578  0.00  0.00    +0.000 A 
ATOM     25  C   UNL     1      -2.092  11.311  17.857  0.00  0.00    +0.000 A 
ATOM     26  C   UNL     1      -3.047  11.714  18.804  0.00  0.00    +0.000 A 
ATOM     27  C   UNL     1      -4.410  11.730  18.478  0.00  0.00    +0.000 A 
ATOM     28  C   UNL     1      -4.825  11.358  17.202  0.00  0.00    +0.000 A 
BRANCH  23  30
ATOM     29  C   UNL     1      -3.093  10.061  14.199  0.00  0.00    +0.000 C 
ATOM     30  O   UNL     1      -4.173  10.577  14.969  0.00  0.00    +0.000 OA
ENDBRANCH  23  30
BRANCH  27  31
ATOM     31  O   UNL     1      -5.236  12.100  19.506  0.00  0.00    +0.000 OA
ATOM     32  C   UNL     1      -4.927  13.307  20.193  0.00  0.00    +0.000 C 
ENDBRANCH  27  31
ENDBRANCH  19  25
ENDBRANCH  18  20
ENDBRANCH   1  18
TORSDOF 5
ENDMDL
MODEL 9
REMARK VINA RESULT:      -7.7      6.879      9.349
REMARK  Name = 
REMARK  7 active torsions:
REMARK  status: ('A' for Active; 'I' for Inactive)
REMARK    1  A    between atoms: C_1  and  O_2
REMARK    2  A    between atoms: O_2  and  C_3
REMARK    3  A    between atoms: C_5  and  N_6
REMARK    4  A    between atoms: C_7  and  C_9
REMARK    5  A    between atoms: C_9  and  N_10
REMARK    6  A    between atoms: C_28  and  O_29
REMARK    7  A    between atoms: O_29  and  C_30
REMARK                            x       y       z     vdW  Elec       q    Type
REMARK                         _______ _______ _______ _____ _____    ______ ____
ROOT
ATOM      1  N   UNL     1       6.936   6.341  17.908  0.00  0.00    +0.000 N 
ATOM      2  N   UNL     1       5.819   5.903  18.595  0.00  0.00    +0.000 NA
ATOM      3  C   UNL     1       5.194   5.184  17.715  0.00  0.00    +0.000 A 
ATOM      4  C   UNL     1       4.000   4.432  17.925  0.00  0.00    +0.000 A 
ATOM      5  C   UNL     1       3.251   4.193  19.108  0.00  0.00    +0.000 A 
ATOM      6  C   UNL     1       2.185   3.352  18.851  0.00  0.00    +0.000 A 
ATOM      7  S   UNL     1       2.108   2.869  17.215  0.00  0.00    +0.000 S 
ATOM      8  C   UNL     1       3.517   3.751  16.821  0.00  0.00    +0.000 A 
ATOM      9  N   UNL     1       4.078   3.725  15.572  0.00  0.00    +0.000 NA
ATOM     10  C   UNL     1       5.187   4.395  15.462  0.00  0.00    +0.000 A 
ATOM     11  N   UNL     1       5.759   5.117  16.491  0.00  0.00    +0.000 N 
ATOM     12  C   UNL     1       6.942   5.823  16.597  0.00  0.00    +0.000 A 
ATOM     13  O   UNL     1       7.834   5.919  15.761  0.00  0.00    +0.000 OA
ATOM     14  C   UNL     1       1.174   2.917  19.870  0.00  0.00    +0.000 C 
ATOM     15  C   UNL     1       1.685   3.203  21.294  0.00  0.00    +0.000 C 
ATOM     16  C   UNL     1       2.331   4.591  21.397  0.00  0.00    +0.000 C 
ATOM     17  C   UNL     1       3.558   4.696  20.485  0.00  0.00    +0.000 C 
ENDROOT
BRANCH   1  18
ATOM     18  C   UNL     1       8.072   6.892  18.612  0.00  0.00    +0.000 C 
BRANCH  18  20
ATOM     19  N   UNL     1       9.139   9.017  19.291  0.00  0.00    +0.000 N 
ATOM     20  C   UNL     1       8.205   8.408  18.461  0.00  0.00    +0.000 C 
ATOM     21  O   UNL     1       7.531   8.979  17.602  0.00  0.00    +0.000 OA
ATOM     22  H   UNL     1       9.711   8.382  19.852  0.00  0.00    +0.000 HD
BRANCH  19  25
ATOM     23  C   UNL     1       9.882  12.543  18.306  0.00  0.00    +0.000 A 
ATOM     24  C   UNL     1       9.723  11.156  18.238  0.00  0.00    +0.000 A 
ATOM     25  C   UNL     1       9.414  10.405  19.368  0.00  0.00    +0.000 A 
ATOM     26  C   UNL     1       9.312  11.064  20.603  0.00  0.00    +0.000 A 
ATOM     27  C   UNL     1       9.470  12.455  20.684  0.00  0.00    +0.000 A 
ATOM     28  C   UNL     1       9.745  13.192  19.535  0.00  0.00    +0.000 A 
BRANCH  23  30
ATOM     29  C   UNL     1      11.483  13.284  16.714  0.00  0.00    +0.000 C 
ATOM     30  O   UNL     1      10.123  13.164  17.111  0.00  0.00    +0.000 OA
ENDBRANCH  23  30
BRANCH  27  31
ATOM     31  O   UNL     1       9.301  12.974  21.940  0.00  0.00    +0.000 OA
ATOM     32  C   UNL     1       8.193  12.505  22.699  0.00  0.00    +0.000 C 
ENDBRANCH  27  31
ENDBRANCH  19  25
ENDBRANCH  18  20
ENDBRANCH   1  18
TORSDOF 5
ENDMDL
