MODEL 1
REMARK VINA RESULT:      -8.7      0.000      0.000
REMARK  Name = 
REMARK  7 active torsions:
REMARK  status: ('A' for Active; 'I' for Inactive)
REMARK    1  A    between atoms: C_1  and  N_2
REMARK    2  A    between atoms: C_3  and  C_5
REMARK    3  A    between atoms: C_9  and  N_10
REMARK    4  A    between atoms: C_18  and  C_19
REMARK    5  A    between atoms: C_19  and  O_20
REMARK    6  A    between atoms: O_20  and  C_21
REMARK    7  A    between atoms: C_27  and  C_28
REMARK                            x       y       z     vdW  Elec       q    Type
REMARK                         _______ _______ _______ _____ _____    ______ ____
ROOT
ATOM      1  N   UNL     1       1.357   8.478  21.585  0.00  0.00    +0.000 N 
ATOM      2  C   UNL     1       1.777   8.009  20.336  0.00  0.00    +0.000 A 
ATOM      3  N   UNL     1       1.839   8.832  19.292  0.00  0.00    +0.000 NA
ATOM      4  C   UNL     1       2.131   8.270  18.132  0.00  0.00    +0.000 A 
ATOM      5  N   UNL     1       2.347   6.986  17.938  0.00  0.00    +0.000 NA
ATOM      6  C   UNL     1       2.284   6.232  19.032  0.00  0.00    +0.000 A 
ATOM      7  N   UNL     1       2.445   4.857  18.884  0.00  0.00    +0.000 N 
ATOM      8  C   UNL     1       2.921   3.924  19.843  0.00  0.00    +0.000 C 
ATOM      9  C   UNL     1       3.729   3.263  18.712  0.00  0.00    +0.000 C 
ATOM     10  C   UNL     1       2.922   4.140  17.750  0.00  0.00    +0.000 C 
ATOM     11  N   UNL     1       2.031   6.708  20.253  0.00  0.00    +0.000 NA
ATOM     12  H   UNL     1       1.254   7.693  22.213  0.00  0.00    +0.000 HD
ENDROOT
BRANCH   1  17
ATOM     13  C   UNL     1       0.035  11.979  21.557  0.00  0.00    +0.000 A 
ATOM     14  C   UNL     1      -0.968  11.882  22.522  0.00  0.00    +0.000 A 
ATOM     15  C   UNL     1      -1.187  10.667  23.172  0.00  0.00    +0.000 A 
ATOM     16  C   UNL     1      -0.403   9.552  22.862  0.00  0.00    +0.000 A 
ATOM     17  C   UNL     1       0.603   9.626  21.886  0.00  0.00    +0.000 A 
ATOM     18  C   UNL     1       0.821  10.861  21.264  0.00  0.00    +0.000 A 
BRANCH  13  21
ATOM     19  C   UNL     1      -0.606  15.145  19.582  0.00  0.00    +0.000 C 
ATOM     20  N   UNL     1      -0.778  13.891  20.272  0.00  0.00    +0.000 N 
ATOM     21  C   UNL     1       0.291  13.284  20.897  0.00  0.00    +0.000 C 
ATOM     22  O   UNL     1       1.417  13.777  20.939  0.00  0.00    +0.000 OA
ATOM     23  H   UNL     1      -1.710  13.508  20.366  0.00  0.00    +0.000 HD
ENDBRANCH  13  21
ENDBRANCH   1  17
BRANCH   9  24
ATOM     24  C   UNL     1       5.219   3.559  18.857  0.00  0.00    +0.000 C 
BRANCH  24  25
ATOM     25  O   UNL     1       5.742   4.053  17.626  0.00  0.00    +0.000 OA
BRANCH  25  26
ATOM     26  C   UNL     1       6.383   5.269  17.643  0.00  0.00    +0.000 A 
ATOM     27  C   UNL     1       7.356   5.359  18.656  0.00  0.00    +0.000 A 
ATOM     28  C   UNL     1       8.072   6.539  18.879  0.00  0.00    +0.000 A 
ATOM     29  C   UNL     1       7.816   7.652  18.093  0.00  0.00    +0.000 A 
ATOM     30 CL   UNL     1       8.665   9.123  18.366  0.00  0.00    +0.000 Cl
ATOM     31  C   UNL     1       6.857   7.586  17.088  0.00  0.00    +0.000 A 
ATOM     32  C   UNL     1       6.119   6.404  16.852  0.00  0.00    +0.000 A 
ATOM     33  C   UNL     1       5.082   6.488  15.769  0.00  0.00    +0.000 C 
ENDBRANCH  25  26
ENDBRANCH  24  25
ENDBRANCH   9  24
TORSDOF 5
ENDMDL
MODEL 2
REMARK VINA RESULT:      -8.2      4.068     10.419
REMARK  Name = 
REMARK  7 active torsions:
REMARK  status: ('A' for Active; 'I' for Inactive)
REMARK    1  A    between atoms: C_1  and  N_2
REMARK    2  A    between atoms: C_3  and  C_5
REMARK    3  A    between atoms: C_9  and  N_10
REMARK    4  A    between atoms: C_18  and  C_19
REMARK    5  A    between atoms: C_19  and  O_20
REMARK    6  A    between atoms: O_20  and  C_21
REMARK    7  A    between atoms: C_27  and  C_28
REMARK                            x       y       z     vdW  Elec       q    Type
REMARK                         _______ _______ _______ _____ _____    ______ ____
ROOT
ATOM      1  N   UNL     1       1.820   6.607  20.444  0.00  0.00    +0.000 N 
ATOM      2  C   UNL     1       1.671   7.795  19.720  0.00  0.00    +0.000 A 
ATOM      3  N   UNL     1       2.026   7.853  18.439  0.00  0.00    +0.000 NA
ATOM      4  C   UNL     1       1.960   9.047  17.876  0.00  0.00    +0.000 A 
ATOM      5  N   UNL     1       1.590  10.157  18.481  0.00  0.00    +0.000 NA
ATOM      6  C   UNL     1       1.234  10.013  19.755  0.00  0.00    +0.000 A 
ATOM      7  N   UNL     1       0.890  11.159  20.466  0.00  0.00    +0.000 N 
ATOM      8  C   UNL     1       0.027  11.265  21.590  0.00  0.00    +0.000 C 
ATOM      9  C   UNL     1      -0.554  12.539  20.951  0.00  0.00    +0.000 C 
ATOM     10  C   UNL     1       0.614  12.463  19.963  0.00  0.00    +0.000 C 
ATOM     11  N   UNL     1       1.233   8.846  20.402  0.00  0.00    +0.000 NA
ATOM     12  H   UNL     1       1.620   6.789  21.418  0.00  0.00    +0.000 HD
ENDROOT
BRANCH   1  17
ATOM     13  C   UNL     1       4.728   4.530  19.332  0.00  0.00    +0.000 A 
ATOM     14  C   UNL     1       4.274   3.253  19.668  0.00  0.00    +0.000 A 
ATOM     15  C   UNL     1       3.014   3.097  20.246  0.00  0.00    +0.000 A 
ATOM     16  C   UNL     1       2.208   4.213  20.487  0.00  0.00    +0.000 A 
ATOM     17  C   UNL     1       2.650   5.506  20.168  0.00  0.00    +0.000 A 
ATOM     18  C   UNL     1       3.907   5.637  19.566  0.00  0.00    +0.000 A 
BRANCH  13  21
ATOM     19  C   UNL     1       7.412   4.387  16.667  0.00  0.00    +0.000 C 
ATOM     20  N   UNL     1       6.153   4.294  17.363  0.00  0.00    +0.000 N 
ATOM     21  C   UNL     1       6.052   4.687  18.681  0.00  0.00    +0.000 C 
ATOM     22  O   UNL     1       6.991   5.164  19.316  0.00  0.00    +0.000 OA
ATOM     23  H   UNL     1       5.328   4.021  16.845  0.00  0.00    +0.000 HD
ENDBRANCH  13  21
ENDBRANCH   1  17
BRANCH   9  24
ATOM     24  C   UNL     1      -1.957  12.289  20.408  0.00  0.00    +0.000 C 
BRANCH  24  25
ATOM     25  O   UNL     1      -2.778  13.434  20.628  0.00  0.00    +0.000 OA
BRANCH  25  26
ATOM     26  C   UNL     1      -3.745  13.353  21.602  0.00  0.00    +0.000 A 
ATOM     27  C   UNL     1      -4.965  12.847  21.119  0.00  0.00    +0.000 A 
ATOM     28  C   UNL     1      -6.093  12.748  21.941  0.00  0.00    +0.000 A 
ATOM     29  C   UNL     1      -6.014  13.165  23.260  0.00  0.00    +0.000 A 
ATOM     30 CL   UNL     1      -7.394  13.078  24.283  0.00  0.00    +0.000 Cl
ATOM     31  C   UNL     1      -4.817  13.670  23.758  0.00  0.00    +0.000 A 
ATOM     32  C   UNL     1      -3.670  13.783  22.942  0.00  0.00    +0.000 A 
ATOM     33  C   UNL     1      -2.462  14.392  23.594  0.00  0.00    +0.000 C 
ENDBRANCH  25  26
ENDBRANCH  24  25
ENDBRANCH   9  24
TORSDOF 5
ENDMDL
MODEL 3
REMARK VINA RESULT:      -8.2      3.693      9.225
REMARK  Name = 
REMARK  7 active torsions:
REMARK  status: ('A' for Active; 'I' for Inactive)
REMARK    1  A    between atoms: C_1  and  N_2
REMARK    2  A    between atoms: C_3  and  C_5
REMARK    3  A    between atoms: C_9  and  N_10
REMARK    4  A    between atoms: C_18  and  C_19
REMARK    5  A    between atoms: C_19  and  O_20
REMARK    6  A    between atoms: O_20  and  C_21
REMARK    7  A    between atoms: C_27  and  C_28
REMARK                            x       y       z     vdW  Elec       q    Type
REMARK                         _______ _______ _______ _____ _____    ______ ____
ROOT
ATOM      1  N   UNL     1       1.881   6.609  20.498  0.00  0.00    +0.000 N 
ATOM      2  C   UNL     1       1.628   7.856  19.917  0.00  0.00    +0.000 A 
ATOM      3  N   UNL     1       1.933   8.081  18.642  0.00  0.00    +0.000 NA
ATOM      4  C   UNL     1       1.767   9.322  18.220  0.00  0.00    +0.000 A 
ATOM      5  N   UNL     1       1.347  10.330  18.957  0.00  0.00    +0.000 NA
ATOM      6  C   UNL     1       1.047  10.021  20.215  0.00  0.00    +0.000 A 
ATOM      7  N   UNL     1       0.653  11.054  21.061  0.00  0.00    +0.000 N 
ATOM      8  C   UNL     1      -0.174  10.974  22.213  0.00  0.00    +0.000 C 
ATOM      9  C   UNL     1      -0.860  12.267  21.740  0.00  0.00    +0.000 C 
ATOM     10  C   UNL     1       0.274  12.383  20.717  0.00  0.00    +0.000 C 
ATOM     11  N   UNL     1       1.146   8.792  20.727  0.00  0.00    +0.000 NA
ATOM     12  H   UNL     1       1.705   6.667  21.491  0.00  0.00    +0.000 HD
ENDROOT
BRANCH   1  17
ATOM     13  C   UNL     1       4.897   4.875  19.118  0.00  0.00    +0.000 A 
ATOM     14  C   UNL     1       4.520   3.540  19.276  0.00  0.00    +0.000 A 
ATOM     15  C   UNL     1       3.275   3.234  19.827  0.00  0.00    +0.000 A 
ATOM     16  C   UNL     1       2.407   4.258  20.216  0.00  0.00    +0.000 A 
ATOM     17  C   UNL     1       2.772   5.606  20.076  0.00  0.00    +0.000 A 
ATOM     18  C   UNL     1       4.015   5.890  19.499  0.00  0.00    +0.000 A 
BRANCH  13  21
ATOM     19  C   UNL     1       7.552   6.805  17.232  0.00  0.00    +0.000 C 
ATOM     20  N   UNL     1       6.324   6.428  17.886  0.00  0.00    +0.000 N 
ATOM     21  C   UNL     1       6.205   5.196  18.495  0.00  0.00    +0.000 C 
ATOM     22  O   UNL     1       7.124   4.380  18.552  0.00  0.00    +0.000 OA
ATOM     23  H   UNL     1       5.584   7.113  17.968  0.00  0.00    +0.000 HD
ENDBRANCH  13  21
ENDBRANCH   1  17
BRANCH   9  24
ATOM     24  C   UNL     1      -2.263  11.982  21.211  0.00  0.00    +0.000 C 
BRANCH  24  25
ATOM     25  O   UNL     1      -2.508  12.751  20.036  0.00  0.00    +0.000 OA
BRANCH  25  26
ATOM     26  C   UNL     1      -2.947  12.087  18.914  0.00  0.00    +0.000 A 
ATOM     27  C   UNL     1      -1.903  11.762  18.029  0.00  0.00    +0.000 A 
ATOM     28  C   UNL     1      -2.153  11.142  16.800  0.00  0.00    +0.000 A 
ATOM     29  C   UNL     1      -3.457  10.845  16.438  0.00  0.00    +0.000 A 
ATOM     30 CL   UNL     1      -3.792  10.106  14.921  0.00  0.00    +0.000 Cl
ATOM     31  C   UNL     1      -4.505  11.159  17.298  0.00  0.00    +0.000 A 
ATOM     32  C   UNL     1      -4.273  11.791  18.540  0.00  0.00    +0.000 A 
ATOM     33  C   UNL     1      -5.498  12.118  19.345  0.00  0.00    +0.000 C 
ENDBRANCH  25  26
ENDBRANCH  24  25
ENDBRANCH   9  24
TORSDOF 5
ENDMDL
MODEL 4
REMARK VINA RESULT:      -8.2      1.572      1.577
REMARK  Name = 
REMARK  7 active torsions:
REMARK  status: ('A' for Active; 'I' for Inactive)
REMARK    1  A    between atoms: C_1  and  N_2
REMARK    2  A    between atoms: C_3  and  C_5
REMARK    3  A    between atoms: C_9  and  N_10
REMARK    4  A    between atoms: C_18  and  C_19
REMARK    5  A    between atoms: C_19  and  O_20
REMARK    6  A    between atoms: O_20  and  C_21
REMARK    7  A    between atoms: C_27  and  C_28
REMARK                            x       y       z     vdW  Elec       q    Type
REMARK                         _______ _______ _______ _____ _____    ______ ____
ROOT
ATOM      1  N   UNL     1       1.080   8.486  21.218  0.00  0.00    +0.000 N 
ATOM      2  C   UNL     1       1.686   7.979  20.064  0.00  0.00    +0.000 A 
ATOM      3  N   UNL     1       1.825   8.744  18.984  0.00  0.00    +0.000 NA
ATOM      4  C   UNL     1       2.300   8.141  17.909  0.00  0.00    +0.000 A 
ATOM      5  N   UNL     1       2.623   6.867  17.827  0.00  0.00    +0.000 NA
ATOM      6  C   UNL     1       2.471   6.174  18.953  0.00  0.00    +0.000 A 
ATOM      7  N   UNL     1       2.740   4.808  18.915  0.00  0.00    +0.000 N 
ATOM      8  C   UNL     1       3.150   3.968  19.985  0.00  0.00    +0.000 C 
ATOM      9  C   UNL     1       4.138   3.306  19.009  0.00  0.00    +0.000 C 
ATOM     10  C   UNL     1       3.405   4.065  17.899  0.00  0.00    +0.000 C 
ATOM     11  N   UNL     1       2.033   6.698  20.099  0.00  0.00    +0.000 NA
ATOM     12  H   UNL     1       0.949   7.733  21.879  0.00  0.00    +0.000 HD
ENDROOT
BRANCH   1  17
ATOM     13  C   UNL     1      -1.304  11.258  20.414  0.00  0.00    +0.000 A 
ATOM     14  C   UNL     1      -1.516  11.790  21.687  0.00  0.00    +0.000 A 
ATOM     15  C   UNL     1      -0.864  11.233  22.787  0.00  0.00    +0.000 A 
ATOM     16  C   UNL     1       0.000  10.148  22.617  0.00  0.00    +0.000 A 
ATOM     17  C   UNL     1       0.219   9.591  21.348  0.00  0.00    +0.000 A 
ATOM     18  C   UNL     1      -0.427  10.181  20.255  0.00  0.00    +0.000 A 
BRANCH  13  21
ATOM     19  C   UNL     1      -3.739  11.739  17.556  0.00  0.00    +0.000 C 
ATOM     20  N   UNL     1      -3.057  11.218  18.714  0.00  0.00    +0.000 N 
ATOM     21  C   UNL     1      -1.968  11.879  19.242  0.00  0.00    +0.000 C 
ATOM     22  O   UNL     1      -1.546  12.945  18.796  0.00  0.00    +0.000 OA
ATOM     23  H   UNL     1      -3.442  10.409  19.185  0.00  0.00    +0.000 HD
ENDBRANCH  13  21
ENDBRANCH   1  17
BRANCH   9  24
ATOM     24  C   UNL     1       5.574   3.718  19.317  0.00  0.00    +0.000 C 
BRANCH  24  25
ATOM     25  O   UNL     1       6.274   3.998  18.107  0.00  0.00    +0.000 OA
BRANCH  25  26
ATOM     26  C   UNL     1       6.768   5.269  17.931  0.00  0.00    +0.000 A 
ATOM     27  C   UNL     1       7.677   5.645  18.936  0.00  0.00    +0.000 A 
ATOM     28  C   UNL     1       8.242   6.925  18.971  0.00  0.00    +0.000 A 
ATOM     29  C   UNL     1       7.894   7.850  18.000  0.00  0.00    +0.000 A 
ATOM     30 CL   UNL     1       8.554   9.439  18.037  0.00  0.00    +0.000 Cl
ATOM     31  C   UNL     1       6.996   7.500  16.997  0.00  0.00    +0.000 A 
ATOM     32  C   UNL     1       6.411   6.215  16.949  0.00  0.00    +0.000 A 
ATOM     33  C   UNL     1       5.421   5.989  15.843  0.00  0.00    +0.000 C 
ENDBRANCH  25  26
ENDBRANCH  24  25
ENDBRANCH   9  24
TORSDOF 5
ENDMDL
MODEL 5
REMARK VINA RESULT:      -8.2      4.916      7.460
REMARK  Name = 
REMARK  7 active torsions:
REMARK  status: ('A' for Active; 'I' for Inactive)
REMARK    1  A    between atoms: C_1  and  N_2
REMARK    2  A    between atoms: C_3  and  C_5
REMARK    3  A    between atoms: C_9  and  N_10
REMARK    4  A    between atoms: C_18  and  C_19
REMARK    5  A    between atoms: C_19  and  O_20
REMARK    6  A    between atoms: O_20  and  C_21
REMARK    7  A    between atoms: C_27  and  C_28
REMARK                            x       y       z     vdW  Elec       q    Type
REMARK                         _______ _______ _______ _____ _____    ______ ____
ROOT
ATOM      1  N   UNL     1       8.038   9.435  17.799  0.00  0.00    +0.000 N 
ATOM      2  C   UNL     1       7.899   8.059  18.004  0.00  0.00    +0.000 A 
ATOM      3  N   UNL     1       8.388   7.487  19.101  0.00  0.00    +0.000 NA
ATOM      4  C   UNL     1       8.312   6.168  19.146  0.00  0.00    +0.000 A 
ATOM      5  N   UNL     1       7.812   5.399  18.202  0.00  0.00    +0.000 NA
ATOM      6  C   UNL     1       7.327   6.046  17.146  0.00  0.00    +0.000 A 
ATOM      7  N   UNL     1       6.838   5.287  16.087  0.00  0.00    +0.000 N 
ATOM      8  C   UNL     1       5.852   5.651  15.131  0.00  0.00    +0.000 C 
ATOM      9  C   UNL     1       5.269   4.234  15.278  0.00  0.00    +0.000 C 
ATOM     10  C   UNL     1       6.541   3.894  16.060  0.00  0.00    +0.000 C 
ATOM     11  N   UNL     1       7.325   7.375  17.020  0.00  0.00    +0.000 NA
ATOM     12  H   UNL     1       7.722   9.663  16.867  0.00  0.00    +0.000 HD
ENDROOT
BRANCH   1  17
ATOM     13  C   UNL     1       9.721  11.733  20.228  0.00  0.00    +0.000 A 
ATOM     14  C   UNL     1      10.863  12.079  19.504  0.00  0.00    +0.000 A 
ATOM     15  C   UNL     1      11.055  11.557  18.224  0.00  0.00    +0.000 A 
ATOM     16  C   UNL     1      10.108  10.693  17.668  0.00  0.00    +0.000 A 
ATOM     17  C   UNL     1       8.959  10.323  18.384  0.00  0.00    +0.000 A 
ATOM     18  C   UNL     1       8.774  10.878  19.655  0.00  0.00    +0.000 A 
BRANCH  13  21
ATOM     19  C   UNL     1       8.520  12.072  23.802  0.00  0.00    +0.000 C 
ATOM     20  N   UNL     1       8.802  11.560  22.484  0.00  0.00    +0.000 N 
ATOM     21  C   UNL     1       9.501  12.322  21.572  0.00  0.00    +0.000 C 
ATOM     22  O   UNL     1       9.950  13.438  21.829  0.00  0.00    +0.000 OA
ATOM     23  H   UNL     1       8.557  10.602  22.270  0.00  0.00    +0.000 HD
ENDBRANCH  13  21
ENDBRANCH   1  17
BRANCH   9  24
ATOM     24  C   UNL     1       3.952   4.260  16.046  0.00  0.00    +0.000 C 
BRANCH  24  25
ATOM     25  O   UNL     1       4.192   4.055  17.437  0.00  0.00    +0.000 OA
BRANCH  25  26
ATOM     26  C   UNL     1       3.456   4.796  18.332  0.00  0.00    +0.000 A 
ATOM     27  C   UNL     1       3.334   6.146  17.953  0.00  0.00    +0.000 A 
ATOM     28  C   UNL     1       2.677   7.076  18.764  0.00  0.00    +0.000 A 
ATOM     29  C   UNL     1       2.138   6.667  19.974  0.00  0.00    +0.000 A 
ATOM     30 CL   UNL     1       1.348   7.799  21.001  0.00  0.00    +0.000 Cl
ATOM     31  C   UNL     1       2.249   5.338  20.369  0.00  0.00    +0.000 A 
ATOM     32  C   UNL     1       2.914   4.385  19.566  0.00  0.00    +0.000 A 
ATOM     33  C   UNL     1       3.004   2.999  20.136  0.00  0.00    +0.000 C 
ENDBRANCH  25  26
ENDBRANCH  24  25
ENDBRANCH   9  24
TORSDOF 5
ENDMDL
MODEL 6
REMARK VINA RESULT:      -8.2      2.609      3.097
REMARK  Name = 
REMARK  7 active torsions:
REMARK  status: ('A' for Active; 'I' for Inactive)
REMARK    1  A    between atoms: C_1  and  N_2
REMARK    2  A    between atoms: C_3  and  C_5
REMARK    3  A    between atoms: C_9  and  N_10
REMARK    4  A    between atoms: C_18  and  C_19
REMARK    5  A    between atoms: C_19  and  O_20
REMARK    6  A    between atoms: O_20  and  C_21
REMARK    7  A    between atoms: C_27  and  C_28
REMARK                            x       y       z     vdW  Elec       q    Type
REMARK                         _______ _______ _______ _____ _____    ______ ____
ROOT
ATOM      1  N   UNL     1       0.645  10.211  20.957  0.00  0.00    +0.000 N 
ATOM      2  C   UNL     1       1.238   9.585  19.855  0.00  0.00    +0.000 A 
ATOM      3  N   UNL     1       1.413  10.249  18.716  0.00  0.00    +0.000 NA
ATOM      4  C   UNL     1       1.871   9.538  17.700  0.00  0.00    +0.000 A 
ATOM      5  N   UNL     1       2.144   8.251  17.730  0.00  0.00    +0.000 NA
ATOM      6  C   UNL     1       1.959   7.663  18.909  0.00  0.00    +0.000 A 
ATOM      7  N   UNL     1       2.174   6.290  18.990  0.00  0.00    +0.000 N 
ATOM      8  C   UNL     1       2.546   5.529  20.131  0.00  0.00    +0.000 C 
ATOM      9  C   UNL     1       3.513   4.748  19.223  0.00  0.00    +0.000 C 
ATOM     10  C   UNL     1       2.816   5.437  18.046  0.00  0.00    +0.000 C 
ATOM     11  N   UNL     1       1.535   8.299  20.003  0.00  0.00    +0.000 NA
ATOM     12  H   UNL     1       0.481   9.522  21.678  0.00  0.00    +0.000 HD
ENDROOT
BRANCH   1  17
ATOM     13  C   UNL     1      -2.272  12.515  20.518  0.00  0.00    +0.000 A 
ATOM     14  C   UNL     1      -1.767  13.681  21.099  0.00  0.00    +0.000 A 
ATOM     15  C   UNL     1      -0.472  13.690  21.616  0.00  0.00    +0.000 A 
ATOM     16  C   UNL     1       0.319  12.540  21.553  0.00  0.00    +0.000 A 
ATOM     17  C   UNL     1      -0.173  11.355  20.984  0.00  0.00    +0.000 A 
ATOM     18  C   UNL     1      -1.466  11.375  20.449  0.00  0.00    +0.000 A 
BRANCH  13  21
ATOM     19  C   UNL     1      -5.051  12.056  17.990  0.00  0.00    +0.000 C 
ATOM     20  N   UNL     1      -3.766  12.056  18.641  0.00  0.00    +0.000 N 
ATOM     21  C   UNL     1      -3.635  12.521  19.933  0.00  0.00    +0.000 C 
ATOM     22  O   UNL     1      -4.585  12.919  20.605  0.00  0.00    +0.000 OA
ATOM     23  H   UNL     1      -2.979  11.627  18.170  0.00  0.00    +0.000 HD
ENDBRANCH  13  21
ENDBRANCH   1  17
BRANCH   9  24
ATOM     24  C   UNL     1       4.962   5.130  19.509  0.00  0.00    +0.000 C 
BRANCH  24  25
ATOM     25  O   UNL     1       5.845   4.250  18.817  0.00  0.00    +0.000 OA
BRANCH  25  26
ATOM     26  C   UNL     1       6.211   4.586  17.535  0.00  0.00    +0.000 A 
ATOM     27  C   UNL     1       5.766   3.655  16.578  0.00  0.00    +0.000 A 
ATOM     28  C   UNL     1       6.092   3.784  15.224  0.00  0.00    +0.000 A 
ATOM     29  C   UNL     1       6.879   4.847  14.811  0.00  0.00    +0.000 A 
ATOM     30 CL   UNL     1       7.316   5.013  13.155  0.00  0.00    +0.000 Cl
ATOM     31  C   UNL     1       7.331   5.779  15.740  0.00  0.00    +0.000 A 
ATOM     32  C   UNL     1       7.017   5.661  17.112  0.00  0.00    +0.000 A 
ATOM     33  C   UNL     1       7.613   6.707  18.010  0.00  0.00    +0.000 C 
ENDBRANCH  25  26
ENDBRANCH  24  25
ENDBRANCH   9  24
TORSDOF 5
ENDMDL
MODEL 7
REMARK VINA RESULT:      -8.2      4.884      7.490
REMARK  Name = 
REMARK  7 active torsions:
REMARK  status: ('A' for Active; 'I' for Inactive)
REMARK    1  A    between atoms: C_1  and  N_2
REMARK    2  A    between atoms: C_3  and  C_5
REMARK    3  A    between atoms: C_9  and  N_10
REMARK    4  A    between atoms: C_18  and  C_19
REMARK    5  A    between atoms: C_19  and  O_20
REMARK    6  A    between atoms: O_20  and  C_21
REMARK    7  A    between atoms: C_27  and  C_28
REMARK                            x       y       z     vdW  Elec       q    Type
REMARK                         _______ _______ _______ _____ _____    ______ ____
ROOT
ATOM      1  N   UNL     1       7.789   9.552  17.624  0.00  0.00    +0.000 N 
ATOM      2  C   UNL     1       7.731   8.176  17.869  0.00  0.00    +0.000 A 
ATOM      3  N   UNL     1       8.268   7.665  18.974  0.00  0.00    +0.000 NA
ATOM      4  C   UNL     1       8.267   6.346  19.057  0.00  0.00    +0.000 A 
ATOM      5  N   UNL     1       7.798   5.523  18.143  0.00  0.00    +0.000 NA
ATOM      6  C   UNL     1       7.263   6.111  17.077  0.00  0.00    +0.000 A 
ATOM      7  N   UNL     1       6.803   5.294  16.047  0.00  0.00    +0.000 N 
ATOM      8  C   UNL     1       5.784   5.575  15.097  0.00  0.00    +0.000 C 
ATOM      9  C   UNL     1       5.285   4.133  15.293  0.00  0.00    +0.000 C 
ATOM     10  C   UNL     1       6.585   3.887  16.064  0.00  0.00    +0.000 C 
ATOM     11  N   UNL     1       7.183   7.433  16.914  0.00  0.00    +0.000 NA
ATOM     12  H   UNL     1       7.447   9.734  16.691  0.00  0.00    +0.000 HD
ENDROOT
BRANCH   1  17
ATOM     13  C   UNL     1       9.573  12.771  18.303  0.00  0.00    +0.000 A 
ATOM     14  C   UNL     1      10.435  12.376  19.328  0.00  0.00    +0.000 A 
ATOM     15  C   UNL     1      10.420  11.053  19.772  0.00  0.00    +0.000 A 
ATOM     16  C   UNL     1       9.548  10.127  19.192  0.00  0.00    +0.000 A 
ATOM     17  C   UNL     1       8.666  10.507  18.169  0.00  0.00    +0.000 A 
ATOM     18  C   UNL     1       8.715  11.833  17.723  0.00  0.00    +0.000 A 
BRANCH  13  21
ATOM     19  C   UNL     1      10.918  15.924  16.695  0.00  0.00    +0.000 C 
ATOM     20  N   UNL     1      10.780  14.573  17.179  0.00  0.00    +0.000 N 
ATOM     21  C   UNL     1       9.621  14.169  17.807  0.00  0.00    +0.000 C 
ATOM     22  O   UNL     1       8.644  14.902  17.956  0.00  0.00    +0.000 OA
ATOM     23  H   UNL     1      11.510  13.903  16.972  0.00  0.00    +0.000 HD
ENDBRANCH  13  21
ENDBRANCH   1  17
BRANCH   9  24
ATOM     24  C   UNL     1       3.979   4.106  16.081  0.00  0.00    +0.000 C 
BRANCH  24  25
ATOM     25  O   UNL     1       4.250   3.935  17.471  0.00  0.00    +0.000 OA
BRANCH  25  26
ATOM     26  C   UNL     1       3.515   4.678  18.364  0.00  0.00    +0.000 A 
ATOM     27  C   UNL     1       3.308   6.001  17.933  0.00  0.00    +0.000 A 
ATOM     28  C   UNL     1       2.639   6.935  18.731  0.00  0.00    +0.000 A 
ATOM     29  C   UNL     1       2.173   6.555  19.980  0.00  0.00    +0.000 A 
ATOM     30 CL   UNL     1       1.371   7.692  20.992  0.00  0.00    +0.000 Cl
ATOM     31  C   UNL     1       2.368   5.252  20.427  0.00  0.00    +0.000 A 
ATOM     32  C   UNL     1       3.047   4.297  19.637  0.00  0.00    +0.000 A 
ATOM     33  C   UNL     1       3.231   2.945  20.263  0.00  0.00    +0.000 C 
ENDBRANCH  25  26
ENDBRANCH  24  25
ENDBRANCH   9  24
TORSDOF 5
ENDMDL
MODEL 8
REMARK VINA RESULT:      -8.1      2.499      3.214
REMARK  Name = 
REMARK  7 active torsions:
REMARK  status: ('A' for Active; 'I' for Inactive)
REMARK    1  A    between atoms: C_1  and  N_2
REMARK    2  A    between atoms: C_3  and  C_5
REMARK    3  A    between atoms: C_9  and  N_10
REMARK    4  A    between atoms: C_18  and  C_19
REMARK    5  A    between atoms: C_19  and  O_20
REMARK    6  A    between atoms: O_20  and  C_21
REMARK    7  A    between atoms: C_27  and  C_28
REMARK                            x       y       z     vdW  Elec       q    Type
REMARK                         _______ _______ _______ _____ _____    ______ ____
ROOT
ATOM      1  N   UNL     1       0.615  10.109  21.551  0.00  0.00    +0.000 N 
ATOM      2  C   UNL     1       1.165   9.567  20.385  0.00  0.00    +0.000 A 
ATOM      3  N   UNL     1       1.333  10.324  19.303  0.00  0.00    +0.000 NA
ATOM      4  C   UNL     1       1.748   9.694  18.218  0.00  0.00    +0.000 A 
ATOM      5  N   UNL     1       1.988   8.403  18.129  0.00  0.00    +0.000 NA
ATOM      6  C   UNL     1       1.813   7.718  19.256  0.00  0.00    +0.000 A 
ATOM      7  N   UNL     1       1.994   6.338  19.212  0.00  0.00    +0.000 N 
ATOM      8  C   UNL     1       2.370   5.472  20.273  0.00  0.00    +0.000 C 
ATOM      9  C   UNL     1       3.295   4.750  19.277  0.00  0.00    +0.000 C 
ATOM     10  C   UNL     1       2.590   5.557  18.182  0.00  0.00    +0.000 C 
ATOM     11  N   UNL     1       1.432   8.267  20.412  0.00  0.00    +0.000 NA
ATOM     12  H   UNL     1       0.449   9.364  22.213  0.00  0.00    +0.000 HD
ENDROOT
BRANCH   1  17
ATOM     13  C   UNL     1      -2.205  12.412  22.418  0.00  0.00    +0.000 A 
ATOM     14  C   UNL     1      -1.681  13.632  21.986  0.00  0.00    +0.000 A 
ATOM     15  C   UNL     1      -0.412  13.674  21.408  0.00  0.00    +0.000 A 
ATOM     16  C   UNL     1       0.332  12.500  21.260  0.00  0.00    +0.000 A 
ATOM     17  C   UNL     1      -0.171  11.266  21.698  0.00  0.00    +0.000 A 
ATOM     18  C   UNL     1      -1.456  11.243  22.253  0.00  0.00    +0.000 A 
BRANCH  13  21
ATOM     19  C   UNL     1      -5.964  12.778  22.676  0.00  0.00    +0.000 C 
ATOM     20  N   UNL     1      -4.610  12.765  22.181  0.00  0.00    +0.000 N 
ATOM     21  C   UNL     1      -3.571  12.367  22.996  0.00  0.00    +0.000 C 
ATOM     22  O   UNL     1      -3.732  11.971  24.149  0.00  0.00    +0.000 OA
ATOM     23  H   UNL     1      -4.445  12.967  21.203  0.00  0.00    +0.000 HD
ENDBRANCH  13  21
ENDBRANCH   1  17
BRANCH   9  24
ATOM     24  C   UNL     1       4.760   5.069  19.559  0.00  0.00    +0.000 C 
BRANCH  24  25
ATOM     25  O   UNL     1       5.603   4.149  18.868  0.00  0.00    +0.000 OA
BRANCH  25  26
ATOM     26  C   UNL     1       6.054   4.505  17.619  0.00  0.00    +0.000 A 
ATOM     27  C   UNL     1       5.520   3.700  16.596  0.00  0.00    +0.000 A 
ATOM     28  C   UNL     1       5.907   3.862  15.262  0.00  0.00    +0.000 A 
ATOM     29  C   UNL     1       6.843   4.830  14.935  0.00  0.00    +0.000 A 
ATOM     30 CL   UNL     1       7.355   5.030  13.304  0.00  0.00    +0.000 Cl
ATOM     31  C   UNL     1       7.386   5.635  15.931  0.00  0.00    +0.000 A 
ATOM     32  C   UNL     1       7.012   5.482  17.285  0.00  0.00    +0.000 A 
ATOM     33  C   UNL     1       7.713   6.383  18.261  0.00  0.00    +0.000 C 
ENDBRANCH  25  26
ENDBRANCH  24  25
ENDBRANCH   9  24
TORSDOF 5
ENDMDL
MODEL 9
REMARK VINA RESULT:      -8.1      4.168      9.715
REMARK  Name = 
REMARK  7 active torsions:
REMARK  status: ('A' for Active; 'I' for Inactive)
REMARK    1  A    between atoms: C_1  and  N_2
REMARK    2  A    between atoms: C_3  and  C_5
REMARK    3  A    between atoms: C_9  and  N_10
REMARK    4  A    between atoms: C_18  and  C_19
REMARK    5  A    between atoms: C_19  and  O_20
REMARK    6  A    between atoms: O_20  and  C_21
REMARK    7  A    between atoms: C_27  and  C_28
REMARK                            x       y       z     vdW  Elec       q    Type
REMARK                         _______ _______ _______ _____ _____    ______ ____
ROOT
ATOM      1  N   UNL     1       2.013   6.216  20.576  0.00  0.00    +0.000 N 
ATOM      2  C   UNL     1       1.785   7.413  19.889  0.00  0.00    +0.000 A 
ATOM      3  N   UNL     1       2.042   7.503  18.586  0.00  0.00    +0.000 NA
ATOM      4  C   UNL     1       1.907   8.705  18.055  0.00  0.00    +0.000 A 
ATOM      5  N   UNL     1       1.559   9.795  18.707  0.00  0.00    +0.000 NA
ATOM      6  C   UNL     1       1.302   9.619  20.001  0.00  0.00    +0.000 A 
ATOM      7  N   UNL     1       0.987  10.744  20.758  0.00  0.00    +0.000 N 
ATOM      8  C   UNL     1       0.209  10.808  21.945  0.00  0.00    +0.000 C 
ATOM      9  C   UNL     1      -0.446  12.079  21.377  0.00  0.00    +0.000 C 
ATOM     10  C   UNL     1       0.645  12.049  20.304  0.00  0.00    +0.000 C 
ATOM     11  N   UNL     1       1.375   8.441  20.623  0.00  0.00    +0.000 NA
ATOM     12  H   UNL     1       1.883   6.375  21.565  0.00  0.00    +0.000 HD
ENDROOT
BRANCH   1  17
ATOM     13  C   UNL     1       4.849   4.224  19.162  0.00  0.00    +0.000 A 
ATOM     14  C   UNL     1       4.479   2.937  19.554  0.00  0.00    +0.000 A 
ATOM     15  C   UNL     1       3.297   2.746  20.270  0.00  0.00    +0.000 A 
ATOM     16  C   UNL     1       2.485   3.837  20.591  0.00  0.00    +0.000 A 
ATOM     17  C   UNL     1       2.845   5.140  20.216  0.00  0.00    +0.000 A 
ATOM     18  C   UNL     1       4.022   5.306  19.478  0.00  0.00    +0.000 A 
BRANCH  13  21
ATOM     19  C   UNL     1       7.160   4.358  16.166  0.00  0.00    +0.000 C 
ATOM     20  N   UNL     1       5.996   4.219  17.005  0.00  0.00    +0.000 N 
ATOM     21  C   UNL     1       6.087   4.419  18.366  0.00  0.00    +0.000 C 
ATOM     22  O   UNL     1       7.127   4.757  18.930  0.00  0.00    +0.000 OA
ATOM     23  H   UNL     1       5.096   4.059  16.570  0.00  0.00    +0.000 HD
ENDBRANCH  13  21
ENDBRANCH   1  17
BRANCH   9  24
ATOM     24  C   UNL     1      -1.881  11.807  20.935  0.00  0.00    +0.000 C 
BRANCH  24  25
ATOM     25  O   UNL     1      -1.943  11.701  19.514  0.00  0.00    +0.000 OA
BRANCH  25  26
ATOM     26  C   UNL     1      -3.160  11.907  18.908  0.00  0.00    +0.000 A 
ATOM     27  C   UNL     1      -4.085  12.554  19.748  0.00  0.00    +0.000 A 
ATOM     28  C   UNL     1      -5.400  12.796  19.339  0.00  0.00    +0.000 A 
ATOM     29  C   UNL     1      -5.810  12.384  18.080  0.00  0.00    +0.000 A 
ATOM     30 CL   UNL     1      -7.430  12.646  17.564  0.00  0.00    +0.000 Cl
ATOM     31  C   UNL     1      -4.912  11.740  17.234  0.00  0.00    +0.000 A 
ATOM     32  C   UNL     1      -3.582  11.482  17.633  0.00  0.00    +0.000 A 
ATOM     33  C   UNL     1      -2.737  10.735  16.642  0.00  0.00    +0.000 C 
ENDBRANCH  25  26
ENDBRANCH  24  25
ENDBRANCH   9  24
TORSDOF 5
ENDMDL
