MODEL 1
REMARK VINA RESULT:      -6.9      0.000      0.000
REMARK  Name = 
REMARK  7 active torsions:
REMARK  status: ('A' for Active; 'I' for Inactive)
REMARK    1  A    between atoms: C_1  and  C_2
REMARK    2  A    between atoms: C_5  and  C_6
REMARK    3  A    between atoms: C_11  and  C_12
REMARK    4  A    between atoms: C_16  and  C_17
REMARK    5  A    between atoms: C_17  and  O_18
REMARK    6  A    between atoms: O_18  and  C_19
REMARK    7  A    between atoms: C_29  and  C_30
REMARK                            x       y       z     vdW  Elec       q    Type
REMARK                         _______ _______ _______ _____ _____    ______ ____
ROOT
ATOM      1  C   UNL     1      -0.326  13.426  22.222  0.00  0.00    +0.000 C 
ATOM      2  O   UNL     1       0.573  14.196  22.560  0.00  0.00    +0.000 OA
ATOM      3  N   UNL     1      -1.703  13.564  22.603  0.00  0.00    +0.000 N 
ATOM      4  C   UNL     1      -2.607  12.404  22.600  0.00  0.00    +0.000 C 
ATOM      5  C   UNL     1      -3.948  12.530  21.887  0.00  0.00    +0.000 C 
ATOM      6  C   UNL     1      -4.920  13.343  22.727  0.00  0.00    +0.000 C 
ATOM      7  C   UNL     1      -4.791  14.850  22.634  0.00  0.00    +0.000 C 
ATOM      8  C   UNL     1      -3.393  15.470  22.551  0.00  0.00    +0.000 C 
ATOM      9  C   UNL     1      -2.231  14.781  23.316  0.00  0.00    +0.000 C 
ATOM     10  C   UNL     1      -1.215  15.892  23.627  0.00  0.00    +0.000 C 
ENDROOT
BRANCH   1  16
ATOM     11  C   UNL     1      -0.314   8.497  21.608  0.00  0.00    +0.000 C 
ATOM     12  C   UNL     1       0.121   9.834  21.083  0.00  0.00    +0.000 A 
ATOM     13  C   UNL     1       0.495   9.994  19.754  0.00  0.00    +0.000 A 
ATOM     14  C   UNL     1       0.761  11.271  19.257  0.00  0.00    +0.000 A 
ATOM     15  C   UNL     1       0.575  12.433  20.044  0.00  0.00    +0.000 A 
ATOM     16  C   UNL     1       0.101  12.268  21.362  0.00  0.00    +0.000 A 
ATOM     17  C   UNL     1       0.035  10.968  21.900  0.00  0.00    +0.000 A 
BRANCH  15  18
ATOM     18  C   UNL     1       0.905  13.741  19.448  0.00  0.00    +0.000 A 
ATOM     19  N   UNL     1       0.043  14.650  19.030  0.00  0.00    +0.000 NA
ATOM     20  C   UNL     1       0.715  15.769  18.576  0.00  0.00    +0.000 A 
ATOM     21  C   UNL     1       2.089  15.691  18.586  0.00  0.00    +0.000 A 
ATOM     22  S   UNL     1       2.568  14.195  19.256  0.00  0.00    +0.000 S 
ENDBRANCH  15  18
ENDBRANCH   1  16
BRANCH   5  23
ATOM     23  C   UNL     1      -3.783  12.975  20.428  0.00  0.00    +0.000 C 
BRANCH  23  24
ATOM     24  O   UNL     1      -4.731  12.286  19.598  0.00  0.00    +0.000 OA
BRANCH  24  25
ATOM     25  C   UNL     1      -4.153  11.832  18.426  0.00  0.00    +0.000 A 
ATOM     26  C   UNL     1      -2.804  11.510  18.474  0.00  0.00    +0.000 A 
ATOM     27  C   UNL     1      -2.203  11.004  17.323  0.00  0.00    +0.000 A 
ATOM     28  C   UNL     1      -2.965  10.875  16.170  0.00  0.00    +0.000 A 
ATOM     29  F   UNL     1      -2.422  10.378  15.052  0.00  0.00    +0.000 F 
ATOM     30  C   UNL     1      -4.293  11.253  16.201  0.00  0.00    +0.000 A 
ATOM     31  N   UNL     1      -4.909  11.712  17.312  0.00  0.00    +0.000 NA
ENDBRANCH  24  25
ENDBRANCH  23  24
ENDBRANCH   5  23
TORSDOF 5
ENDMDL
MODEL 2
REMARK VINA RESULT:      -6.8      1.201      1.291
REMARK  Name = 
REMARK  7 active torsions:
REMARK  status: ('A' for Active; 'I' for Inactive)
REMARK    1  A    between atoms: C_1  and  C_2
REMARK    2  A    between atoms: C_5  and  C_6
REMARK    3  A    between atoms: C_11  and  C_12
REMARK    4  A    between atoms: C_16  and  C_17
REMARK    5  A    between atoms: C_17  and  O_18
REMARK    6  A    between atoms: O_18  and  C_19
REMARK    7  A    between atoms: C_29  and  C_30
REMARK                            x       y       z     vdW  Elec       q    Type
REMARK                         _______ _______ _______ _____ _____    ______ ____
ROOT
ATOM      1  C   UNL     1      -1.182  13.614  22.808  0.00  0.00    +0.000 C 
ATOM      2  O   UNL     1      -0.476  14.434  23.396  0.00  0.00    +0.000 OA
ATOM      3  N   UNL     1      -2.615  13.661  22.759  0.00  0.00    +0.000 N 
ATOM      4  C   UNL     1      -3.401  12.447  22.491  0.00  0.00    +0.000 C 
ATOM      5  C   UNL     1      -4.473  12.499  21.408  0.00  0.00    +0.000 C 
ATOM      6  C   UNL     1      -5.700  13.238  21.915  0.00  0.00    +0.000 C 
ATOM      7  C   UNL     1      -5.647  14.751  21.858  0.00  0.00    +0.000 C 
ATOM      8  C   UNL     1      -4.330  15.459  22.194  0.00  0.00    +0.000 C 
ATOM      9  C   UNL     1      -3.409  14.831  23.275  0.00  0.00    +0.000 C 
ATOM     10  C   UNL     1      -2.605  15.999  23.871  0.00  0.00    +0.000 C 
ENDROOT
BRANCH   1  16
ATOM     11  C   UNL     1      -0.576   8.705  22.351  0.00  0.00    +0.000 C 
ATOM     12  C   UNL     1      -0.138  10.075  21.922  0.00  0.00    +0.000 A 
ATOM     13  C   UNL     1       0.556  10.265  20.733  0.00  0.00    +0.000 A 
ATOM     14  C   UNL     1       0.830  11.560  20.289  0.00  0.00    +0.000 A 
ATOM     15  C   UNL     1       0.343  12.702  20.968  0.00  0.00    +0.000 A 
ATOM     16  C   UNL     1      -0.443  12.498  22.121  0.00  0.00    +0.000 A 
ATOM     17  C   UNL     1      -0.534  11.199  22.658  0.00  0.00    +0.000 A 
BRANCH  15  18
ATOM     18  C   UNL     1       0.702  14.033  20.444  0.00  0.00    +0.000 A 
ATOM     19  N   UNL     1       1.749  14.756  20.796  0.00  0.00    +0.000 NA
ATOM     20  C   UNL     1       1.788  15.926  20.062  0.00  0.00    +0.000 A 
ATOM     21  C   UNL     1       0.736  16.129  19.198  0.00  0.00    +0.000 A 
ATOM     22  S   UNL     1      -0.305  14.776  19.243  0.00  0.00    +0.000 S 
ENDBRANCH  15  18
ENDBRANCH   1  16
BRANCH   5  23
ATOM     23  C   UNL     1      -3.907  12.975  20.064  0.00  0.00    +0.000 C 
BRANCH  23  24
ATOM     24  O   UNL     1      -2.783  12.162  19.694  0.00  0.00    +0.000 OA
BRANCH  24  25
ATOM     25  C   UNL     1      -2.975  11.546  18.470  0.00  0.00    +0.000 A 
ATOM     26  C   UNL     1      -1.974  10.691  18.034  0.00  0.00    +0.000 A 
ATOM     27  C   UNL     1      -2.159  10.016  16.827  0.00  0.00    +0.000 A 
ATOM     28  C   UNL     1      -3.315  10.254  16.097  0.00  0.00    +0.000 A 
ATOM     29  F   UNL     1      -3.530   9.612  14.942  0.00  0.00    +0.000 F 
ATOM     30  C   UNL     1      -4.245  11.149  16.589  0.00  0.00    +0.000 A 
ATOM     31  N   UNL     1      -4.107  11.787  17.772  0.00  0.00    +0.000 NA
ENDBRANCH  24  25
ENDBRANCH  23  24
ENDBRANCH   5  23
TORSDOF 5
ENDMDL
MODEL 3
REMARK VINA RESULT:      -6.6      7.773     11.578
REMARK  Name = 
REMARK  7 active torsions:
REMARK  status: ('A' for Active; 'I' for Inactive)
REMARK    1  A    between atoms: C_1  and  C_2
REMARK    2  A    between atoms: C_5  and  C_6
REMARK    3  A    between atoms: C_11  and  C_12
REMARK    4  A    between atoms: C_16  and  C_17
REMARK    5  A    between atoms: C_17  and  O_18
REMARK    6  A    between atoms: O_18  and  C_19
REMARK    7  A    between atoms: C_29  and  C_30
REMARK                            x       y       z     vdW  Elec       q    Type
REMARK                         _______ _______ _______ _____ _____    ______ ____
ROOT
ATOM      1  C   UNL     1       3.109   5.205  17.838  0.00  0.00    +0.000 C 
ATOM      2  O   UNL     1       2.252   4.592  17.200  0.00  0.00    +0.000 OA
ATOM      3  N   UNL     1       4.509   4.892  17.829  0.00  0.00    +0.000 N 
ATOM      4  C   UNL     1       5.381   5.303  18.940  0.00  0.00    +0.000 C 
ATOM      5  C   UNL     1       6.679   6.033  18.613  0.00  0.00    +0.000 C 
ATOM      6  C   UNL     1       7.721   5.055  18.096  0.00  0.00    +0.000 C 
ATOM      7  C   UNL     1       7.625   4.683  16.630  0.00  0.00    +0.000 C 
ATOM      8  C   UNL     1       6.241   4.484  16.005  0.00  0.00    +0.000 C 
ATOM      9  C   UNL     1       5.111   3.885  16.886  0.00  0.00    +0.000 C 
ATOM     10  C   UNL     1       4.146   3.188  15.913  0.00  0.00    +0.000 C 
ENDROOT
BRANCH   1  16
ATOM     11  C   UNL     1       1.998  10.042  18.047  0.00  0.00    +0.000 C 
ATOM     12  C   UNL     1       2.077   8.734  18.778  0.00  0.00    +0.000 A 
ATOM     13  C   UNL     1       1.363   8.526  19.952  0.00  0.00    +0.000 A 
ATOM     14  C   UNL     1       1.344   7.258  20.537  0.00  0.00    +0.000 A 
ATOM     15  C   UNL     1       1.959   6.141  19.922  0.00  0.00    +0.000 A 
ATOM     16  C   UNL     1       2.599   6.341  18.681  0.00  0.00    +0.000 A 
ATOM     17  C   UNL     1       2.778   7.659  18.216  0.00  0.00    +0.000 A 
BRANCH  15  18
ATOM     18  C   UNL     1       1.913   4.844  20.622  0.00  0.00    +0.000 A 
ATOM     19  N   UNL     1       2.707   4.456  21.602  0.00  0.00    +0.000 NA
ATOM     20  C   UNL     1       2.339   3.199  22.044  0.00  0.00    +0.000 A 
ATOM     21  C   UNL     1       1.307   2.600  21.358  0.00  0.00    +0.000 A 
ATOM     22  S   UNL     1       0.720   3.671  20.165  0.00  0.00    +0.000 S 
ENDBRANCH  15  18
ENDBRANCH   1  16
BRANCH   5  23
ATOM     23  C   UNL     1       6.435   7.277  17.750  0.00  0.00    +0.000 C 
BRANCH  23  24
ATOM     24  O   UNL     1       7.677   7.736  17.194  0.00  0.00    +0.000 OA
BRANCH  24  25
ATOM     25  C   UNL     1       8.086   8.927  17.765  0.00  0.00    +0.000 A 
ATOM     26  C   UNL     1       8.877   8.840  18.902  0.00  0.00    +0.000 A 
ATOM     27  C   UNL     1       9.347  10.021  19.474  0.00  0.00    +0.000 A 
ATOM     28  C   UNL     1       8.978  11.233  18.908  0.00  0.00    +0.000 A 
ATOM     29  F   UNL     1       9.423  12.385  19.424  0.00  0.00    +0.000 F 
ATOM     30  C   UNL     1       8.157  11.230  17.797  0.00  0.00    +0.000 A 
ATOM     31  N   UNL     1       7.718  10.100  17.201  0.00  0.00    +0.000 NA
ENDBRANCH  24  25
ENDBRANCH  23  24
ENDBRANCH   5  23
TORSDOF 5
ENDMDL
MODEL 4
REMARK VINA RESULT:      -6.6      2.782      5.224
REMARK  Name = 
REMARK  7 active torsions:
REMARK  status: ('A' for Active; 'I' for Inactive)
REMARK    1  A    between atoms: C_1  and  C_2
REMARK    2  A    between atoms: C_5  and  C_6
REMARK    3  A    between atoms: C_11  and  C_12
REMARK    4  A    between atoms: C_16  and  C_17
REMARK    5  A    between atoms: C_17  and  O_18
REMARK    6  A    between atoms: O_18  and  C_19
REMARK    7  A    between atoms: C_29  and  C_30
REMARK                            x       y       z     vdW  Elec       q    Type
REMARK                         _______ _______ _______ _____ _____    ______ ____
ROOT
ATOM      1  C   UNL     1      -0.749  11.726  22.017  0.00  0.00    +0.000 C 
ATOM      2  O   UNL     1       0.020  11.082  22.730  0.00  0.00    +0.000 OA
ATOM      3  N   UNL     1      -0.818  11.619  20.588  0.00  0.00    +0.000 N 
ATOM      4  C   UNL     1      -1.363  12.716  19.774  0.00  0.00    +0.000 C 
ATOM      5  C   UNL     1      -2.431  12.389  18.736  0.00  0.00    +0.000 C 
ATOM      6  C   UNL     1      -1.801  11.735  17.517  0.00  0.00    +0.000 C 
ATOM      7  C   UNL     1      -1.523  10.249  17.618  0.00  0.00    +0.000 C 
ATOM      8  C   UNL     1      -1.011   9.680  18.945  0.00  0.00    +0.000 C 
ATOM      9  C   UNL     1      -0.074  10.562  19.816  0.00  0.00    +0.000 C 
ATOM     10  C   UNL     1       0.780   9.582  20.636  0.00  0.00    +0.000 C 
ENDROOT
BRANCH   1  16
ATOM     11  C   UNL     1      -4.742  12.299  24.916  0.00  0.00    +0.000 C 
ATOM     12  C   UNL     1      -3.633  12.961  24.152  0.00  0.00    +0.000 A 
ATOM     13  C   UNL     1      -3.247  14.265  24.438  0.00  0.00    +0.000 A 
ATOM     14  C   UNL     1      -2.126  14.810  23.809  0.00  0.00    +0.000 A 
ATOM     15  C   UNL     1      -1.304  14.043  22.949  0.00  0.00    +0.000 A 
ATOM     16  C   UNL     1      -1.648  12.691  22.741  0.00  0.00    +0.000 A 
ATOM     17  C   UNL     1      -2.888  12.226  23.221  0.00  0.00    +0.000 A 
BRANCH  15  18
ATOM     18  C   UNL     1      -0.153  14.705  22.307  0.00  0.00    +0.000 A 
ATOM     19  N   UNL     1       1.110  14.331  22.391  0.00  0.00    +0.000 NA
ATOM     20  C   UNL     1       1.903  15.160  21.620  0.00  0.00    +0.000 A 
ATOM     21  C   UNL     1       1.257  16.205  21.001  0.00  0.00    +0.000 A 
ATOM     22  S   UNL     1      -0.416  16.112  21.328  0.00  0.00    +0.000 S 
ENDBRANCH  15  18
ENDBRANCH   1  16
BRANCH   5  23
ATOM     23  C   UNL     1      -3.625  11.651  19.355  0.00  0.00    +0.000 C 
BRANCH  23  24
ATOM     24  O   UNL     1      -4.845  12.329  19.016  0.00  0.00    +0.000 OA
BRANCH  24  25
ATOM     25  C   UNL     1      -5.402  12.963  20.112  0.00  0.00    +0.000 A 
ATOM     26  C   UNL     1      -6.325  12.239  20.854  0.00  0.00    +0.000 A 
ATOM     27  C   UNL     1      -6.868  12.831  21.993  0.00  0.00    +0.000 A 
ATOM     28  C   UNL     1      -6.493  14.127  22.319  0.00  0.00    +0.000 A 
ATOM     29  F   UNL     1      -6.986  14.719  23.414  0.00  0.00    +0.000 F 
ATOM     30  C   UNL     1      -5.595  14.789  21.505  0.00  0.00    +0.000 A 
ATOM     31  N   UNL     1      -5.025  14.225  20.417  0.00  0.00    +0.000 NA
ENDBRANCH  24  25
ENDBRANCH  23  24
ENDBRANCH   5  23
TORSDOF 5
ENDMDL
MODEL 5
REMARK VINA RESULT:      -6.5      9.226     11.312
REMARK  Name = 
REMARK  7 active torsions:
REMARK  status: ('A' for Active; 'I' for Inactive)
REMARK    1  A    between atoms: C_1  and  C_2
REMARK    2  A    between atoms: C_5  and  C_6
REMARK    3  A    between atoms: C_11  and  C_12
REMARK    4  A    between atoms: C_16  and  C_17
REMARK    5  A    between atoms: C_17  and  O_18
REMARK    6  A    between atoms: O_18  and  C_19
REMARK    7  A    between atoms: C_29  and  C_30
REMARK                            x       y       z     vdW  Elec       q    Type
REMARK                         _______ _______ _______ _____ _____    ______ ____
ROOT
ATOM      1  C   UNL     1       8.000  14.766  18.650  0.00  0.00    +0.000 C 
ATOM      2  O   UNL     1       7.409  15.120  17.629  0.00  0.00    +0.000 OA
ATOM      3  N   UNL     1       7.776  15.319  19.954  0.00  0.00    +0.000 N 
ATOM      4  C   UNL     1       8.807  15.231  20.999  0.00  0.00    +0.000 C 
ATOM      5  C   UNL     1       8.406  14.706  22.373  0.00  0.00    +0.000 C 
ATOM      6  C   UNL     1       7.649  15.773  23.146  0.00  0.00    +0.000 C 
ATOM      7  C   UNL     1       6.174  15.914  22.830  0.00  0.00    +0.000 C 
ATOM      8  C   UNL     1       5.711  15.773  21.377  0.00  0.00    +0.000 C 
ATOM      9  C   UNL     1       6.652  16.277  20.249  0.00  0.00    +0.000 C 
ATOM     10  C   UNL     1       5.736  16.647  19.071  0.00  0.00    +0.000 C 
ENDROOT
BRANCH   1  16
ATOM     11  C   UNL     1       8.885   9.887  18.351  0.00  0.00    +0.000 C 
ATOM     12  C   UNL     1       9.455  11.275  18.338  0.00  0.00    +0.000 A 
ATOM     13  C   UNL     1      10.708  11.529  17.791  0.00  0.00    +0.000 A 
ATOM     14  C   UNL     1      11.156  12.845  17.666  0.00  0.00    +0.000 A 
ATOM     15  C   UNL     1      10.335  13.949  17.997  0.00  0.00    +0.000 A 
ATOM     16  C   UNL     1       9.029  13.685  18.460  0.00  0.00    +0.000 A 
ATOM     17  C   UNL     1       8.676  12.356  18.767  0.00  0.00    +0.000 A 
BRANCH  15  18
ATOM     18  C   UNL     1      10.897  15.306  17.859  0.00  0.00    +0.000 A 
ATOM     19  N   UNL     1      10.613  16.177  16.909  0.00  0.00    +0.000 NA
ATOM     20  C   UNL     1      11.292  17.360  17.129  0.00  0.00    +0.000 A 
ATOM     21  C   UNL     1      12.146  17.371  18.208  0.00  0.00    +0.000 A 
ATOM     22  S   UNL     1      12.044  15.876  19.028  0.00  0.00    +0.000 S 
ENDBRANCH  15  18
ENDBRANCH   1  16
BRANCH   5  23
ATOM     23  C   UNL     1       7.733  13.330  22.288  0.00  0.00    +0.000 C 
BRANCH  23  24
ATOM     24  O   UNL     1       8.412  12.402  23.147  0.00  0.00    +0.000 OA
BRANCH  24  25
ATOM     25  C   UNL     1       7.700  12.164  24.310  0.00  0.00    +0.000 A 
ATOM     26  C   UNL     1       6.498  11.483  24.183  0.00  0.00    +0.000 A 
ATOM     27  C   UNL     1       5.781  11.185  25.340  0.00  0.00    +0.000 A 
ATOM     28  C   UNL     1       6.277  11.610  26.565  0.00  0.00    +0.000 A 
ATOM     29  F   UNL     1       5.620  11.327  27.696  0.00  0.00    +0.000 F 
ATOM     30  C   UNL     1       7.465  12.314  26.597  0.00  0.00    +0.000 A 
ATOM     31  N   UNL     1       8.198  12.584  25.495  0.00  0.00    +0.000 NA
ENDBRANCH  24  25
ENDBRANCH  23  24
ENDBRANCH   5  23
TORSDOF 5
ENDMDL
MODEL 6
REMARK VINA RESULT:      -6.5      1.020      1.255
REMARK  Name = 
REMARK  7 active torsions:
REMARK  status: ('A' for Active; 'I' for Inactive)
REMARK    1  A    between atoms: C_1  and  C_2
REMARK    2  A    between atoms: C_5  and  C_6
REMARK    3  A    between atoms: C_11  and  C_12
REMARK    4  A    between atoms: C_16  and  C_17
REMARK    5  A    between atoms: C_17  and  O_18
REMARK    6  A    between atoms: O_18  and  C_19
REMARK    7  A    between atoms: C_29  and  C_30
REMARK                            x       y       z     vdW  Elec       q    Type
REMARK                         _______ _______ _______ _____ _____    ______ ____
ROOT
ATOM      1  C   UNL     1      -0.493  13.430  22.387  0.00  0.00    +0.000 C 
ATOM      2  O   UNL     1       0.378  14.192  22.806  0.00  0.00    +0.000 OA
ATOM      3  N   UNL     1      -1.897  13.579  22.640  0.00  0.00    +0.000 N 
ATOM      4  C   UNL     1      -2.806  12.426  22.554  0.00  0.00    +0.000 C 
ATOM      5  C   UNL     1      -4.076  12.562  21.720  0.00  0.00    +0.000 C 
ATOM      6  C   UNL     1      -5.113  13.384  22.468  0.00  0.00    +0.000 C 
ATOM      7  C   UNL     1      -4.965  14.889  22.388  0.00  0.00    +0.000 C 
ATOM      8  C   UNL     1      -3.560  15.498  22.433  0.00  0.00    +0.000 C 
ATOM      9  C   UNL     1      -2.479  14.800  23.302  0.00  0.00    +0.000 C 
ATOM     10  C   UNL     1      -1.487  15.903  23.704  0.00  0.00    +0.000 C 
ENDROOT
BRANCH   1  16
ATOM     11  C   UNL     1      -0.483   8.502  21.761  0.00  0.00    +0.000 C 
ATOM     12  C   UNL     1       0.018   9.834  21.286  0.00  0.00    +0.000 A 
ATOM     13  C   UNL     1       0.524   9.992  20.001  0.00  0.00    +0.000 A 
ATOM     14  C   UNL     1       0.855  11.267  19.537  0.00  0.00    +0.000 A 
ATOM     15  C   UNL     1       0.607  12.429  20.305  0.00  0.00    +0.000 A 
ATOM     16  C   UNL     1       0.003  12.268  21.569  0.00  0.00    +0.000 A 
ATOM     17  C   UNL     1      -0.133  10.968  22.094  0.00  0.00    +0.000 A 
BRANCH  15  18
ATOM     18  C   UNL     1       1.011  13.734  19.749  0.00  0.00    +0.000 A 
ATOM     19  N   UNL     1       2.228  14.244  19.757  0.00  0.00    +0.000 NA
ATOM     20  C   UNL     1       2.238  15.462  19.105  0.00  0.00    +0.000 A 
ATOM     21  C   UNL     1       1.018  15.914  18.657  0.00  0.00    +0.000 A 
ATOM     22  S   UNL     1      -0.179  14.744  18.992  0.00  0.00    +0.000 S 
ENDBRANCH  15  18
ENDBRANCH   1  16
BRANCH   5  23
ATOM     23  C   UNL     1      -3.773  13.005  20.283  0.00  0.00    +0.000 C 
BRANCH  23  24
ATOM     24  O   UNL     1      -2.731  12.186  19.731  0.00  0.00    +0.000 OA
BRANCH  24  25
ATOM     25  C   UNL     1      -3.071  11.695  18.483  0.00  0.00    +0.000 A 
ATOM     26  C   UNL     1      -4.419  11.686  18.158  0.00  0.00    +0.000 A 
ATOM     27  C   UNL     1      -4.791  11.242  16.889  0.00  0.00    +0.000 A 
ATOM     28  C   UNL     1      -3.806  10.797  16.019  0.00  0.00    +0.000 A 
ATOM     29  F   UNL     1      -4.128  10.379  14.789  0.00  0.00    +0.000 F 
ATOM     30  C   UNL     1      -2.490  10.807  16.438  0.00  0.00    +0.000 A 
ATOM     31  N   UNL     1      -2.099  11.265  17.647  0.00  0.00    +0.000 NA
ENDBRANCH  24  25
ENDBRANCH  23  24
ENDBRANCH   5  23
TORSDOF 5
ENDMDL
MODEL 7
REMARK VINA RESULT:      -6.4      2.701      5.074
REMARK  Name = 
REMARK  7 active torsions:
REMARK  status: ('A' for Active; 'I' for Inactive)
REMARK    1  A    between atoms: C_1  and  C_2
REMARK    2  A    between atoms: C_5  and  C_6
REMARK    3  A    between atoms: C_11  and  C_12
REMARK    4  A    between atoms: C_16  and  C_17
REMARK    5  A    between atoms: C_17  and  O_18
REMARK    6  A    between atoms: O_18  and  C_19
REMARK    7  A    between atoms: C_29  and  C_30
REMARK                            x       y       z     vdW  Elec       q    Type
REMARK                         _______ _______ _______ _____ _____    ______ ____
ROOT
ATOM      1  C   UNL     1       0.040  11.651  20.879  0.00  0.00    +0.000 C 
ATOM      2  O   UNL     1       1.000  11.060  21.374  0.00  0.00    +0.000 OA
ATOM      3  N   UNL     1      -0.415  11.480  19.529  0.00  0.00    +0.000 N 
ATOM      4  C   UNL     1      -1.205  12.524  18.860  0.00  0.00    +0.000 C 
ATOM      5  C   UNL     1      -2.503  12.123  18.169  0.00  0.00    +0.000 C 
ATOM      6  C   UNL     1      -2.207  11.435  16.846  0.00  0.00    +0.000 C 
ATOM      7  C   UNL     1      -1.853   9.964  16.917  0.00  0.00    +0.000 C 
ATOM      8  C   UNL     1      -0.975   9.468  18.069  0.00  0.00    +0.000 C 
ATOM      9  C   UNL     1       0.129  10.412  18.617  0.00  0.00    +0.000 C 
ATOM     10  C   UNL     1       1.215   9.494  19.202  0.00  0.00    +0.000 C 
ENDROOT
BRANCH   1  16
ATOM     11  C   UNL     1      -3.674  12.369  24.099  0.00  0.00    +0.000 C 
ATOM     12  C   UNL     1      -2.513  12.967  23.359  0.00  0.00    +0.000 A 
ATOM     13  C   UNL     1      -1.917  14.144  23.795  0.00  0.00    +0.000 A 
ATOM     14  C   UNL     1      -0.755  14.605  23.172  0.00  0.00    +0.000 A 
ATOM     15  C   UNL     1      -0.104  13.861  22.159  0.00  0.00    +0.000 A 
ATOM     16  C   UNL     1      -0.663  12.620  21.790  0.00  0.00    +0.000 A 
ATOM     17  C   UNL     1      -1.936  12.276  22.286  0.00  0.00    +0.000 A 
BRANCH  15  18
ATOM     18  C   UNL     1       1.104  14.434  21.537  0.00  0.00    +0.000 A 
ATOM     19  N   UNL     1       2.336  14.352  22.001  0.00  0.00    +0.000 NA
ATOM     20  C   UNL     1       3.215  14.966  21.129  0.00  0.00    +0.000 A 
ATOM     21  C   UNL     1       2.648  15.573  20.032  0.00  0.00    +0.000 A 
ATOM     22  S   UNL     1       0.961  15.307  20.045  0.00  0.00    +0.000 S 
ENDBRANCH  15  18
ENDBRANCH   1  16
BRANCH   5  23
ATOM     23  C   UNL     1      -3.452  11.378  19.118  0.00  0.00    +0.000 C 
BRANCH  23  24
ATOM     24  O   UNL     1      -4.813  11.595  18.715  0.00  0.00    +0.000 OA
BRANCH  24  25
ATOM     25  C   UNL     1      -5.603  12.002  19.775  0.00  0.00    +0.000 A 
ATOM     26  C   UNL     1      -6.755  11.267  20.017  0.00  0.00    +0.000 A 
ATOM     27  C   UNL     1      -7.549  11.620  21.108  0.00  0.00    +0.000 A 
ATOM     28  C   UNL     1      -7.176  12.709  21.883  0.00  0.00    +0.000 A 
ATOM     29  F   UNL     1      -7.907  13.066  22.946  0.00  0.00    +0.000 F 
ATOM     30  C   UNL     1      -6.031  13.407  21.550  0.00  0.00    +0.000 A 
ATOM     31  N   UNL     1      -5.226  13.064  20.521  0.00  0.00    +0.000 NA
ENDBRANCH  24  25
ENDBRANCH  23  24
ENDBRANCH   5  23
TORSDOF 5
ENDMDL
MODEL 8
REMARK VINA RESULT:      -6.4      0.867      1.121
REMARK  Name = 
REMARK  7 active torsions:
REMARK  status: ('A' for Active; 'I' for Inactive)
REMARK    1  A    between atoms: C_1  and  C_2
REMARK    2  A    between atoms: C_5  and  C_6
REMARK    3  A    between atoms: C_11  and  C_12
REMARK    4  A    between atoms: C_16  and  C_17
REMARK    5  A    between atoms: C_17  and  O_18
REMARK    6  A    between atoms: O_18  and  C_19
REMARK    7  A    between atoms: C_29  and  C_30
REMARK                            x       y       z     vdW  Elec       q    Type
REMARK                         _______ _______ _______ _____ _____    ______ ____
ROOT
ATOM      1  C   UNL     1       0.115  13.624  22.066  0.00  0.00    +0.000 C 
ATOM      2  O   UNL     1       0.973  14.434  22.417  0.00  0.00    +0.000 OA
ATOM      3  N   UNL     1      -1.211  13.554  22.611  0.00  0.00    +0.000 N 
ATOM      4  C   UNL     1      -1.995  12.313  22.531  0.00  0.00    +0.000 C 
ATOM      5  C   UNL     1      -3.421  12.387  21.995  0.00  0.00    +0.000 C 
ATOM      6  C   UNL     1      -4.352  12.962  23.049  0.00  0.00    +0.000 C 
ATOM      7  C   UNL     1      -4.378  14.472  23.174  0.00  0.00    +0.000 C 
ATOM      8  C   UNL     1      -3.066  15.249  23.033  0.00  0.00    +0.000 C 
ATOM      9  C   UNL     1      -1.758  14.593  23.554  0.00  0.00    +0.000 C 
ATOM     10  C   UNL     1      -0.821  15.756  23.917  0.00  0.00    +0.000 C 
ENDROOT
BRANCH   1  16
ATOM     11  C   UNL     1       0.781   8.863  20.818  0.00  0.00    +0.000 C 
ATOM     12  C   UNL     1       0.886  10.301  20.404  0.00  0.00    +0.000 A 
ATOM     13  C   UNL     1       0.958  10.656  19.062  0.00  0.00    +0.000 A 
ATOM     14  C   UNL     1       0.915  12.003  18.698  0.00  0.00    +0.000 A 
ATOM     15  C   UNL     1       0.708  13.030  19.650  0.00  0.00    +0.000 A 
ATOM     16  C   UNL     1       0.539  12.653  20.999  0.00  0.00    +0.000 A 
ATOM     17  C   UNL     1       0.787  11.316  21.365  0.00  0.00    +0.000 A 
BRANCH  15  18
ATOM     18  C   UNL     1       0.702  14.428  19.182  0.00  0.00    +0.000 A 
ATOM     19  N   UNL     1      -0.363  15.153  18.897  0.00  0.00    +0.000 NA
ATOM     20  C   UNL     1       0.014  16.432  18.536  0.00  0.00    +0.000 A 
ATOM     21  C   UNL     1       1.369  16.666  18.480  0.00  0.00    +0.000 A 
ATOM     22  S   UNL     1       2.208  15.262  18.970  0.00  0.00    +0.000 S 
ENDBRANCH  15  18
ENDBRANCH   1  16
BRANCH   5  23
ATOM     23  C   UNL     1      -3.479  13.048  20.611  0.00  0.00    +0.000 C 
BRANCH  23  24
ATOM     24  O   UNL     1      -4.502  12.425  19.818  0.00  0.00    +0.000 OA
BRANCH  24  25
ATOM     25  C   UNL     1      -3.999  11.933  18.627  0.00  0.00    +0.000 A 
ATOM     26  C   UNL     1      -4.918  11.652  17.626  0.00  0.00    +0.000 A 
ATOM     27  C   UNL     1      -4.439  11.201  16.396  0.00  0.00    +0.000 A 
ATOM     28  C   UNL     1      -3.073  11.019  16.234  0.00  0.00    +0.000 A 
ATOM     29  F   UNL     1      -2.580  10.602  15.062  0.00  0.00    +0.000 F 
ATOM     30  C   UNL     1      -2.232  11.290  17.296  0.00  0.00    +0.000 A 
ATOM     31  N   UNL     1      -2.665  11.763  18.485  0.00  0.00    +0.000 NA
ENDBRANCH  24  25
ENDBRANCH  23  24
ENDBRANCH   5  23
TORSDOF 5
ENDMDL
MODEL 9
REMARK VINA RESULT:      -6.4      1.621      1.922
REMARK  Name = 
REMARK  7 active torsions:
REMARK  status: ('A' for Active; 'I' for Inactive)
REMARK    1  A    between atoms: C_1  and  C_2
REMARK    2  A    between atoms: C_5  and  C_6
REMARK    3  A    between atoms: C_11  and  C_12
REMARK    4  A    between atoms: C_16  and  C_17
REMARK    5  A    between atoms: C_17  and  O_18
REMARK    6  A    between atoms: O_18  and  C_19
REMARK    7  A    between atoms: C_29  and  C_30
REMARK                            x       y       z     vdW  Elec       q    Type
REMARK                         _______ _______ _______ _____ _____    ______ ____
ROOT
ATOM      1  C   UNL     1      -1.613  13.676  23.508  0.00  0.00    +0.000 C 
ATOM      2  O   UNL     1      -0.931  14.416  24.218  0.00  0.00    +0.000 OA
ATOM      3  N   UNL     1      -3.047  13.653  23.496  0.00  0.00    +0.000 N 
ATOM      4  C   UNL     1      -3.780  12.464  23.034  0.00  0.00    +0.000 C 
ATOM      5  C   UNL     1      -4.883  12.648  21.998  0.00  0.00    +0.000 C 
ATOM      6  C   UNL     1      -6.131  13.220  22.651  0.00  0.00    +0.000 C 
ATOM      7  C   UNL     1      -6.153  14.721  22.860  0.00  0.00    +0.000 C 
ATOM      8  C   UNL     1      -4.864  15.428  23.289  0.00  0.00    +0.000 C 
ATOM      9  C   UNL     1      -3.883  14.672  24.225  0.00  0.00    +0.000 C 
ATOM     10  C   UNL     1      -3.121  15.759  25.001  0.00  0.00    +0.000 C 
ENDROOT
BRANCH   1  16
ATOM     11  C   UNL     1      -0.622   8.953  22.330  0.00  0.00    +0.000 C 
ATOM     12  C   UNL     1      -0.342  10.403  22.066  0.00  0.00    +0.000 A 
ATOM     13  C   UNL     1       0.231  10.816  20.869  0.00  0.00    +0.000 A 
ATOM     14  C   UNL     1       0.353  12.178  20.591  0.00  0.00    +0.000 A 
ATOM     15  C   UNL     1      -0.174  13.168  21.456  0.00  0.00    +0.000 A 
ATOM     16  C   UNL     1      -0.840  12.738  22.622  0.00  0.00    +0.000 A 
ATOM     17  C   UNL     1      -0.772  11.376  22.978  0.00  0.00    +0.000 A 
BRANCH  15  18
ATOM     18  C   UNL     1       0.022  14.585  21.098  0.00  0.00    +0.000 A 
ATOM     19  N   UNL     1       1.081  15.323  21.378  0.00  0.00    +0.000 NA
ATOM     20  C   UNL     1       0.932  16.589  20.845  0.00  0.00    +0.000 A 
ATOM     21  C   UNL     1      -0.266  16.840  20.216  0.00  0.00    +0.000 A 
ATOM     22  S   UNL     1      -1.217  15.422  20.220  0.00  0.00    +0.000 S 
ENDBRANCH  15  18
ENDBRANCH   1  16
BRANCH   5  23
ATOM     23  C   UNL     1      -4.380  13.380  20.748  0.00  0.00    +0.000 C 
BRANCH  23  24
ATOM     24  O   UNL     1      -5.122  12.946  19.598  0.00  0.00    +0.000 OA
BRANCH  24  25
ATOM     25  C   UNL     1      -4.340  12.195  18.737  0.00  0.00    +0.000 A 
ATOM     26  C   UNL     1      -4.949  11.731  17.580  0.00  0.00    +0.000 A 
ATOM     27  C   UNL     1      -4.176  11.013  16.668  0.00  0.00    +0.000 A 
ATOM     28  C   UNL     1      -2.845  10.761  16.969  0.00  0.00    +0.000 A 
ATOM     29  F   UNL     1      -2.072  10.087  16.109  0.00  0.00    +0.000 F 
ATOM     30  C   UNL     1      -2.329  11.230  18.162  0.00  0.00    +0.000 A 
ATOM     31  N   UNL     1      -3.045  11.959  19.045  0.00  0.00    +0.000 NA
ENDBRANCH  24  25
ENDBRANCH  23  24
ENDBRANCH   5  23
TORSDOF 5
ENDMDL
