MODEL 1
REMARK VINA RESULT:      -6.4      0.000      0.000
REMARK  Name = 
REMARK  13 active torsions:
REMARK  status: ('A' for Active; 'I' for Inactive)
REMARK    1  A    between atoms: C_2  and  C_3
REMARK    2  A    between atoms: C_3  and  S_4
REMARK    3  A    between atoms: S_4  and  C_5
REMARK    4  A    between atoms: C_7  and  C_8
REMARK    5  A    between atoms: C_11  and  O_12
REMARK    6  A    between atoms: O_12  and  C_13
REMARK    7  A    between atoms: C_14  and  O_15
REMARK    8  A    between atoms: O_15  and  C_16
REMARK    9  A    between atoms: N_18  and  S_19
REMARK   10  A    between atoms: S_19  and  C_22
REMARK   11  A    between atoms: C_25  and  C_26
REMARK   12  A    between atoms: C_30  and  C_31
REMARK   13  A    between atoms: C_31  and  O_33
REMARK                            x       y       z     vdW  Elec       q    Type
REMARK                         _______ _______ _______ _____ _____    ______ ____
ROOT
ATOM      1  C   UNL     1       1.206  14.811  19.957  0.00  0.00    +0.000 C 
ATOM      2  C   UNL     1      -0.127  14.255  19.440  0.00  0.00    +0.000 C 
ATOM      3  C   UNL     1      -0.514  12.862  19.999  0.00  0.00    +0.000 C 
ATOM      4  N   UNL     1       0.653  11.871  19.886  0.00  0.00    +0.000 NA
ATOM      5  C   UNL     1       1.935  12.446  20.448  0.00  0.00    +0.000 C 
ATOM      6  C   UNL     1       2.298  13.760  19.774  0.00  0.00    +0.000 C 
ENDROOT
BRANCH   3   7
ATOM      7  C   UNL     1      -1.761  12.443  19.231  0.00  0.00    +0.000 A 
ATOM      8  C   UNL     1      -3.018  12.416  19.838  0.00  0.00    +0.000 A 
ATOM      9  C   UNL     1      -4.146  12.063  19.104  0.00  0.00    +0.000 A 
ATOM     10  C   UNL     1      -4.044  11.636  17.777  0.00  0.00    +0.000 A 
ATOM     11  C   UNL     1      -2.776  11.554  17.177  0.00  0.00    +0.000 A 
ATOM     12  C   UNL     1      -1.652  11.986  17.906  0.00  0.00    +0.000 A 
BRANCH  10  13
ATOM     13  O   UNL     1      -5.274  11.353  17.245  0.00  0.00    +0.000 OA
ATOM     14  C   UNL     1      -6.283  12.348  17.279  0.00  0.00    +0.000 C 
ENDBRANCH  10  13
BRANCH  11  15
ATOM     15  O   UNL     1      -2.692  11.053  15.906  0.00  0.00    +0.000 OA
ATOM     16  C   UNL     1      -2.741   9.644  15.726  0.00  0.00    +0.000 C 
ENDBRANCH  11  15
ENDBRANCH   3   7
BRANCH   4  17
ATOM     17  S   UNL     1       0.325  10.326  20.713  0.00  0.00    +0.000 S 
ATOM     18  O   UNL     1       0.941  10.409  22.020  0.00  0.00    +0.000 OA
ATOM     19  O   UNL     1      -1.084  10.035  20.564  0.00  0.00    +0.000 OA
BRANCH  17  20
ATOM     20  C   UNL     1       1.283   9.138  19.808  0.00  0.00    +0.000 A 
ATOM     21  C   UNL     1       1.596   9.406  18.469  0.00  0.00    +0.000 A 
ATOM     22  C   UNL     1       2.306   8.460  17.726  0.00  0.00    +0.000 A 
ATOM     23  C   UNL     1       2.720   7.259  18.316  0.00  0.00    +0.000 A 
ATOM     24  C   UNL     1       3.455   6.222  17.519  0.00  0.00    +0.000 C 
ATOM     25  C   UNL     1       2.442   7.030  19.672  0.00  0.00    +0.000 A 
ATOM     26  C   UNL     1       1.728   7.968  20.423  0.00  0.00    +0.000 A 
ENDBRANCH  17  20
ENDBRANCH   4  17
BRANCH   6  27
ATOM     27  C   UNL     1       2.641  13.619  18.301  0.00  0.00    +0.000 C 
ATOM     28  O   UNL     1       3.039  14.557  17.629  0.00  0.00    +0.000 OA
BRANCH  27  29
ATOM     29  O   UNL     1       2.407  12.404  17.762  0.00  0.00    +0.000 OA
ATOM     30  H   UNL     1       3.189  12.023  17.303  0.00  0.00    +0.000 HD
ENDBRANCH  27  29
ENDBRANCH   6  27
BRANCH   1  31
ATOM     31  S   UNL     1       0.999  15.348  21.717  0.00  0.00    +0.000 S 
BRANCH  31  32
ATOM     32  C   UNL     1       0.050  16.890  21.488  0.00  0.00    +0.000 C 
BRANCH  32  34
ATOM     33  C   UNL     1      -1.673  18.133  22.821  0.00  0.00    +0.000 C 
ATOM     34  C   UNL     1      -0.757  17.157  22.718  0.00  0.00    +0.000 C 
ENDBRANCH  32  34
ENDBRANCH  31  32
ENDBRANCH   1  31
TORSDOF 10
ENDMDL
MODEL 2
REMARK VINA RESULT:      -6.4      1.005      1.899
REMARK  Name = 
REMARK  13 active torsions:
REMARK  status: ('A' for Active; 'I' for Inactive)
REMARK    1  A    between atoms: C_2  and  C_3
REMARK    2  A    between atoms: C_3  and  S_4
REMARK    3  A    between atoms: S_4  and  C_5
REMARK    4  A    between atoms: C_7  and  C_8
REMARK    5  A    between atoms: C_11  and  O_12
REMARK    6  A    between atoms: O_12  and  C_13
REMARK    7  A    between atoms: C_14  and  O_15
REMARK    8  A    between atoms: O_15  and  C_16
REMARK    9  A    between atoms: N_18  and  S_19
REMARK   10  A    between atoms: S_19  and  C_22
REMARK   11  A    between atoms: C_25  and  C_26
REMARK   12  A    between atoms: C_30  and  C_31
REMARK   13  A    between atoms: C_31  and  O_33
REMARK                            x       y       z     vdW  Elec       q    Type
REMARK                         _______ _______ _______ _____ _____    ______ ____
ROOT
ATOM      1  C   UNL     1       0.721  14.755  19.519  0.00  0.00    +0.000 C 
ATOM      2  C   UNL     1      -0.365  13.917  18.832  0.00  0.00    +0.000 C 
ATOM      3  C   UNL     1      -0.636  12.538  19.487  0.00  0.00    +0.000 C 
ATOM      4  N   UNL     1       0.670  11.771  19.734  0.00  0.00    +0.000 NA
ATOM      5  C   UNL     1       1.695  12.622  20.451  0.00  0.00    +0.000 C 
ATOM      6  C   UNL     1       1.980  13.908  19.692  0.00  0.00    +0.000 C 
ENDROOT
BRANCH   3   7
ATOM      7  C   UNL     1      -1.608  11.826  18.554  0.00  0.00    +0.000 A 
ATOM      8  C   UNL     1      -1.168  11.172  17.402  0.00  0.00    +0.000 A 
ATOM      9  C   UNL     1      -2.073  10.499  16.586  0.00  0.00    +0.000 A 
ATOM     10  C   UNL     1      -3.447  10.539  16.839  0.00  0.00    +0.000 A 
ATOM     11  C   UNL     1      -3.923  11.279  17.934  0.00  0.00    +0.000 A 
ATOM     12  C   UNL     1      -2.992  11.892  18.795  0.00  0.00    +0.000 A 
BRANCH  10  13
ATOM     13  O   UNL     1      -4.147   9.800  15.923  0.00  0.00    +0.000 OA
ATOM     14  C   UNL     1      -3.871   9.975  14.543  0.00  0.00    +0.000 C 
ENDBRANCH  10  13
BRANCH  11  15
ATOM     15  O   UNL     1      -5.276  11.373  18.113  0.00  0.00    +0.000 OA
ATOM     16  C   UNL     1      -5.854  12.662  18.269  0.00  0.00    +0.000 C 
ENDBRANCH  11  15
ENDBRANCH   3   7
BRANCH   4  17
ATOM     17  S   UNL     1       0.422  10.280  20.680  0.00  0.00    +0.000 S 
ATOM     18  O   UNL     1       1.111  10.461  21.939  0.00  0.00    +0.000 OA
ATOM     19  O   UNL     1      -0.987   9.956  20.634  0.00  0.00    +0.000 OA
BRANCH  17  20
ATOM     20  C   UNL     1       1.350   9.049  19.800  0.00  0.00    +0.000 A 
ATOM     21  C   UNL     1       1.682   9.287  18.460  0.00  0.00    +0.000 A 
ATOM     22  C   UNL     1       2.368   8.308  17.737  0.00  0.00    +0.000 A 
ATOM     23  C   UNL     1       2.741   7.105  18.349  0.00  0.00    +0.000 A 
ATOM     24  C   UNL     1       3.450   6.033  17.574  0.00  0.00    +0.000 C 
ATOM     25  C   UNL     1       2.446   6.905  19.706  0.00  0.00    +0.000 A 
ATOM     26  C   UNL     1       1.755   7.876  20.437  0.00  0.00    +0.000 A 
ENDBRANCH  17  20
ENDBRANCH   4  17
BRANCH   6  27
ATOM     27  C   UNL     1       2.648  13.689  18.345  0.00  0.00    +0.000 C 
ATOM     28  O   UNL     1       3.082  14.611  17.673  0.00  0.00    +0.000 OA
BRANCH  27  29
ATOM     29  O   UNL     1       2.664  12.414  17.904  0.00  0.00    +0.000 OA
ATOM     30  H   UNL     1       2.674  11.750  18.629  0.00  0.00    +0.000 HD
ENDBRANCH  27  29
ENDBRANCH   6  27
BRANCH   1  31
ATOM     31  S   UNL     1       0.061  15.414  21.118  0.00  0.00    +0.000 S 
BRANCH  31  32
ATOM     32  C   UNL     1      -0.028  17.196  20.735  0.00  0.00    +0.000 C 
BRANCH  32  34
ATOM     33  C   UNL     1      -2.189  17.539  19.508  0.00  0.00    +0.000 C 
ATOM     34  C   UNL     1      -0.855  17.393  19.504  0.00  0.00    +0.000 C 
ENDBRANCH  32  34
ENDBRANCH  31  32
ENDBRANCH   1  31
TORSDOF 10
ENDMDL
MODEL 3
REMARK VINA RESULT:      -6.3      0.817      1.169
REMARK  Name = 
REMARK  13 active torsions:
REMARK  status: ('A' for Active; 'I' for Inactive)
REMARK    1  A    between atoms: C_2  and  C_3
REMARK    2  A    between atoms: C_3  and  S_4
REMARK    3  A    between atoms: S_4  and  C_5
REMARK    4  A    between atoms: C_7  and  C_8
REMARK    5  A    between atoms: C_11  and  O_12
REMARK    6  A    between atoms: O_12  and  C_13
REMARK    7  A    between atoms: C_14  and  O_15
REMARK    8  A    between atoms: O_15  and  C_16
REMARK    9  A    between atoms: N_18  and  S_19
REMARK   10  A    between atoms: S_19  and  C_22
REMARK   11  A    between atoms: C_25  and  C_26
REMARK   12  A    between atoms: C_30  and  C_31
REMARK   13  A    between atoms: C_31  and  O_33
REMARK                            x       y       z     vdW  Elec       q    Type
REMARK                         _______ _______ _______ _____ _____    ______ ____
ROOT
ATOM      1  C   UNL     1       1.242  14.661  19.859  0.00  0.00    +0.000 C 
ATOM      2  C   UNL     1      -0.093  14.112  19.342  0.00  0.00    +0.000 C 
ATOM      3  C   UNL     1      -0.515  12.747  19.945  0.00  0.00    +0.000 C 
ATOM      4  N   UNL     1       0.634  11.732  19.884  0.00  0.00    +0.000 NA
ATOM      5  C   UNL     1       1.919  12.303  20.443  0.00  0.00    +0.000 C 
ATOM      6  C   UNL     1       2.317  13.585  19.729  0.00  0.00    +0.000 C 
ENDROOT
BRANCH   3   7
ATOM      7  C   UNL     1      -1.759  12.325  19.174  0.00  0.00    +0.000 A 
ATOM      8  C   UNL     1      -3.009  12.249  19.789  0.00  0.00    +0.000 A 
ATOM      9  C   UNL     1      -4.136  11.893  19.054  0.00  0.00    +0.000 A 
ATOM     10  C   UNL     1      -4.036  11.512  17.712  0.00  0.00    +0.000 A 
ATOM     11  C   UNL     1      -2.772  11.479  17.100  0.00  0.00    +0.000 A 
ATOM     12  C   UNL     1      -1.651  11.914  17.833  0.00  0.00    +0.000 A 
BRANCH  10  13
ATOM     13  O   UNL     1      -5.264  11.218  17.182  0.00  0.00    +0.000 OA
ATOM     14  C   UNL     1      -6.429  11.580  17.904  0.00  0.00    +0.000 C 
ENDBRANCH  10  13
BRANCH  11  15
ATOM     15  O   UNL     1      -2.688  11.022  15.812  0.00  0.00    +0.000 OA
ATOM     16  C   UNL     1      -2.875   9.634  15.570  0.00  0.00    +0.000 C 
ENDBRANCH  11  15
ENDBRANCH   3   7
BRANCH   4  17
ATOM     17  S   UNL     1       0.266  10.223  20.760  0.00  0.00    +0.000 S 
ATOM     18  O   UNL     1       0.870  10.338  22.069  0.00  0.00    +0.000 OA
ATOM     19  O   UNL     1      -1.148   9.958  20.606  0.00  0.00    +0.000 OA
BRANCH  17  20
ATOM     20  C   UNL     1       1.206   8.985  19.906  0.00  0.00    +0.000 A 
ATOM     21  C   UNL     1       1.530   9.195  18.559  0.00  0.00    +0.000 A 
ATOM     22  C   UNL     1       2.226   8.209  17.856  0.00  0.00    +0.000 A 
ATOM     23  C   UNL     1       2.617   7.025  18.495  0.00  0.00    +0.000 A 
ATOM     24  C   UNL     1       3.337   5.945  17.742  0.00  0.00    +0.000 C 
ATOM     25  C   UNL     1       2.329   6.853  19.857  0.00  0.00    +0.000 A 
ATOM     26  C   UNL     1       1.628   7.832  20.567  0.00  0.00    +0.000 A 
ENDBRANCH  17  20
ENDBRANCH   4  17
BRANCH   6  27
ATOM     27  C   UNL     1       2.678  13.385  18.267  0.00  0.00    +0.000 C 
ATOM     28  O   UNL     1       2.649  12.288  17.731  0.00  0.00    +0.000 OA
BRANCH  27  29
ATOM     29  O   UNL     1       3.105  14.487  17.617  0.00  0.00    +0.000 OA
ATOM     30  H   UNL     1       3.208  15.270  18.203  0.00  0.00    +0.000 HD
ENDBRANCH  27  29
ENDBRANCH   6  27
BRANCH   1  31
ATOM     31  S   UNL     1       1.021  15.264  21.595  0.00  0.00    +0.000 S 
BRANCH  31  32
ATOM     32  C   UNL     1       1.312  17.052  21.369  0.00  0.00    +0.000 C 
BRANCH  32  34
ATOM     33  C   UNL     1       1.100  18.630  19.431  0.00  0.00    +0.000 C 
ATOM     34  C   UNL     1       1.222  17.384  19.913  0.00  0.00    +0.000 C 
ENDBRANCH  32  34
ENDBRANCH  31  32
ENDBRANCH   1  31
TORSDOF 10
ENDMDL
MODEL 4
REMARK VINA RESULT:      -6.3      1.893      6.614
REMARK  Name = 
REMARK  13 active torsions:
REMARK  status: ('A' for Active; 'I' for Inactive)
REMARK    1  A    between atoms: C_2  and  C_3
REMARK    2  A    between atoms: C_3  and  S_4
REMARK    3  A    between atoms: S_4  and  C_5
REMARK    4  A    between atoms: C_7  and  C_8
REMARK    5  A    between atoms: C_11  and  O_12
REMARK    6  A    between atoms: O_12  and  C_13
REMARK    7  A    between atoms: C_14  and  O_15
REMARK    8  A    between atoms: O_15  and  C_16
REMARK    9  A    between atoms: N_18  and  S_19
REMARK   10  A    between atoms: S_19  and  C_22
REMARK   11  A    between atoms: C_25  and  C_26
REMARK   12  A    between atoms: C_30  and  C_31
REMARK   13  A    between atoms: C_31  and  O_33
REMARK                            x       y       z     vdW  Elec       q    Type
REMARK                         _______ _______ _______ _____ _____    ______ ____
ROOT
ATOM      1  C   UNL     1       0.524   9.220  20.345  0.00  0.00    +0.000 C 
ATOM      2  C   UNL     1      -0.748   9.653  19.605  0.00  0.00    +0.000 C 
ATOM      3  C   UNL     1      -0.722  11.102  19.055  0.00  0.00    +0.000 C 
ATOM      4  N   UNL     1      -0.265  12.098  20.129  0.00  0.00    +0.000 NA
ATOM      5  C   UNL     1       1.015  11.652  20.802  0.00  0.00    +0.000 C 
ATOM      6  C   UNL     1       0.873  10.263  21.404  0.00  0.00    +0.000 C 
ENDROOT
BRANCH   3   7
ATOM      7  C   UNL     1      -2.124  11.364  18.521  0.00  0.00    +0.000 A 
ATOM      8  C   UNL     1      -3.124  11.908  19.330  0.00  0.00    +0.000 A 
ATOM      9  C   UNL     1      -4.387  12.169  18.808  0.00  0.00    +0.000 A 
ATOM     10  C   UNL     1      -4.720  11.810  17.498  0.00  0.00    +0.000 A 
ATOM     11  C   UNL     1      -3.761  11.164  16.699  0.00  0.00    +0.000 A 
ATOM     12  C   UNL     1      -2.465  10.974  17.214  0.00  0.00    +0.000 A 
BRANCH  10  13
ATOM     13  O   UNL     1      -6.004  12.171  17.190  0.00  0.00    +0.000 OA
ATOM     14  C   UNL     1      -7.037  11.902  18.123  0.00  0.00    +0.000 C 
ENDBRANCH  10  13
BRANCH  11  15
ATOM     15  O   UNL     1      -4.136  10.746  15.451  0.00  0.00    +0.000 OA
ATOM     16  C   UNL     1      -3.146  10.193  14.593  0.00  0.00    +0.000 C 
ENDBRANCH  11  15
ENDBRANCH   3   7
BRANCH   4  17
ATOM     17  S   UNL     1      -0.012  13.740  19.481  0.00  0.00    +0.000 S 
ATOM     18  O   UNL     1       1.308  14.159  19.900  0.00  0.00    +0.000 OA
ATOM     19  O   UNL     1      -0.387  13.726  18.084  0.00  0.00    +0.000 OA
BRANCH  17  20
ATOM     20  C   UNL     1      -1.148  14.748  20.399  0.00  0.00    +0.000 A 
ATOM     21  C   UNL     1      -1.468  16.020  19.906  0.00  0.00    +0.000 A 
ATOM     22  C   UNL     1      -2.320  16.848  20.640  0.00  0.00    +0.000 A 
ATOM     23  C   UNL     1      -2.869  16.405  21.850  0.00  0.00    +0.000 A 
ATOM     24  C   UNL     1      -3.761  17.297  22.664  0.00  0.00    +0.000 C 
ATOM     25  C   UNL     1      -2.579  15.109  22.303  0.00  0.00    +0.000 A 
ATOM     26  C   UNL     1      -1.722  14.276  21.578  0.00  0.00    +0.000 A 
ENDBRANCH  17  20
ENDBRANCH   4  17
BRANCH   6  27
ATOM     27  C   UNL     1      -0.120  10.192  22.551  0.00  0.00    +0.000 C 
ATOM     28  O   UNL     1      -0.606   9.138  22.931  0.00  0.00    +0.000 OA
BRANCH  27  29
ATOM     29  O   UNL     1      -0.490  11.378  23.076  0.00  0.00    +0.000 OA
ATOM     30  H   UNL     1      -0.037  11.588  23.924  0.00  0.00    +0.000 HD
ENDBRANCH  27  29
ENDBRANCH   6  27
BRANCH   1  31
ATOM     31  S   UNL     1       1.881   8.948  19.116  0.00  0.00    +0.000 S 
BRANCH  31  32
ATOM     32  C   UNL     1       2.329   7.218  19.488  0.00  0.00    +0.000 C 
BRANCH  32  34
ATOM     33  C   UNL     1       3.918   6.828  17.587  0.00  0.00    +0.000 C 
ATOM     34  C   UNL     1       2.774   6.544  18.229  0.00  0.00    +0.000 C 
ENDBRANCH  32  34
ENDBRANCH  31  32
ENDBRANCH   1  31
TORSDOF 10
ENDMDL
MODEL 5
REMARK VINA RESULT:      -6.3      1.303      2.293
REMARK  Name = 
REMARK  13 active torsions:
REMARK  status: ('A' for Active; 'I' for Inactive)
REMARK    1  A    between atoms: C_2  and  C_3
REMARK    2  A    between atoms: C_3  and  S_4
REMARK    3  A    between atoms: S_4  and  C_5
REMARK    4  A    between atoms: C_7  and  C_8
REMARK    5  A    between atoms: C_11  and  O_12
REMARK    6  A    between atoms: O_12  and  C_13
REMARK    7  A    between atoms: C_14  and  O_15
REMARK    8  A    between atoms: O_15  and  C_16
REMARK    9  A    between atoms: N_18  and  S_19
REMARK   10  A    between atoms: S_19  and  C_22
REMARK   11  A    between atoms: C_25  and  C_26
REMARK   12  A    between atoms: C_30  and  C_31
REMARK   13  A    between atoms: C_31  and  O_33
REMARK                            x       y       z     vdW  Elec       q    Type
REMARK                         _______ _______ _______ _____ _____    ______ ____
ROOT
ATOM      1  C   UNL     1       0.082  14.565  20.309  0.00  0.00    +0.000 C 
ATOM      2  C   UNL     1      -0.832  13.707  19.426  0.00  0.00    +0.000 C 
ATOM      3  C   UNL     1      -0.970  12.228  19.871  0.00  0.00    +0.000 C 
ATOM      4  N   UNL     1       0.403  11.595  20.134  0.00  0.00    +0.000 NA
ATOM      5  C   UNL     1       1.253  12.455  21.045  0.00  0.00    +0.000 C 
ATOM      6  C   UNL     1       1.424  13.859  20.486  0.00  0.00    +0.000 C 
ENDROOT
BRANCH   3   7
ATOM      7  C   UNL     1      -1.769  11.541  18.771  0.00  0.00    +0.000 A 
ATOM      8  C   UNL     1      -1.140  10.862  17.726  0.00  0.00    +0.000 A 
ATOM      9  C   UNL     1      -1.895  10.214  16.753  0.00  0.00    +0.000 A 
ATOM     10  C   UNL     1      -3.290  10.302  16.738  0.00  0.00    +0.000 A 
ATOM     11  C   UNL     1      -3.940  11.069  17.720  0.00  0.00    +0.000 A 
ATOM     12  C   UNL     1      -3.171  11.657  18.742  0.00  0.00    +0.000 A 
BRANCH  10  13
ATOM     13  O   UNL     1      -3.827   9.580  15.706  0.00  0.00    +0.000 OA
ATOM     14  C   UNL     1      -3.630  10.030  14.376  0.00  0.00    +0.000 C 
ENDBRANCH  10  13
BRANCH  11  15
ATOM     15  O   UNL     1      -5.299  11.210  17.636  0.00  0.00    +0.000 OA
ATOM     16  C   UNL     1      -5.892  12.395  18.152  0.00  0.00    +0.000 C 
ENDBRANCH  11  15
ENDBRANCH   3   7
BRANCH   4  17
ATOM     17  S   UNL     1       0.284   9.969  20.856  0.00  0.00    +0.000 S 
ATOM     18  O   UNL     1       0.976  10.019  22.125  0.00  0.00    +0.000 OA
ATOM     19  O   UNL     1      -1.098   9.548  20.770  0.00  0.00    +0.000 OA
BRANCH  17  20
ATOM     20  C   UNL     1       1.288   8.953  19.803  0.00  0.00    +0.000 A 
ATOM     21  C   UNL     1       1.747   7.723  20.293  0.00  0.00    +0.000 A 
ATOM     22  C   UNL     1       2.580   6.933  19.498  0.00  0.00    +0.000 A 
ATOM     23  C   UNL     1       2.940   7.355  18.211  0.00  0.00    +0.000 A 
ATOM     24  C   UNL     1       3.860   6.529  17.359  0.00  0.00    +0.000 C 
ATOM     25  C   UNL     1       2.430   8.564  17.717  0.00  0.00    +0.000 A 
ATOM     26  C   UNL     1       1.600   9.364  18.507  0.00  0.00    +0.000 A 
ENDBRANCH  17  20
ENDBRANCH   4  17
BRANCH   6  27
ATOM     27  C   UNL     1       2.212  13.909  19.187  0.00  0.00    +0.000 C 
ATOM     28  O   UNL     1       2.413  14.952  18.585  0.00  0.00    +0.000 OA
BRANCH  27  29
ATOM     29  O   UNL     1       2.612  12.715  18.702  0.00  0.00    +0.000 OA
ATOM     30  H   UNL     1       2.362  11.957  19.277  0.00  0.00    +0.000 HD
ENDBRANCH  27  29
ENDBRANCH   6  27
BRANCH   1  31
ATOM     31  S   UNL     1      -0.774  14.913  21.913  0.00  0.00    +0.000 S 
BRANCH  31  32
ATOM     32  C   UNL     1      -2.350  15.609  21.309  0.00  0.00    +0.000 C 
BRANCH  32  34
ATOM     33  C   UNL     1      -3.743  14.256  22.897  0.00  0.00    +0.000 C 
ATOM     34  C   UNL     1      -3.464  14.671  21.652  0.00  0.00    +0.000 C 
ENDBRANCH  32  34
ENDBRANCH  31  32
ENDBRANCH   1  31
TORSDOF 10
ENDMDL
MODEL 6
REMARK VINA RESULT:      -6.2      1.977      6.066
REMARK  Name = 
REMARK  13 active torsions:
REMARK  status: ('A' for Active; 'I' for Inactive)
REMARK    1  A    between atoms: C_2  and  C_3
REMARK    2  A    between atoms: C_3  and  S_4
REMARK    3  A    between atoms: S_4  and  C_5
REMARK    4  A    between atoms: C_7  and  C_8
REMARK    5  A    between atoms: C_11  and  O_12
REMARK    6  A    between atoms: O_12  and  C_13
REMARK    7  A    between atoms: C_14  and  O_15
REMARK    8  A    between atoms: O_15  and  C_16
REMARK    9  A    between atoms: N_18  and  S_19
REMARK   10  A    between atoms: S_19  and  C_22
REMARK   11  A    between atoms: C_25  and  C_26
REMARK   12  A    between atoms: C_30  and  C_31
REMARK   13  A    between atoms: C_31  and  O_33
REMARK                            x       y       z     vdW  Elec       q    Type
REMARK                         _______ _______ _______ _____ _____    ______ ____
ROOT
ATOM      1  C   UNL     1       0.505   9.248  20.343  0.00  0.00    +0.000 C 
ATOM      2  C   UNL     1      -0.769   9.679  19.606  0.00  0.00    +0.000 C 
ATOM      3  C   UNL     1      -0.743  11.123  19.045  0.00  0.00    +0.000 C 
ATOM      4  N   UNL     1      -0.278  12.127  20.110  0.00  0.00    +0.000 NA
ATOM      5  C   UNL     1       1.005  11.682  20.778  0.00  0.00    +0.000 C 
ATOM      6  C   UNL     1       0.863  10.298  21.391  0.00  0.00    +0.000 C 
ENDROOT
BRANCH   3   7
ATOM      7  C   UNL     1      -2.148  11.384  18.518  0.00  0.00    +0.000 A 
ATOM      8  C   UNL     1      -3.157  11.885  19.342  0.00  0.00    +0.000 A 
ATOM      9  C   UNL     1      -4.423  12.148  18.827  0.00  0.00    +0.000 A 
ATOM     10  C   UNL     1      -4.748  11.830  17.505  0.00  0.00    +0.000 A 
ATOM     11  C   UNL     1      -3.779  11.227  16.686  0.00  0.00    +0.000 A 
ATOM     12  C   UNL     1      -2.481  11.037  17.196  0.00  0.00    +0.000 A 
BRANCH  10  13
ATOM     13  O   UNL     1      -6.037  12.184  17.207  0.00  0.00    +0.000 OA
ATOM     14  C   UNL     1      -7.076  11.806  18.093  0.00  0.00    +0.000 C 
ENDBRANCH  10  13
BRANCH  11  15
ATOM     15  O   UNL     1      -4.145  10.848  15.422  0.00  0.00    +0.000 OA
ATOM     16  C   UNL     1      -3.196  10.161  14.616  0.00  0.00    +0.000 C 
ENDBRANCH  11  15
ENDBRANCH   3   7
BRANCH   4  17
ATOM     17  S   UNL     1      -0.025  13.763  19.448  0.00  0.00    +0.000 S 
ATOM     18  O   UNL     1       0.249  13.608  18.036  0.00  0.00    +0.000 OA
ATOM     19  O   UNL     1      -1.108  14.601  19.915  0.00  0.00    +0.000 OA
BRANCH  17  20
ATOM     20  C   UNL     1       1.504  14.293  20.176  0.00  0.00    +0.000 A 
ATOM     21  C   UNL     1       1.485  14.811  21.478  0.00  0.00    +0.000 A 
ATOM     22  C   UNL     1       2.670  15.280  22.049  0.00  0.00    +0.000 A 
ATOM     23  C   UNL     1       3.874  15.217  21.336  0.00  0.00    +0.000 A 
ATOM     24  C   UNL     1       5.148  15.747  21.927  0.00  0.00    +0.000 C 
ATOM     25  C   UNL     1       3.884  14.649  20.054  0.00  0.00    +0.000 A 
ATOM     26  C   UNL     1       2.702  14.182  19.471  0.00  0.00    +0.000 A 
ENDBRANCH  17  20
ENDBRANCH   4  17
BRANCH   6  27
ATOM     27  C   UNL     1      -0.124  10.238  22.544  0.00  0.00    +0.000 C 
ATOM     28  O   UNL     1      -0.588   9.185  22.954  0.00  0.00    +0.000 OA
BRANCH  27  29
ATOM     29  O   UNL     1      -0.514  11.430  23.041  0.00  0.00    +0.000 OA
ATOM     30  H   UNL     1      -1.104  11.353  23.825  0.00  0.00    +0.000 HD
ENDBRANCH  27  29
ENDBRANCH   6  27
BRANCH   1  31
ATOM     31  S   UNL     1       1.855   8.964  19.107  0.00  0.00    +0.000 S 
BRANCH  31  32
ATOM     32  C   UNL     1       2.318   7.244  19.506  0.00  0.00    +0.000 C 
BRANCH  32  34
ATOM     33  C   UNL     1       2.224   5.195  18.062  0.00  0.00    +0.000 C 
ATOM     34  C   UNL     1       2.540   6.488  18.235  0.00  0.00    +0.000 C 
ENDBRANCH  32  34
ENDBRANCH  31  32
ENDBRANCH   1  31
TORSDOF 10
ENDMDL
MODEL 7
REMARK VINA RESULT:      -6.1      4.442      8.661
REMARK  Name = 
REMARK  13 active torsions:
REMARK  status: ('A' for Active; 'I' for Inactive)
REMARK    1  A    between atoms: C_2  and  C_3
REMARK    2  A    between atoms: C_3  and  S_4
REMARK    3  A    between atoms: S_4  and  C_5
REMARK    4  A    between atoms: C_7  and  C_8
REMARK    5  A    between atoms: C_11  and  O_12
REMARK    6  A    between atoms: O_12  and  C_13
REMARK    7  A    between atoms: C_14  and  O_15
REMARK    8  A    between atoms: O_15  and  C_16
REMARK    9  A    between atoms: N_18  and  S_19
REMARK   10  A    between atoms: S_19  and  C_22
REMARK   11  A    between atoms: C_25  and  C_26
REMARK   12  A    between atoms: C_30  and  C_31
REMARK   13  A    between atoms: C_31  and  O_33
REMARK                            x       y       z     vdW  Elec       q    Type
REMARK                         _______ _______ _______ _____ _____    ______ ____
ROOT
ATOM      1  C   UNL     1      -6.152  13.070  19.033  0.00  0.00    +0.000 C 
ATOM      2  C   UNL     1      -4.736  13.161  19.616  0.00  0.00    +0.000 C 
ATOM      3  C   UNL     1      -4.657  13.046  21.159  0.00  0.00    +0.000 C 
ATOM      4  N   UNL     1      -5.666  13.982  21.841  0.00  0.00    +0.000 NA
ATOM      5  C   UNL     1      -7.056  13.826  21.263  0.00  0.00    +0.000 C 
ATOM      6  C   UNL     1      -7.064  14.054  19.760  0.00  0.00    +0.000 C 
ENDROOT
BRANCH   3   7
ATOM      7  C   UNL     1      -3.205  13.332  21.519  0.00  0.00    +0.000 A 
ATOM      8  C   UNL     1      -2.618  14.570  21.256  0.00  0.00    +0.000 A 
ATOM      9  C   UNL     1      -1.299  14.817  21.626  0.00  0.00    +0.000 A 
ATOM     10  C   UNL     1      -0.500  13.811  22.178  0.00  0.00    +0.000 A 
ATOM     11  C   UNL     1      -1.039  12.525  22.354  0.00  0.00    +0.000 A 
ATOM     12  C   UNL     1      -2.396  12.310  22.047  0.00  0.00    +0.000 A 
BRANCH  10  13
ATOM     13  O   UNL     1       0.753  14.274  22.478  0.00  0.00    +0.000 OA
ATOM     14  C   UNL     1       1.018  15.662  22.365  0.00  0.00    +0.000 C 
ENDBRANCH  10  13
BRANCH  11  15
ATOM     15  O   UNL     1      -0.214  11.536  22.817  0.00  0.00    +0.000 OA
ATOM     16  C   UNL     1      -0.773  10.259  23.095  0.00  0.00    +0.000 C 
ENDBRANCH  11  15
ENDBRANCH   3   7
BRANCH   4  17
ATOM     17  S   UNL     1      -5.761  13.724  23.602  0.00  0.00    +0.000 S 
ATOM     18  O   UNL     1      -7.028  14.269  24.039  0.00  0.00    +0.000 OA
ATOM     19  O   UNL     1      -5.405  12.347  23.867  0.00  0.00    +0.000 OA
BRANCH  17  20
ATOM     20  C   UNL     1      -4.520  14.804  24.267  0.00  0.00    +0.000 A 
ATOM     21  C   UNL     1      -4.682  16.188  24.116  0.00  0.00    +0.000 A 
ATOM     22  C   UNL     1      -3.691  17.051  24.588  0.00  0.00    +0.000 A 
ATOM     23  C   UNL     1      -2.552  16.543  25.224  0.00  0.00    +0.000 A 
ATOM     24  C   UNL     1      -1.465  17.459  25.707  0.00  0.00    +0.000 C 
ATOM     25  C   UNL     1      -2.430  15.158  25.412  0.00  0.00    +0.000 A 
ATOM     26  C   UNL     1      -3.414  14.285  24.939  0.00  0.00    +0.000 A 
ENDBRANCH  17  20
ENDBRANCH   4  17
BRANCH   6  27
ATOM     27  C   UNL     1      -6.718  15.478  19.355  0.00  0.00    +0.000 C 
ATOM     28  O   UNL     1      -6.729  15.848  18.192  0.00  0.00    +0.000 OA
BRANCH  27  29
ATOM     29  O   UNL     1      -6.325  16.289  20.359  0.00  0.00    +0.000 OA
ATOM     30  H   UNL     1      -5.484  16.763  20.171  0.00  0.00    +0.000 HD
ENDBRANCH  27  29
ENDBRANCH   6  27
BRANCH   1  31
ATOM     31  S   UNL     1      -6.741  11.318  19.138  0.00  0.00    +0.000 S 
BRANCH  31  32
ATOM     32  C   UNL     1      -5.429  10.465  18.198  0.00  0.00    +0.000 C 
BRANCH  32  34
ATOM     33  C   UNL     1      -3.982  11.117  16.256  0.00  0.00    +0.000 C 
ATOM     34  C   UNL     1      -5.107  11.260  16.973  0.00  0.00    +0.000 C 
ENDBRANCH  32  34
ENDBRANCH  31  32
ENDBRANCH   1  31
TORSDOF 10
ENDMDL
MODEL 8
REMARK VINA RESULT:      -6.1      1.176      2.071
REMARK  Name = 
REMARK  13 active torsions:
REMARK  status: ('A' for Active; 'I' for Inactive)
REMARK    1  A    between atoms: C_2  and  C_3
REMARK    2  A    between atoms: C_3  and  S_4
REMARK    3  A    between atoms: S_4  and  C_5
REMARK    4  A    between atoms: C_7  and  C_8
REMARK    5  A    between atoms: C_11  and  O_12
REMARK    6  A    between atoms: O_12  and  C_13
REMARK    7  A    between atoms: C_14  and  O_15
REMARK    8  A    between atoms: O_15  and  C_16
REMARK    9  A    between atoms: N_18  and  S_19
REMARK   10  A    between atoms: S_19  and  C_22
REMARK   11  A    between atoms: C_25  and  C_26
REMARK   12  A    between atoms: C_30  and  C_31
REMARK   13  A    between atoms: C_31  and  O_33
REMARK                            x       y       z     vdW  Elec       q    Type
REMARK                         _______ _______ _______ _____ _____    ______ ____
ROOT
ATOM      1  C   UNL     1       1.073  14.809  20.186  0.00  0.00    +0.000 C 
ATOM      2  C   UNL     1      -0.316  14.280  19.807  0.00  0.00    +0.000 C 
ATOM      3  C   UNL     1      -0.658  12.879  20.375  0.00  0.00    +0.000 C 
ATOM      4  N   UNL     1       0.476  11.878  20.112  0.00  0.00    +0.000 NA
ATOM      5  C   UNL     1       1.820  12.426  20.541  0.00  0.00    +0.000 C 
ATOM      6  C   UNL     1       2.124  13.751  19.861  0.00  0.00    +0.000 C 
ENDROOT
BRANCH   3   7
ATOM      7  C   UNL     1      -1.987  12.492  19.740  0.00  0.00    +0.000 A 
ATOM      8  C   UNL     1      -2.051  11.922  18.468  0.00  0.00    +0.000 A 
ATOM      9  C   UNL     1      -3.276  11.546  17.925  0.00  0.00    +0.000 A 
ATOM     10  C   UNL     1      -4.476  11.813  18.590  0.00  0.00    +0.000 A 
ATOM     11  C   UNL     1      -4.443  12.481  19.825  0.00  0.00    +0.000 A 
ATOM     12  C   UNL     1      -3.195  12.788  20.398  0.00  0.00    +0.000 A 
BRANCH  10  13
ATOM     13  O   UNL     1      -5.554  11.346  17.885  0.00  0.00    +0.000 OA
ATOM     14  C   UNL     1      -6.463  10.466  18.523  0.00  0.00    +0.000 C 
ENDBRANCH  10  13
BRANCH  11  15
ATOM     15  O   UNL     1      -5.634  12.807  20.417  0.00  0.00    +0.000 OA
ATOM     16  C   UNL     1      -5.647  13.089  21.810  0.00  0.00    +0.000 C 
ENDBRANCH  11  15
ENDBRANCH   3   7
BRANCH   4  17
ATOM     17  S   UNL     1       0.221  10.318  20.935  0.00  0.00    +0.000 S 
ATOM     18  O   UNL     1       0.890  10.403  22.215  0.00  0.00    +0.000 OA
ATOM     19  O   UNL     1      -1.186   9.995  20.844  0.00  0.00    +0.000 OA
BRANCH  17  20
ATOM     20  C   UNL     1       1.166   9.162  19.977  0.00  0.00    +0.000 A 
ATOM     21  C   UNL     1       1.415   9.450  18.628  0.00  0.00    +0.000 A 
ATOM     22  C   UNL     1       2.114   8.529  17.845  0.00  0.00    +0.000 A 
ATOM     23  C   UNL     1       2.581   7.333  18.405  0.00  0.00    +0.000 A 
ATOM     24  C   UNL     1       3.306   6.321  17.566  0.00  0.00    +0.000 C 
ATOM     25  C   UNL     1       2.368   7.084  19.769  0.00  0.00    +0.000 A 
ATOM     26  C   UNL     1       1.665   7.997  20.560  0.00  0.00    +0.000 A 
ENDBRANCH  17  20
ENDBRANCH   4  17
BRANCH   6  27
ATOM     27  C   UNL     1       2.301  13.641  18.356  0.00  0.00    +0.000 C 
ATOM     28  O   UNL     1       2.826  14.522  17.693  0.00  0.00    +0.000 OA
BRANCH  27  29
ATOM     29  O   UNL     1       1.773  12.537  17.787  0.00  0.00    +0.000 OA
ATOM     30  H   UNL     1       0.861  12.337  18.097  0.00  0.00    +0.000 HD
ENDBRANCH  27  29
ENDBRANCH   6  27
BRANCH   1  31
ATOM     31  S   UNL     1       1.069  15.307  21.970  0.00  0.00    +0.000 S 
BRANCH  31  32
ATOM     32  C   UNL     1      -0.486  16.260  22.048  0.00  0.00    +0.000 C 
BRANCH  32  34
ATOM     33  C   UNL     1      -1.155  14.530  23.738  0.00  0.00    +0.000 C 
ATOM     34  C   UNL     1      -1.478  15.513  22.883  0.00  0.00    +0.000 C 
ENDBRANCH  32  34
ENDBRANCH  31  32
ENDBRANCH   1  31
TORSDOF 10
ENDMDL
MODEL 9
REMARK VINA RESULT:      -6.1      1.968      5.810
REMARK  Name = 
REMARK  13 active torsions:
REMARK  status: ('A' for Active; 'I' for Inactive)
REMARK    1  A    between atoms: C_2  and  C_3
REMARK    2  A    between atoms: C_3  and  S_4
REMARK    3  A    between atoms: S_4  and  C_5
REMARK    4  A    between atoms: C_7  and  C_8
REMARK    5  A    between atoms: C_11  and  O_12
REMARK    6  A    between atoms: O_12  and  C_13
REMARK    7  A    between atoms: C_14  and  O_15
REMARK    8  A    between atoms: O_15  and  C_16
REMARK    9  A    between atoms: N_18  and  S_19
REMARK   10  A    between atoms: S_19  and  C_22
REMARK   11  A    between atoms: C_25  and  C_26
REMARK   12  A    between atoms: C_30  and  C_31
REMARK   13  A    between atoms: C_31  and  O_33
REMARK                            x       y       z     vdW  Elec       q    Type
REMARK                         _______ _______ _______ _____ _____    ______ ____
ROOT
ATOM      1  C   UNL     1       0.596   9.330  20.053  0.00  0.00    +0.000 C 
ATOM      2  C   UNL     1      -0.724   9.748  19.392  0.00  0.00    +0.000 C 
ATOM      3  C   UNL     1      -0.820  11.249  19.016  0.00  0.00    +0.000 C 
ATOM      4  N   UNL     1      -0.407  12.145  20.192  0.00  0.00    +0.000 NA
ATOM      5  C   UNL     1       0.920  11.722  20.783  0.00  0.00    +0.000 C 
ATOM      6  C   UNL     1       0.897  10.266  21.219  0.00  0.00    +0.000 C 
ENDROOT
BRANCH   3   7
ATOM      7  C   UNL     1      -2.252  11.463  18.544  0.00  0.00    +0.000 A 
ATOM      8  C   UNL     1      -3.247  11.917  19.412  0.00  0.00    +0.000 A 
ATOM      9  C   UNL     1      -4.540  12.138  18.946  0.00  0.00    +0.000 A 
ATOM     10  C   UNL     1      -4.902  11.823  17.633  0.00  0.00    +0.000 A 
ATOM     11  C   UNL     1      -3.942  11.266  16.771  0.00  0.00    +0.000 A 
ATOM     12  C   UNL     1      -2.620  11.119  17.231  0.00  0.00    +0.000 A 
BRANCH  10  13
ATOM     13  O   UNL     1      -6.213  12.133  17.387  0.00  0.00    +0.000 OA
ATOM     14  C   UNL     1      -6.533  13.421  16.889  0.00  0.00    +0.000 C 
ENDBRANCH  10  13
BRANCH  11  15
ATOM     15  O   UNL     1      -4.340  10.889  15.517  0.00  0.00    +0.000 OA
ATOM     16  C   UNL     1      -3.395  10.256  14.664  0.00  0.00    +0.000 C 
ENDBRANCH  11  15
ENDBRANCH   3   7
BRANCH   4  17
ATOM     17  S   UNL     1      -0.293  13.866  19.736  0.00  0.00    +0.000 S 
ATOM     18  O   UNL     1      -0.319  13.921  18.291  0.00  0.00    +0.000 OA
ATOM     19  O   UNL     1      -1.252  14.598  20.534  0.00  0.00    +0.000 OA
BRANCH  17  20
ATOM     20  C   UNL     1       1.356  14.329  20.203  0.00  0.00    +0.000 A 
ATOM     21  C   UNL     1       2.359  14.321  19.225  0.00  0.00    +0.000 A 
ATOM     22  C   UNL     1       3.672  14.633  19.584  0.00  0.00    +0.000 A 
ATOM     23  C   UNL     1       3.984  14.971  20.907  0.00  0.00    +0.000 A 
ATOM     24  C   UNL     1       5.396  15.278  21.312  0.00  0.00    +0.000 C 
ATOM     25  C   UNL     1       2.958  15.024  21.862  0.00  0.00    +0.000 A 
ATOM     26  C   UNL     1       1.642  14.708  21.514  0.00  0.00    +0.000 A 
ENDBRANCH  17  20
ENDBRANCH   4  17
BRANCH   6  27
ATOM     27  C   UNL     1      -0.056   9.987  22.369  0.00  0.00    +0.000 C 
ATOM     28  O   UNL     1      -0.492   8.870  22.601  0.00  0.00    +0.000 OA
BRANCH  27  29
ATOM     29  O   UNL     1      -0.452  11.068  23.074  0.00  0.00    +0.000 OA
ATOM     30  H   UNL     1      -1.328  10.953  23.506  0.00  0.00    +0.000 HD
ENDBRANCH  27  29
ENDBRANCH   6  27
BRANCH   1  31
ATOM     31  S   UNL     1       1.934   9.305  18.774  0.00  0.00    +0.000 S 
BRANCH  31  32
ATOM     32  C   UNL     1       2.264   7.514  18.668  0.00  0.00    +0.000 C 
BRANCH  32  34
ATOM     33  C   UNL     1       1.798   5.755  20.394  0.00  0.00    +0.000 C 
ATOM     34  C   UNL     1       2.320   6.942  20.049  0.00  0.00    +0.000 C 
ENDBRANCH  32  34
ENDBRANCH  31  32
ENDBRANCH   1  31
TORSDOF 10
ENDMDL
