MODEL 1
REMARK VINA RESULT:      -8.4      0.000      0.000
REMARK  Name = 
REMARK  2 active torsions:
REMARK  status: ('A' for Active; 'I' for Inactive)
REMARK    1  A    between atoms: C_4  and  C_5
REMARK    2  A    between atoms: C_7  and  C_8
REMARK                            x       y       z     vdW  Elec       q    Type
REMARK                         _______ _______ _______ _____ _____    ______ ____
ROOT
ATOM      1  C   UNL     1       6.534   5.584  16.904  0.00  0.00    +0.000 A 
ATOM      2  C   UNL     1       6.994   4.857  15.830  0.00  0.00    +0.000 A 
ATOM      3  S   UNL     1       5.747   3.821  15.268  0.00  0.00    +0.000 S 
ATOM      4  C   UNL     1       4.695   4.398  16.513  0.00  0.00    +0.000 A 
ATOM      5  N   UNL     1       3.449   3.893  16.649  0.00  0.00    +0.000 N 
ATOM      6  C   UNL     1       2.653   3.939  17.793  0.00  0.00    +0.000 A 
ATOM      7  C   UNL     1       2.820   4.869  18.819  0.00  0.00    +0.000 A 
ATOM      8  C   UNL     1       2.046   4.784  19.973  0.00  0.00    +0.000 A 
ATOM      9  C   UNL     1       1.089   3.790  20.067  0.00  0.00    +0.000 A 
ATOM     10  C   UNL     1       0.941   2.935  18.989  0.00  0.00    +0.000 A 
ATOM     11  N   UNL     1       1.695   2.991  17.866  0.00  0.00    +0.000 NA
ATOM     12  N   UNL     1       5.238   5.321  17.279  0.00  0.00    +0.000 NA
ATOM     13  H   UNL     1       3.167   3.114  16.068  0.00  0.00    +0.000 HD
ENDROOT
BRANCH   1  16
ATOM     14  C   UNL     1       8.291   8.463  18.337  0.00  0.00    +0.000 A 
ATOM     15  C   UNL     1       7.475   7.907  17.322  0.00  0.00    +0.000 A 
ATOM     16  C   UNL     1       7.341   6.579  17.651  0.00  0.00    +0.000 A 
ATOM     17  O   UNL     1       8.056   6.338  18.780  0.00  0.00    +0.000 OA
ATOM     18  N   UNL     1       8.652   7.508  19.211  0.00  0.00    +0.000 NA
BRANCH  14  22
ATOM     19  C   UNL     1       9.536  12.531  18.748  0.00  0.00    +0.000 A 
ATOM     20  C   UNL     1       8.706  12.155  17.695  0.00  0.00    +0.000 A 
ATOM     21  C   UNL     1       8.286  10.828  17.576  0.00  0.00    +0.000 A 
ATOM     22  C   UNL     1       8.698   9.859  18.503  0.00  0.00    +0.000 A 
ATOM     23  C   UNL     1       9.527  10.253  19.564  0.00  0.00    +0.000 A 
ATOM     24  C   UNL     1       9.942  11.583  19.685  0.00  0.00    +0.000 A 
ENDBRANCH  14  22
ENDBRANCH   1  16
TORSDOF 2
ENDMDL
MODEL 2
REMARK VINA RESULT:      -8.3      0.406      1.083
REMARK  Name = 
REMARK  2 active torsions:
REMARK  status: ('A' for Active; 'I' for Inactive)
REMARK    1  A    between atoms: C_4  and  C_5
REMARK    2  A    between atoms: C_7  and  C_8
REMARK                            x       y       z     vdW  Elec       q    Type
REMARK                         _______ _______ _______ _____ _____    ______ ____
ROOT
ATOM      1  C   UNL     1       6.487   5.833  17.046  0.00  0.00    +0.000 A 
ATOM      2  C   UNL     1       6.875   5.080  15.961  0.00  0.00    +0.000 A 
ATOM      3  S   UNL     1       5.590   4.037  15.504  0.00  0.00    +0.000 S 
ATOM      4  C   UNL     1       4.622   4.647  16.801  0.00  0.00    +0.000 A 
ATOM      5  N   UNL     1       3.386   4.151  17.028  0.00  0.00    +0.000 N 
ATOM      6  C   UNL     1       2.665   4.227  18.218  0.00  0.00    +0.000 A 
ATOM      7  C   UNL     1       2.901   5.179  19.211  0.00  0.00    +0.000 A 
ATOM      8  C   UNL     1       2.202   5.124  20.413  0.00  0.00    +0.000 A 
ATOM      9  C   UNL     1       1.250   4.136  20.591  0.00  0.00    +0.000 A 
ATOM     10  C   UNL     1       1.030   3.258  19.545  0.00  0.00    +0.000 A 
ATOM     11  N   UNL     1       1.711   3.285  18.375  0.00  0.00    +0.000 NA
ATOM     12  N   UNL     1       5.216   5.585  17.509  0.00  0.00    +0.000 NA
ATOM     13  H   UNL     1       3.065   3.361  16.484  0.00  0.00    +0.000 HD
ENDROOT
BRANCH   1  16
ATOM     14  C   UNL     1       8.341   8.736  18.297  0.00  0.00    +0.000 A 
ATOM     15  C   UNL     1       7.459   8.161  17.349  0.00  0.00    +0.000 A 
ATOM     16  C   UNL     1       7.342   6.841  17.716  0.00  0.00    +0.000 A 
ATOM     17  O   UNL     1       8.130   6.622  18.801  0.00  0.00    +0.000 OA
ATOM     18  N   UNL     1       8.755   7.799  19.167  0.00  0.00    +0.000 NA
BRANCH  14  22
ATOM     19  C   UNL     1       9.517  12.826  18.692  0.00  0.00    +0.000 A 
ATOM     20  C   UNL     1      10.028  11.862  19.557  0.00  0.00    +0.000 A 
ATOM     21  C   UNL     1       9.656  10.524  19.412  0.00  0.00    +0.000 A 
ATOM     22  C   UNL     1       8.761  10.133  18.405  0.00  0.00    +0.000 A 
ATOM     23  C   UNL     1       8.259  11.112  17.535  0.00  0.00    +0.000 A 
ATOM     24  C   UNL     1       8.636  12.451  17.677  0.00  0.00    +0.000 A 
ENDBRANCH  14  22
ENDBRANCH   1  16
TORSDOF 2
ENDMDL
MODEL 3
REMARK VINA RESULT:      -8.0      4.646      7.200
REMARK  Name = 
REMARK  2 active torsions:
REMARK  status: ('A' for Active; 'I' for Inactive)
REMARK    1  A    between atoms: C_4  and  C_5
REMARK    2  A    between atoms: C_7  and  C_8
REMARK                            x       y       z     vdW  Elec       q    Type
REMARK                         _______ _______ _______ _____ _____    ______ ____
ROOT
ATOM      1  C   UNL     1       2.564   5.938  19.843  0.00  0.00    +0.000 A 
ATOM      2  C   UNL     1       2.197   4.881  20.644  0.00  0.00    +0.000 A 
ATOM      3  S   UNL     1       3.141   3.505  20.237  0.00  0.00    +0.000 S 
ATOM      4  C   UNL     1       3.949   4.414  19.007  0.00  0.00    +0.000 A 
ATOM      5  N   UNL     1       4.877   3.829  18.219  0.00  0.00    +0.000 N 
ATOM      6  C   UNL     1       5.307   4.273  16.969  0.00  0.00    +0.000 A 
ATOM      7  C   UNL     1       5.185   5.591  16.528  0.00  0.00    +0.000 A 
ATOM      8  C   UNL     1       5.550   5.931  15.229  0.00  0.00    +0.000 A 
ATOM      9  C   UNL     1       6.067   4.953  14.400  0.00  0.00    +0.000 A 
ATOM     10  C   UNL     1       6.211   3.679  14.919  0.00  0.00    +0.000 A 
ATOM     11  N   UNL     1       5.846   3.325  16.175  0.00  0.00    +0.000 NA
ATOM     12  N   UNL     1       3.553   5.667  18.927  0.00  0.00    +0.000 NA
ATOM     13  H   UNL     1       5.034   2.832  18.299  0.00  0.00    +0.000 HD
ENDROOT
BRANCH   1  16
ATOM     14  C   UNL     1       0.920   9.124  20.604  0.00  0.00    +0.000 A 
ATOM     15  C   UNL     1       1.261   7.802  20.978  0.00  0.00    +0.000 A 
ATOM     16  C   UNL     1       1.958   7.290  19.909  0.00  0.00    +0.000 A 
ATOM     17  O   UNL     1       2.009   8.234  18.934  0.00  0.00    +0.000 OA
ATOM     18  N   UNL     1       1.364   9.379  19.361  0.00  0.00    +0.000 NA
BRANCH  14  22
ATOM     19  C   UNL     1      -1.194  12.044  22.899  0.00  0.00    +0.000 A 
ATOM     20  C   UNL     1      -1.209  10.706  23.283  0.00  0.00    +0.000 A 
ATOM     21  C   UNL     1      -0.502   9.758  22.541  0.00  0.00    +0.000 A 
ATOM     22  C   UNL     1       0.224  10.135  21.400  0.00  0.00    +0.000 A 
ATOM     23  C   UNL     1       0.238  11.488  21.030  0.00  0.00    +0.000 A 
ATOM     24  C   UNL     1      -0.467  12.437  21.777  0.00  0.00    +0.000 A 
ENDBRANCH  14  22
ENDBRANCH   1  16
TORSDOF 2
ENDMDL
MODEL 4
REMARK VINA RESULT:      -7.9      4.649      7.162
REMARK  Name = 
REMARK  2 active torsions:
REMARK  status: ('A' for Active; 'I' for Inactive)
REMARK    1  A    between atoms: C_4  and  C_5
REMARK    2  A    between atoms: C_7  and  C_8
REMARK                            x       y       z     vdW  Elec       q    Type
REMARK                         _______ _______ _______ _____ _____    ______ ____
ROOT
ATOM      1  C   UNL     1       2.637   5.890  19.792  0.00  0.00    +0.000 A 
ATOM      2  C   UNL     1       2.304   4.826  20.600  0.00  0.00    +0.000 A 
ATOM      3  S   UNL     1       3.267   3.469  20.179  0.00  0.00    +0.000 S 
ATOM      4  C   UNL     1       4.037   4.391  18.935  0.00  0.00    +0.000 A 
ATOM      5  N   UNL     1       4.964   3.824  18.132  0.00  0.00    +0.000 N 
ATOM      6  C   UNL     1       5.365   4.275  16.876  0.00  0.00    +0.000 A 
ATOM      7  C   UNL     1       5.210   5.590  16.436  0.00  0.00    +0.000 A 
ATOM      8  C   UNL     1       5.548   5.936  15.131  0.00  0.00    +0.000 A 
ATOM      9  C   UNL     1       6.070   4.967  14.294  0.00  0.00    +0.000 A 
ATOM     10  C   UNL     1       6.248   3.697  14.812  0.00  0.00    +0.000 A 
ATOM     11  N   UNL     1       5.910   3.337  16.073  0.00  0.00    +0.000 NA
ATOM     12  N   UNL     1       3.616   5.636  18.861  0.00  0.00    +0.000 NA
ATOM     13  H   UNL     1       5.141   2.831  18.211  0.00  0.00    +0.000 HD
ENDROOT
BRANCH   1  16
ATOM     14  C   UNL     1       0.910   9.028  20.565  0.00  0.00    +0.000 A 
ATOM     15  C   UNL     1       1.258   7.702  20.920  0.00  0.00    +0.000 A 
ATOM     16  C   UNL     1       2.006   7.229  19.868  0.00  0.00    +0.000 A 
ATOM     17  O   UNL     1       2.081   8.199  18.920  0.00  0.00    +0.000 OA
ATOM     18  N   UNL     1       1.400   9.322  19.348  0.00  0.00    +0.000 NA
BRANCH  14  22
ATOM     19  C   UNL     1      -1.183  11.927  22.907  0.00  0.00    +0.000 A 
ATOM     20  C   UNL     1      -0.542  12.306  21.731  0.00  0.00    +0.000 A 
ATOM     21  C   UNL     1       0.124  11.353  20.959  0.00  0.00    +0.000 A 
ATOM     22  C   UNL     1       0.166  10.008  21.357  0.00  0.00    +0.000 A 
ATOM     23  C   UNL     1      -0.491   9.637  22.540  0.00  0.00    +0.000 A 
ATOM     24  C   UNL     1      -1.163  10.592  23.310  0.00  0.00    +0.000 A 
ENDBRANCH  14  22
ENDBRANCH   1  16
TORSDOF 2
ENDMDL
MODEL 5
REMARK VINA RESULT:      -7.7      4.808      6.680
REMARK  Name = 
REMARK  2 active torsions:
REMARK  status: ('A' for Active; 'I' for Inactive)
REMARK    1  A    between atoms: C_4  and  C_5
REMARK    2  A    between atoms: C_7  and  C_8
REMARK                            x       y       z     vdW  Elec       q    Type
REMARK                         _______ _______ _______ _____ _____    ______ ____
ROOT
ATOM      1  C   UNL     1       3.616   5.424  18.627  0.00  0.00    +0.000 A 
ATOM      2  C   UNL     1       3.770   4.321  19.435  0.00  0.00    +0.000 A 
ATOM      3  S   UNL     1       2.746   4.471  20.805  0.00  0.00    +0.000 S 
ATOM      4  C   UNL     1       2.194   6.007  20.233  0.00  0.00    +0.000 A 
ATOM      5  N   UNL     1       1.314   6.733  20.956  0.00  0.00    +0.000 N 
ATOM      6  C   UNL     1       1.089   8.106  20.858  0.00  0.00    +0.000 A 
ATOM      7  C   UNL     1       1.400   8.866  19.731  0.00  0.00    +0.000 A 
ATOM      8  C   UNL     1       1.235  10.248  19.751  0.00  0.00    +0.000 A 
ATOM      9  C   UNL     1       0.725  10.846  20.889  0.00  0.00    +0.000 A 
ATOM     10  C   UNL     1       0.386  10.026  21.951  0.00  0.00    +0.000 A 
ATOM     11  N   UNL     1       0.555   8.682  21.956  0.00  0.00    +0.000 NA
ATOM     12  N   UNL     1       2.724   6.366  19.083  0.00  0.00    +0.000 NA
ATOM     13  H   UNL     1       1.045   6.409  21.876  0.00  0.00    +0.000 HD
ENDROOT
BRANCH   1  16
ATOM     14  C   UNL     1       5.385   5.330  15.419  0.00  0.00    +0.000 A 
ATOM     15  C   UNL     1       4.796   4.651  16.514  0.00  0.00    +0.000 A 
ATOM     16  C   UNL     1       4.347   5.641  17.355  0.00  0.00    +0.000 A 
ATOM     17  O   UNL     1       4.670   6.845  16.818  0.00  0.00    +0.000 OA
ATOM     18  N   UNL     1       5.318   6.658  15.612  0.00  0.00    +0.000 NA
BRANCH  14  22
ATOM     19  C   UNL     1       7.068   3.721  11.835  0.00  0.00    +0.000 A 
ATOM     20  C   UNL     1       7.758   4.689  12.560  0.00  0.00    +0.000 A 
ATOM     21  C   UNL     1       7.213   5.198  13.741  0.00  0.00    +0.000 A 
ATOM     22  C   UNL     1       5.967   4.752  14.207  0.00  0.00    +0.000 A 
ATOM     23  C   UNL     1       5.287   3.770  13.471  0.00  0.00    +0.000 A 
ATOM     24  C   UNL     1       5.836   3.257  12.292  0.00  0.00    +0.000 A 
ENDBRANCH  14  22
ENDBRANCH   1  16
TORSDOF 2
ENDMDL
MODEL 6
REMARK VINA RESULT:      -7.7      4.551      6.480
REMARK  Name = 
REMARK  2 active torsions:
REMARK  status: ('A' for Active; 'I' for Inactive)
REMARK    1  A    between atoms: C_4  and  C_5
REMARK    2  A    between atoms: C_7  and  C_8
REMARK                            x       y       z     vdW  Elec       q    Type
REMARK                         _______ _______ _______ _____ _____    ______ ____
ROOT
ATOM      1  C   UNL     1       4.017   4.943  18.831  0.00  0.00    +0.000 A 
ATOM      2  C   UNL     1       3.813   4.115  19.911  0.00  0.00    +0.000 A 
ATOM      3  S   UNL     1       2.529   4.734  20.868  0.00  0.00    +0.000 S 
ATOM      4  C   UNL     1       2.357   6.072  19.786  0.00  0.00    +0.000 A 
ATOM      5  N   UNL     1       1.448   7.041  20.031  0.00  0.00    +0.000 N 
ATOM      6  C   UNL     1       1.455   8.337  19.518  0.00  0.00    +0.000 A 
ATOM      7  C   UNL     1       2.131   8.710  18.356  0.00  0.00    +0.000 A 
ATOM      8  C   UNL     1       2.169  10.046  17.967  0.00  0.00    +0.000 A 
ATOM      9  C   UNL     1       1.498  10.986  18.728  0.00  0.00    +0.000 A 
ATOM     10  C   UNL     1       0.803  10.539  19.838  0.00  0.00    +0.000 A 
ATOM     11  N   UNL     1       0.768   9.247  20.242  0.00  0.00    +0.000 NA
ATOM     12  N   UNL     1       3.190   6.040  18.767  0.00  0.00    +0.000 NA
ATOM     13  H   UNL     1       0.926   7.019  20.897  0.00  0.00    +0.000 HD
ENDROOT
BRANCH   1  16
ATOM     14  C   UNL     1       6.093   4.481  15.847  0.00  0.00    +0.000 A 
ATOM     15  C   UNL     1       4.817   4.649  16.437  0.00  0.00    +0.000 A 
ATOM     16  C   UNL     1       5.049   4.724  17.790  0.00  0.00    +0.000 A 
ATOM     17  O   UNL     1       6.382   4.580  18.008  0.00  0.00    +0.000 OA
ATOM     18  N   UNL     1       7.037   4.427  16.802  0.00  0.00    +0.000 NA
BRANCH  14  22
ATOM     19  C   UNL     1       7.099   4.172  11.704  0.00  0.00    +0.000 A 
ATOM     20  C   UNL     1       6.063   3.408  12.233  0.00  0.00    +0.000 A 
ATOM     21  C   UNL     1       5.725   3.526  13.582  0.00  0.00    +0.000 A 
ATOM     22  C   UNL     1       6.425   4.404  14.424  0.00  0.00    +0.000 A 
ATOM     23  C   UNL     1       7.461   5.175  13.877  0.00  0.00    +0.000 A 
ATOM     24  C   UNL     1       7.795   5.060  12.524  0.00  0.00    +0.000 A 
ENDBRANCH  14  22
ENDBRANCH   1  16
TORSDOF 2
ENDMDL
MODEL 7
REMARK VINA RESULT:      -7.7      4.531      6.478
REMARK  Name = 
REMARK  2 active torsions:
REMARK  status: ('A' for Active; 'I' for Inactive)
REMARK    1  A    between atoms: C_4  and  C_5
REMARK    2  A    between atoms: C_7  and  C_8
REMARK                            x       y       z     vdW  Elec       q    Type
REMARK                         _______ _______ _______ _____ _____    ______ ____
ROOT
ATOM      1  C   UNL     1       4.025   4.959  18.828  0.00  0.00    +0.000 A 
ATOM      2  C   UNL     1       3.802   4.130  19.904  0.00  0.00    +0.000 A 
ATOM      3  S   UNL     1       2.505   4.751  20.841  0.00  0.00    +0.000 S 
ATOM      4  C   UNL     1       2.353   6.091  19.758  0.00  0.00    +0.000 A 
ATOM      5  N   UNL     1       1.443   7.061  19.989  0.00  0.00    +0.000 N 
ATOM      6  C   UNL     1       1.461   8.359  19.479  0.00  0.00    +0.000 A 
ATOM      7  C   UNL     1       2.156   8.731  18.328  0.00  0.00    +0.000 A 
ATOM      8  C   UNL     1       2.204  10.068  17.941  0.00  0.00    +0.000 A 
ATOM      9  C   UNL     1       1.523  11.008  18.693  0.00  0.00    +0.000 A 
ATOM     10  C   UNL     1       0.810  10.561  19.791  0.00  0.00    +0.000 A 
ATOM     11  N   UNL     1       0.766   9.269  20.193  0.00  0.00    +0.000 NA
ATOM     12  N   UNL     1       3.202   6.058  18.752  0.00  0.00    +0.000 NA
ATOM     13  H   UNL     1       0.907   7.040  20.848  0.00  0.00    +0.000 HD
ENDROOT
BRANCH   1  16
ATOM     14  C   UNL     1       6.144   4.479  15.876  0.00  0.00    +0.000 A 
ATOM     15  C   UNL     1       4.858   4.637  16.448  0.00  0.00    +0.000 A 
ATOM     16  C   UNL     1       5.073   4.739  17.803  0.00  0.00    +0.000 A 
ATOM     17  O   UNL     1       6.405   4.619  18.039  0.00  0.00    +0.000 OA
ATOM     18  N   UNL     1       7.078   4.457  16.843  0.00  0.00    +0.000 NA
BRANCH  14  22
ATOM     19  C   UNL     1       7.128   4.285  11.722  0.00  0.00    +0.000 A 
ATOM     20  C   UNL     1       7.817   5.153  12.565  0.00  0.00    +0.000 A 
ATOM     21  C   UNL     1       7.505   5.199  13.926  0.00  0.00    +0.000 A 
ATOM     22  C   UNL     1       6.494   4.384  14.459  0.00  0.00    +0.000 A 
ATOM     23  C   UNL     1       5.814   3.509  13.599  0.00  0.00    +0.000 A 
ATOM     24  C   UNL     1       6.130   3.459  12.238  0.00  0.00    +0.000 A 
ENDBRANCH  14  22
ENDBRANCH   1  16
TORSDOF 2
ENDMDL
MODEL 8
REMARK VINA RESULT:      -7.6      4.707      6.210
REMARK  Name = 
REMARK  2 active torsions:
REMARK  status: ('A' for Active; 'I' for Inactive)
REMARK    1  A    between atoms: C_4  and  C_5
REMARK    2  A    between atoms: C_7  and  C_8
REMARK                            x       y       z     vdW  Elec       q    Type
REMARK                         _______ _______ _______ _____ _____    ______ ____
ROOT
ATOM      1  C   UNL     1       4.237   4.072  18.988  0.00  0.00    +0.000 A 
ATOM      2  C   UNL     1       4.173   3.000  19.848  0.00  0.00    +0.000 A 
ATOM      3  S   UNL     1       2.875   3.231  20.949  0.00  0.00    +0.000 S 
ATOM      4  C   UNL     1       2.513   4.754  20.214  0.00  0.00    +0.000 A 
ATOM      5  N   UNL     1       1.517   5.530  20.696  0.00  0.00    +0.000 N 
ATOM      6  C   UNL     1       1.363   6.902  20.502  0.00  0.00    +0.000 A 
ATOM      7  C   UNL     1       1.941   7.607  19.446  0.00  0.00    +0.000 A 
ATOM      8  C   UNL     1       1.819   8.992  19.379  0.00  0.00    +0.000 A 
ATOM      9  C   UNL     1       1.088   9.648  20.353  0.00  0.00    +0.000 A 
ATOM     10  C   UNL     1       0.497   8.881  21.341  0.00  0.00    +0.000 A 
ATOM     11  N   UNL     1       0.618   7.536  21.432  0.00  0.00    +0.000 NA
ATOM     12  N   UNL     1       3.296   5.053  19.199  0.00  0.00    +0.000 NA
ATOM     13  H   UNL     1       1.041   5.250  21.544  0.00  0.00    +0.000 HD
ENDROOT
BRANCH   1  16
ATOM     14  C   UNL     1       6.225   4.318  15.919  0.00  0.00    +0.000 A 
ATOM     15  C   UNL     1       5.000   4.021  16.564  0.00  0.00    +0.000 A 
ATOM     16  C   UNL     1       5.238   4.219  17.904  0.00  0.00    +0.000 A 
ATOM     17  O   UNL     1       6.536   4.584  18.063  0.00  0.00    +0.000 OA
ATOM     18  N   UNL     1       7.157   4.647  16.830  0.00  0.00    +0.000 NA
BRANCH  14  22
ATOM     19  C   UNL     1       7.094   4.257  11.735  0.00  0.00    +0.000 A 
ATOM     20  C   UNL     1       6.107   3.426  12.258  0.00  0.00    +0.000 A 
ATOM     21  C   UNL     1       5.813   3.463  13.622  0.00  0.00    +0.000 A 
ATOM     22  C   UNL     1       6.508   4.326  14.483  0.00  0.00    +0.000 A 
ATOM     23  C   UNL     1       7.494   5.165  13.942  0.00  0.00    +0.000 A 
ATOM     24  C   UNL     1       7.784   5.131  12.574  0.00  0.00    +0.000 A 
ENDBRANCH  14  22
ENDBRANCH   1  16
TORSDOF 2
ENDMDL
MODEL 9
REMARK VINA RESULT:      -7.6      4.695      6.225
REMARK  Name = 
REMARK  2 active torsions:
REMARK  status: ('A' for Active; 'I' for Inactive)
REMARK    1  A    between atoms: C_4  and  C_5
REMARK    2  A    between atoms: C_7  and  C_8
REMARK                            x       y       z     vdW  Elec       q    Type
REMARK                         _______ _______ _______ _____ _____    ______ ____
ROOT
ATOM      1  C   UNL     1       4.223   4.090  19.070  0.00  0.00    +0.000 A 
ATOM      2  C   UNL     1       4.120   3.061  19.978  0.00  0.00    +0.000 A 
ATOM      3  S   UNL     1       2.809   3.370  21.042  0.00  0.00    +0.000 S 
ATOM      4  C   UNL     1       2.493   4.864  20.231  0.00  0.00    +0.000 A 
ATOM      5  N   UNL     1       1.506   5.682  20.658  0.00  0.00    +0.000 N 
ATOM      6  C   UNL     1       1.385   7.047  20.397  0.00  0.00    +0.000 A 
ATOM      7  C   UNL     1       1.997   7.690  19.321  0.00  0.00    +0.000 A 
ATOM      8  C   UNL     1       1.906   9.073  19.189  0.00  0.00    +0.000 A 
ATOM      9  C   UNL     1       1.173   9.788  20.117  0.00  0.00    +0.000 A 
ATOM     10  C   UNL     1       0.547   9.080  21.128  0.00  0.00    +0.000 A 
ATOM     11  N   UNL     1       0.637   7.738  21.283  0.00  0.00    +0.000 NA
ATOM     12  N   UNL     1       3.300   5.099  19.218  0.00  0.00    +0.000 NA
ATOM     13  H   UNL     1       1.009   5.452  21.509  0.00  0.00    +0.000 HD
ENDROOT
BRANCH   1  16
ATOM     14  C   UNL     1       6.260   4.234  16.027  0.00  0.00    +0.000 A 
ATOM     15  C   UNL     1       5.002   4.054  16.651  0.00  0.00    +0.000 A 
ATOM     16  C   UNL     1       5.246   4.165  17.999  0.00  0.00    +0.000 A 
ATOM     17  O   UNL     1       6.577   4.369  18.182  0.00  0.00    +0.000 OA
ATOM     18  N   UNL     1       7.214   4.412  16.957  0.00  0.00    +0.000 NA
BRANCH  14  22
ATOM     19  C   UNL     1       7.093   4.426  11.839  0.00  0.00    +0.000 A 
ATOM     20  C   UNL     1       7.819   5.207  12.735  0.00  0.00    +0.000 A 
ATOM     21  C   UNL     1       7.556   5.127  14.104  0.00  0.00    +0.000 A 
ATOM     22  C   UNL     1       6.559   4.270  14.595  0.00  0.00    +0.000 A 
ATOM     23  C   UNL     1       5.841   3.483  13.683  0.00  0.00    +0.000 A 
ATOM     24  C   UNL     1       6.108   3.560  12.312  0.00  0.00    +0.000 A 
ENDBRANCH  14  22
ENDBRANCH   1  16
TORSDOF 2
ENDMDL
