MODEL 1
REMARK VINA RESULT:      -8.0      0.000      0.000
REMARK  Name = 
REMARK  4 active torsions:
REMARK  status: ('A' for Active; 'I' for Inactive)
REMARK    1  A    between atoms: C_1  and  C_2
REMARK    2  A    between atoms: N_5  and  C_6
REMARK    3  A    between atoms: C_7  and  C_8
REMARK    4  A    between atoms: N_12  and  C_13
REMARK                            x       y       z     vdW  Elec       q    Type
REMARK                         _______ _______ _______ _____ _____    ______ ____
ROOT
ATOM      1  C   UNL     1       6.414   5.893  16.892  0.00  0.00    +0.000 A 
ATOM      2  N   UNL     1       7.009   5.876  18.073  0.00  0.00    +0.000 NA
ATOM      3  N   UNL     1       7.893   4.832  18.046  0.00  0.00    +0.000 NA
ATOM      4  N   UNL     1       7.878   4.220  16.872  0.00  0.00    +0.000 NA
ATOM      5  N   UNL     1       7.046   4.947  16.085  0.00  0.00    +0.000 N 
ENDROOT
BRANCH   5   6
ATOM      6  C   UNL     1       6.948   4.703  14.692  0.00  0.00    +0.000 A 
ATOM      7  C   UNL     1       7.773   5.412  13.809  0.00  0.00    +0.000 A 
ATOM      8  C   UNL     1       7.738   5.121  12.443  0.00  0.00    +0.000 A 
ATOM      9  C   UNL     1       6.850   4.163  11.952  0.00  0.00    +0.000 A 
ATOM     10  C   UNL     1       5.987   3.499  12.820  0.00  0.00    +0.000 A 
ATOM     11  C   UNL     1       6.034   3.766  14.188  0.00  0.00    +0.000 A 
ENDBRANCH   5   6
BRANCH   1  13
ATOM     12  C   UNL     1       4.155   6.714  17.212  0.00  0.00    +0.000 C 
ATOM     13  C   UNL     1       5.260   6.592  16.462  0.00  0.00    +0.000 C 
BRANCH  12  18
ATOM     14  C   UNL     1       1.201   2.987  21.050  0.00  0.00    +0.000 C 
ATOM     15  C   UNL     1       1.855   3.880  20.078  0.00  0.00    +0.000 A 
ATOM     16  C   UNL     1       2.806   4.868  20.158  0.00  0.00    +0.000 A 
ATOM     17  C   UNL     1       3.003   5.287  18.819  0.00  0.00    +0.000 A 
ATOM     18  N   UNL     1       3.905   6.245  18.483  0.00  0.00    +0.000 N 
ATOM     19  N   UNL     1       2.192   4.612  17.994  0.00  0.00    +0.000 NA
ATOM     20  O   UNL     1       1.482   3.730  18.780  0.00  0.00    +0.000 OA
ATOM     21  H   UNL     1       4.510   6.646  19.198  0.00  0.00    +0.000 HD
ENDBRANCH  12  18
ENDBRANCH   1  13
TORSDOF 3
ENDMDL
MODEL 2
REMARK VINA RESULT:      -8.0      2.599      6.902
REMARK  Name = 
REMARK  4 active torsions:
REMARK  status: ('A' for Active; 'I' for Inactive)
REMARK    1  A    between atoms: C_1  and  C_2
REMARK    2  A    between atoms: N_5  and  C_6
REMARK    3  A    between atoms: C_7  and  C_8
REMARK    4  A    between atoms: N_12  and  C_13
REMARK                            x       y       z     vdW  Elec       q    Type
REMARK                         _______ _______ _______ _____ _____    ______ ____
ROOT
ATOM      1  C   UNL     1       3.853   3.651  19.072  0.00  0.00    +0.000 A 
ATOM      2  N   UNL     1       3.535   2.375  18.938  0.00  0.00    +0.000 NA
ATOM      3  N   UNL     1       2.196   2.281  19.205  0.00  0.00    +0.000 NA
ATOM      4  N   UNL     1       1.675   3.468  19.476  0.00  0.00    +0.000 NA
ATOM      5  N   UNL     1       2.672   4.365  19.276  0.00  0.00    +0.000 N 
ENDROOT
BRANCH   5   6
ATOM      6  C   UNL     1       2.419   5.759  19.273  0.00  0.00    +0.000 A 
ATOM      7  C   UNL     1       2.605   6.490  18.092  0.00  0.00    +0.000 A 
ATOM      8  C   UNL     1       2.283   7.850  18.060  0.00  0.00    +0.000 A 
ATOM      9  C   UNL     1       1.824   8.489  19.212  0.00  0.00    +0.000 A 
ATOM     10  C   UNL     1       1.694   7.778  20.402  0.00  0.00    +0.000 A 
ATOM     11  C   UNL     1       1.990   6.416  20.435  0.00  0.00    +0.000 A 
ENDBRANCH   5   6
BRANCH   1  13
ATOM     12  C   UNL     1       5.963   4.360  18.112  0.00  0.00    +0.000 C 
ATOM     13  C   UNL     1       5.125   4.271  19.154  0.00  0.00    +0.000 C 
BRANCH  12  18
ATOM     14  C   UNL     1       7.365   4.612  12.169  0.00  0.00    +0.000 C 
ATOM     15  C   UNL     1       7.049   4.623  13.608  0.00  0.00    +0.000 A 
ATOM     16  C   UNL     1       6.199   3.909  14.418  0.00  0.00    +0.000 A 
ATOM     17  C   UNL     1       6.437   4.412  15.720  0.00  0.00    +0.000 A 
ATOM     18  N   UNL     1       5.797   3.926  16.815  0.00  0.00    +0.000 N 
ATOM     19  N   UNL     1       7.349   5.393  15.684  0.00  0.00    +0.000 NA
ATOM     20  O   UNL     1       7.734   5.518  14.366  0.00  0.00    +0.000 OA
ATOM     21  H   UNL     1       5.164   3.134  16.722  0.00  0.00    +0.000 HD
ENDBRANCH  12  18
ENDBRANCH   1  13
TORSDOF 3
ENDMDL
MODEL 3
REMARK VINA RESULT:      -7.9      2.713      6.718
REMARK  Name = 
REMARK  4 active torsions:
REMARK  status: ('A' for Active; 'I' for Inactive)
REMARK    1  A    between atoms: C_1  and  C_2
REMARK    2  A    between atoms: N_5  and  C_6
REMARK    3  A    between atoms: C_7  and  C_8
REMARK    4  A    between atoms: N_12  and  C_13
REMARK                            x       y       z     vdW  Elec       q    Type
REMARK                         _______ _______ _______ _____ _____    ______ ____
ROOT
ATOM      1  C   UNL     1       4.734   4.117  19.492  0.00  0.00    +0.000 A 
ATOM      2  N   UNL     1       4.661   2.821  19.739  0.00  0.00    +0.000 NA
ATOM      3  N   UNL     1       3.398   2.589  20.213  0.00  0.00    +0.000 NA
ATOM      4  N   UNL     1       2.683   3.703  20.241  0.00  0.00    +0.000 NA
ATOM      5  N   UNL     1       3.461   4.657  19.673  0.00  0.00    +0.000 N 
ENDROOT
BRANCH   5   6
ATOM      6  C   UNL     1       2.940   5.934  19.346  0.00  0.00    +0.000 A 
ATOM      7  C   UNL     1       2.199   6.642  20.302  0.00  0.00    +0.000 A 
ATOM      8  C   UNL     1       1.750   7.933  20.014  0.00  0.00    +0.000 A 
ATOM      9  C   UNL     1       1.996   8.499  18.763  0.00  0.00    +0.000 A 
ATOM     10  C   UNL     1       2.682   7.776  17.791  0.00  0.00    +0.000 A 
ATOM     11  C   UNL     1       3.156   6.496  18.079  0.00  0.00    +0.000 A 
ENDBRANCH   5   6
BRANCH   1  13
ATOM     12  C   UNL     1       6.483   4.956  18.037  0.00  0.00    +0.000 C 
ATOM     13  C   UNL     1       5.861   4.933  19.225  0.00  0.00    +0.000 C 
BRANCH  12  18
ATOM     14  C   UNL     1       7.092   4.106  12.016  0.00  0.00    +0.000 C 
ATOM     15  C   UNL     1       6.962   4.383  13.457  0.00  0.00    +0.000 A 
ATOM     16  C   UNL     1       6.283   3.798  14.498  0.00  0.00    +0.000 A 
ATOM     17  C   UNL     1       6.643   4.560  15.636  0.00  0.00    +0.000 A 
ATOM     18  N   UNL     1       6.189   4.266  16.882  0.00  0.00    +0.000 N 
ATOM     19  N   UNL     1       7.460   5.563  15.288  0.00  0.00    +0.000 NA
ATOM     20  O   UNL     1       7.663   5.446  13.929  0.00  0.00    +0.000 OA
ATOM     21  H   UNL     1       5.616   3.437  17.030  0.00  0.00    +0.000 HD
ENDBRANCH  12  18
ENDBRANCH   1  13
TORSDOF 3
ENDMDL
MODEL 4
REMARK VINA RESULT:      -7.9      0.105      1.087
REMARK  Name = 
REMARK  4 active torsions:
REMARK  status: ('A' for Active; 'I' for Inactive)
REMARK    1  A    between atoms: C_1  and  C_2
REMARK    2  A    between atoms: N_5  and  C_6
REMARK    3  A    between atoms: C_7  and  C_8
REMARK    4  A    between atoms: N_12  and  C_13
REMARK                            x       y       z     vdW  Elec       q    Type
REMARK                         _______ _______ _______ _____ _____    ______ ____
ROOT
ATOM      1  C   UNL     1       6.379   5.907  16.966  0.00  0.00    +0.000 A 
ATOM      2  N   UNL     1       6.928   5.908  18.169  0.00  0.00    +0.000 NA
ATOM      3  N   UNL     1       7.821   4.872  18.187  0.00  0.00    +0.000 NA
ATOM      4  N   UNL     1       7.856   4.247  17.019  0.00  0.00    +0.000 NA
ATOM      5  N   UNL     1       7.049   4.958  16.194  0.00  0.00    +0.000 N 
ENDROOT
BRANCH   5   6
ATOM      6  C   UNL     1       7.006   4.699  14.801  0.00  0.00    +0.000 A 
ATOM      7  C   UNL     1       6.115   3.738  14.306  0.00  0.00    +0.000 A 
ATOM      8  C   UNL     1       6.011   3.533  12.928  0.00  0.00    +0.000 A 
ATOM      9  C   UNL     1       6.825   4.247  12.049  0.00  0.00    +0.000 A 
ATOM     10  C   UNL     1       7.753   5.161  12.542  0.00  0.00    +0.000 A 
ATOM     11  C   UNL     1       7.845   5.390  13.915  0.00  0.00    +0.000 A 
ENDBRANCH   5   6
BRANCH   1  13
ATOM     12  C   UNL     1       4.110   6.731  17.200  0.00  0.00    +0.000 C 
ATOM     13  C   UNL     1       5.236   6.592  16.485  0.00  0.00    +0.000 C 
BRANCH  12  18
ATOM     14  C   UNL     1       1.185   2.988  21.044  0.00  0.00    +0.000 C 
ATOM     15  C   UNL     1       1.835   3.880  20.068  0.00  0.00    +0.000 A 
ATOM     16  C   UNL     1       2.724   4.923  20.152  0.00  0.00    +0.000 A 
ATOM     17  C   UNL     1       2.963   5.303  18.808  0.00  0.00    +0.000 A 
ATOM     18  N   UNL     1       3.825   6.297  18.476  0.00  0.00    +0.000 N 
ATOM     19  N   UNL     1       2.231   4.552  17.974  0.00  0.00    +0.000 NA
ATOM     20  O   UNL     1       1.533   3.660  18.761  0.00  0.00    +0.000 OA
ATOM     21  H   UNL     1       4.372   6.758  19.201  0.00  0.00    +0.000 HD
ENDBRANCH  12  18
ENDBRANCH   1  13
TORSDOF 3
ENDMDL
MODEL 5
REMARK VINA RESULT:      -7.9      2.243      6.868
REMARK  Name = 
REMARK  4 active torsions:
REMARK  status: ('A' for Active; 'I' for Inactive)
REMARK    1  A    between atoms: C_1  and  C_2
REMARK    2  A    between atoms: N_5  and  C_6
REMARK    3  A    between atoms: C_7  and  C_8
REMARK    4  A    between atoms: N_12  and  C_13
REMARK                            x       y       z     vdW  Elec       q    Type
REMARK                         _______ _______ _______ _____ _____    ______ ____
ROOT
ATOM      1  C   UNL     1       4.408   6.067  18.486  0.00  0.00    +0.000 A 
ATOM      2  N   UNL     1       4.421   7.207  17.817  0.00  0.00    +0.000 NA
ATOM      3  N   UNL     1       3.142   7.414  17.380  0.00  0.00    +0.000 NA
ATOM      4  N   UNL     1       2.333   6.446  17.783  0.00  0.00    +0.000 NA
ATOM      5  N   UNL     1       3.080   5.650  18.587  0.00  0.00    +0.000 N 
ENDROOT
BRANCH   5   6
ATOM      6  C   UNL     1       2.488   4.624  19.365  0.00  0.00    +0.000 A 
ATOM      7  C   UNL     1       1.905   3.522  18.724  0.00  0.00    +0.000 A 
ATOM      8  C   UNL     1       1.390   2.470  19.485  0.00  0.00    +0.000 A 
ATOM      9  C   UNL     1       1.410   2.535  20.878  0.00  0.00    +0.000 A 
ATOM     10  C   UNL     1       1.936   3.655  21.517  0.00  0.00    +0.000 A 
ATOM     11  C   UNL     1       2.475   4.698  20.765  0.00  0.00    +0.000 A 
ENDBRANCH   5   6
BRANCH   1  13
ATOM     12  C   UNL     1       6.067   4.327  18.174  0.00  0.00    +0.000 C 
ATOM     13  C   UNL     1       5.482   5.260  18.937  0.00  0.00    +0.000 C 
BRANCH  12  18
ATOM     14  C   UNL     1       7.267   4.666  12.191  0.00  0.00    +0.000 C 
ATOM     15  C   UNL     1       7.008   4.652  13.641  0.00  0.00    +0.000 A 
ATOM     16  C   UNL     1       6.110   4.009  14.458  0.00  0.00    +0.000 A 
ATOM     17  C   UNL     1       6.454   4.425  15.768  0.00  0.00    +0.000 A 
ATOM     18  N   UNL     1       5.802   3.971  16.869  0.00  0.00    +0.000 N 
ATOM     19  N   UNL     1       7.475   5.292  15.731  0.00  0.00    +0.000 NA
ATOM     20  O   UNL     1       7.823   5.427  14.403  0.00  0.00    +0.000 OA
ATOM     21  H   UNL     1       5.076   3.263  16.773  0.00  0.00    +0.000 HD
ENDBRANCH  12  18
ENDBRANCH   1  13
TORSDOF 3
ENDMDL
MODEL 6
REMARK VINA RESULT:      -7.8      2.262      6.823
REMARK  Name = 
REMARK  4 active torsions:
REMARK  status: ('A' for Active; 'I' for Inactive)
REMARK    1  A    between atoms: C_1  and  C_2
REMARK    2  A    between atoms: N_5  and  C_6
REMARK    3  A    between atoms: C_7  and  C_8
REMARK    4  A    between atoms: N_12  and  C_13
REMARK                            x       y       z     vdW  Elec       q    Type
REMARK                         _______ _______ _______ _____ _____    ______ ____
ROOT
ATOM      1  C   UNL     1       4.478   6.038  18.490  0.00  0.00    +0.000 A 
ATOM      2  N   UNL     1       4.410   7.175  17.820  0.00  0.00    +0.000 NA
ATOM      3  N   UNL     1       3.113   7.303  17.405  0.00  0.00    +0.000 NA
ATOM      4  N   UNL     1       2.373   6.287  17.822  0.00  0.00    +0.000 NA
ATOM      5  N   UNL     1       3.181   5.540  18.613  0.00  0.00    +0.000 N 
ENDROOT
BRANCH   5   6
ATOM      6  C   UNL     1       2.666   4.480  19.401  0.00  0.00    +0.000 A 
ATOM      7  C   UNL     1       2.471   4.675  20.775  0.00  0.00    +0.000 A 
ATOM      8  C   UNL     1       1.891   3.662  21.544  0.00  0.00    +0.000 A 
ATOM      9  C   UNL     1       1.551   2.443  20.956  0.00  0.00    +0.000 A 
ATOM     10  C   UNL     1       1.798   2.226  19.603  0.00  0.00    +0.000 A 
ATOM     11  C   UNL     1       2.353   3.240  18.824  0.00  0.00    +0.000 A 
ENDBRANCH   5   6
BRANCH   1  13
ATOM     12  C   UNL     1       6.209   4.371  18.166  0.00  0.00    +0.000 C 
ATOM     13  C   UNL     1       5.607   5.299  18.923  0.00  0.00    +0.000 C 
BRANCH  12  18
ATOM     14  C   UNL     1       7.179   4.560  12.135  0.00  0.00    +0.000 C 
ATOM     15  C   UNL     1       6.973   4.584  13.594  0.00  0.00    +0.000 A 
ATOM     16  C   UNL     1       6.134   3.932  14.464  0.00  0.00    +0.000 A 
ATOM     17  C   UNL     1       6.505   4.405  15.746  0.00  0.00    +0.000 A 
ATOM     18  N   UNL     1       5.914   3.961  16.884  0.00  0.00    +0.000 N 
ATOM     19  N   UNL     1       7.485   5.313  15.643  0.00  0.00    +0.000 NA
ATOM     20  O   UNL     1       7.780   5.418  14.300  0.00  0.00    +0.000 OA
ATOM     21  H   UNL     1       5.217   3.220  16.838  0.00  0.00    +0.000 HD
ENDBRANCH  12  18
ENDBRANCH   1  13
TORSDOF 3
ENDMDL
MODEL 7
REMARK VINA RESULT:      -7.8      2.552      7.088
REMARK  Name = 
REMARK  4 active torsions:
REMARK  status: ('A' for Active; 'I' for Inactive)
REMARK    1  A    between atoms: C_1  and  C_2
REMARK    2  A    between atoms: N_5  and  C_6
REMARK    3  A    between atoms: C_7  and  C_8
REMARK    4  A    between atoms: N_12  and  C_13
REMARK                            x       y       z     vdW  Elec       q    Type
REMARK                         _______ _______ _______ _____ _____    ______ ____
ROOT
ATOM      1  C   UNL     1       3.607   3.396  18.579  0.00  0.00    +0.000 A 
ATOM      2  N   UNL     1       3.254   2.186  18.183  0.00  0.00    +0.000 NA
ATOM      3  N   UNL     1       1.910   2.078  18.416  0.00  0.00    +0.000 NA
ATOM      4  N   UNL     1       1.419   3.198  18.923  0.00  0.00    +0.000 NA
ATOM      5  N   UNL     1       2.443   4.087  18.919  0.00  0.00    +0.000 N 
ENDROOT
BRANCH   5   6
ATOM      6  C   UNL     1       2.230   5.460  19.201  0.00  0.00    +0.000 A 
ATOM      7  C   UNL     1       1.772   5.838  20.471  0.00  0.00    +0.000 A 
ATOM      8  C   UNL     1       1.634   7.194  20.782  0.00  0.00    +0.000 A 
ATOM      9  C   UNL     1       1.905   8.166  19.819  0.00  0.00    +0.000 A 
ATOM     10  C   UNL     1       2.304   7.790  18.539  0.00  0.00    +0.000 A 
ATOM     11  C   UNL     1       2.468   6.441  18.228  0.00  0.00    +0.000 A 
ENDBRANCH   5   6
BRANCH   1  13
ATOM     12  C   UNL     1       5.815   4.056  17.826  0.00  0.00    +0.000 C 
ATOM     13  C   UNL     1       4.894   3.947  18.794  0.00  0.00    +0.000 C 
BRANCH  12  18
ATOM     14  C   UNL     1       7.490   4.776  11.994  0.00  0.00    +0.000 C 
ATOM     15  C   UNL     1       7.104   4.674  13.412  0.00  0.00    +0.000 A 
ATOM     16  C   UNL     1       6.251   3.870  14.128  0.00  0.00    +0.000 A 
ATOM     17  C   UNL     1       6.401   4.292  15.471  0.00  0.00    +0.000 A 
ATOM     18  N   UNL     1       5.732   3.705  16.497  0.00  0.00    +0.000 N 
ATOM     19  N   UNL     1       7.267   5.312  15.547  0.00  0.00    +0.000 NA
ATOM     20  O   UNL     1       7.710   5.544  14.262  0.00  0.00    +0.000 OA
ATOM     21  H   UNL     1       5.142   2.894  16.319  0.00  0.00    +0.000 HD
ENDBRANCH  12  18
ENDBRANCH   1  13
TORSDOF 3
ENDMDL
MODEL 8
REMARK VINA RESULT:      -7.5      0.942      1.487
REMARK  Name = 
REMARK  4 active torsions:
REMARK  status: ('A' for Active; 'I' for Inactive)
REMARK    1  A    between atoms: C_1  and  C_2
REMARK    2  A    between atoms: N_5  and  C_6
REMARK    3  A    between atoms: C_7  and  C_8
REMARK    4  A    between atoms: N_12  and  C_13
REMARK                            x       y       z     vdW  Elec       q    Type
REMARK                         _______ _______ _______ _____ _____    ______ ____
ROOT
ATOM      1  C   UNL     1       6.521   5.911  17.316  0.00  0.00    +0.000 A 
ATOM      2  N   UNL     1       7.141   5.900  18.483  0.00  0.00    +0.000 NA
ATOM      3  N   UNL     1       8.012   4.846  18.448  0.00  0.00    +0.000 NA
ATOM      4  N   UNL     1       7.965   4.221  17.281  0.00  0.00    +0.000 NA
ATOM      5  N   UNL     1       7.124   4.949  16.505  0.00  0.00    +0.000 N 
ENDROOT
BRANCH   5   6
ATOM      6  C   UNL     1       6.992   4.691  15.118  0.00  0.00    +0.000 A 
ATOM      7  C   UNL     1       6.009   3.796  14.673  0.00  0.00    +0.000 A 
ATOM      8  C   UNL     1       5.822   3.597  13.303  0.00  0.00    +0.000 A 
ATOM      9  C   UNL     1       6.641   4.249  12.381  0.00  0.00    +0.000 A 
ATOM     10  C   UNL     1       7.656   5.093  12.821  0.00  0.00    +0.000 A 
ATOM     11  C   UNL     1       7.834   5.317  14.187  0.00  0.00    +0.000 A 
ENDBRANCH   5   6
BRANCH   1  13
ATOM     12  C   UNL     1       4.123   6.129  17.027  0.00  0.00    +0.000 C 
ATOM     13  C   UNL     1       5.365   6.619  16.903  0.00  0.00    +0.000 C 
BRANCH  12  18
ATOM     14  C   UNL     1       1.684   2.864  21.581  0.00  0.00    +0.000 C 
ATOM     15  C   UNL     1       2.295   3.701  20.534  0.00  0.00    +0.000 A 
ATOM     16  C   UNL     1       2.788   3.469  19.273  0.00  0.00    +0.000 A 
ATOM     17  C   UNL     1       3.188   4.743  18.802  0.00  0.00    +0.000 A 
ATOM     18  N   UNL     1       3.706   4.930  17.560  0.00  0.00    +0.000 N 
ATOM     19  N   UNL     1       2.978   5.676  19.741  0.00  0.00    +0.000 NA
ATOM     20  O   UNL     1       2.414   5.025  20.818  0.00  0.00    +0.000 OA
ATOM     21  H   UNL     1       3.761   4.147  16.912  0.00  0.00    +0.000 HD
ENDBRANCH  12  18
ENDBRANCH   1  13
TORSDOF 3
ENDMDL
MODEL 9
REMARK VINA RESULT:      -7.4      3.919      6.589
REMARK  Name = 
REMARK  4 active torsions:
REMARK  status: ('A' for Active; 'I' for Inactive)
REMARK    1  A    between atoms: C_1  and  C_2
REMARK    2  A    between atoms: N_5  and  C_6
REMARK    3  A    between atoms: C_7  and  C_8
REMARK    4  A    between atoms: N_12  and  C_13
REMARK                            x       y       z     vdW  Elec       q    Type
REMARK                         _______ _______ _______ _____ _____    ______ ____
ROOT
ATOM      1  C   UNL     1       6.940   5.533  16.407  0.00  0.00    +0.000 A 
ATOM      2  N   UNL     1       7.613   5.654  15.276  0.00  0.00    +0.000 NA
ATOM      3  N   UNL     1       6.818   5.127  14.295  0.00  0.00    +0.000 NA
ATOM      4  N   UNL     1       5.662   4.708  14.787  0.00  0.00    +0.000 NA
ATOM      5  N   UNL     1       5.663   5.067  16.094  0.00  0.00    +0.000 N 
ENDROOT
BRANCH   5   6
ATOM      6  C   UNL     1       4.494   4.961  16.889  0.00  0.00    +0.000 A 
ATOM      7  C   UNL     1       3.938   6.117  17.453  0.00  0.00    +0.000 A 
ATOM      8  C   UNL     1       2.743   6.031  18.172  0.00  0.00    +0.000 A 
ATOM      9  C   UNL     1       2.130   4.794  18.370  0.00  0.00    +0.000 A 
ATOM     10  C   UNL     1       2.711   3.636  17.860  0.00  0.00    +0.000 A 
ATOM     11  C   UNL     1       3.891   3.716  17.120  0.00  0.00    +0.000 A 
ENDBRANCH   5   6
BRANCH   1  13
ATOM     12  C   UNL     1       7.733   6.863  18.273  0.00  0.00    +0.000 C 
ATOM     13  C   UNL     1       7.373   5.684  17.748  0.00  0.00    +0.000 C 
BRANCH  12  18
ATOM     14  C   UNL     1       9.549  12.698  18.181  0.00  0.00    +0.000 C 
ATOM     15  C   UNL     1       9.120  11.292  18.277  0.00  0.00    +0.000 A 
ATOM     16  C   UNL     1       8.340  10.463  17.509  0.00  0.00    +0.000 A 
ATOM     17  C   UNL     1       8.383   9.212  18.171  0.00  0.00    +0.000 A 
ATOM     18  N   UNL     1       7.748   8.112  17.691  0.00  0.00    +0.000 N 
ATOM     19  N   UNL     1       9.117   9.299  19.289  0.00  0.00    +0.000 NA
ATOM     20  O   UNL     1       9.582  10.596  19.350  0.00  0.00    +0.000 OA
ATOM     21  H   UNL     1       7.267   8.156  16.794  0.00  0.00    +0.000 HD
ENDBRANCH  12  18
ENDBRANCH   1  13
TORSDOF 3
ENDMDL
