MODEL 1
REMARK VINA RESULT:      -9.1      0.000      0.000
REMARK  Name = 
REMARK  8 active torsions:
REMARK  status: ('A' for Active; 'I' for Inactive)
REMARK    1  A    between atoms: C_1  and  O_2
REMARK    2  A    between atoms: O_2  and  C_3
REMARK    3  A    between atoms: C_6  and  C_7
REMARK    4  A    between atoms: C_13  and  C_14
REMARK    5  A    between atoms: C_14  and  C_15
REMARK    6  A    between atoms: C_15  and  S_16
REMARK    7  A    between atoms: S_16  and  C_19
REMARK    8  A    between atoms: C_22  and  C_23
REMARK                            x       y       z     vdW  Elec       q    Type
REMARK                         _______ _______ _______ _____ _____    ______ ____
ROOT
ATOM      1  C   UNL     1       8.396   9.067  18.232  0.00  0.00    +0.000 C 
ATOM      2  O   UNL     1       7.614   9.291  17.311  0.00  0.00    +0.000 OA
ATOM      3  N   UNL     1       8.575   7.864  18.878  0.00  0.00    +0.000 N 
ATOM      4  C   UNL     1       7.917   6.697  18.553  0.00  0.00    +0.000 A 
ATOM      5  N   UNL     1       7.891   5.640  19.333  0.00  0.00    +0.000 NA
ATOM      6  N   UNL     1       7.158   4.601  18.784  0.00  0.00    +0.000 NA
ATOM      7  C   UNL     1       6.699   4.891  17.581  0.00  0.00    +0.000 A 
ATOM      8  S   UNL     1       7.122   6.470  17.060  0.00  0.00    +0.000 S 
ATOM      9  H   UNL     1       9.071   7.828  19.757  0.00  0.00    +0.000 HD
ENDROOT
BRANCH   1  13
ATOM     10  C   UNL     1      10.495  12.445  19.852  0.00  0.00    +0.000 A 
ATOM     11  C   UNL     1       9.904  11.492  20.681  0.00  0.00    +0.000 A 
ATOM     12  C   UNL     1       9.254  10.388  20.133  0.00  0.00    +0.000 A 
ATOM     13  C   UNL     1       9.180  10.226  18.743  0.00  0.00    +0.000 A 
ATOM     14  C   UNL     1       9.757  11.187  17.906  0.00  0.00    +0.000 A 
ATOM     15  C   UNL     1      10.412  12.297  18.463  0.00  0.00    +0.000 A 
BRANCH  10  17
ATOM     16  C   UNL     1      10.214  14.597  20.788  0.00  0.00    +0.000 C 
ATOM     17  O   UNL     1      11.070  13.497  20.508  0.00  0.00    +0.000 OA
ENDBRANCH  10  17
ENDBRANCH   1  13
BRANCH   7  18
ATOM     18  C   UNL     1       5.849   3.968  16.756  0.00  0.00    +0.000 C 
BRANCH  18  19
ATOM     19  C   UNL     1       4.425   4.457  16.536  0.00  0.00    +0.000 C 
BRANCH  19  20
ATOM     20  S   UNL     1       3.310   3.670  17.677  0.00  0.00    +0.000 S 
ATOM     21  O   UNL     1       2.178   3.161  16.930  0.00  0.00    +0.000 OA
ATOM     22  O   UNL     1       4.085   2.799  18.541  0.00  0.00    +0.000 OA
BRANCH  20  23
ATOM     23  C   UNL     1       2.725   5.029  18.665  0.00  0.00    +0.000 A 
ATOM     24  C   UNL     1       2.892   6.336  18.205  0.00  0.00    +0.000 A 
ATOM     25  C   UNL     1       2.449   7.404  18.986  0.00  0.00    +0.000 A 
ATOM     26  C   UNL     1       1.829   7.171  20.222  0.00  0.00    +0.000 A 
ATOM     27  C   UNL     1       1.352   8.313  21.072  0.00  0.00    +0.000 C 
ATOM     28  C   UNL     1       1.645   5.851  20.659  0.00  0.00    +0.000 A 
ATOM     29  C   UNL     1       2.087   4.777  19.882  0.00  0.00    +0.000 A 
ENDBRANCH  20  23
ENDBRANCH  19  20
ENDBRANCH  18  19
ENDBRANCH   7  18
TORSDOF 6
ENDMDL
MODEL 2
REMARK VINA RESULT:      -9.0      0.383      1.338
REMARK  Name = 
REMARK  8 active torsions:
REMARK  status: ('A' for Active; 'I' for Inactive)
REMARK    1  A    between atoms: C_1  and  O_2
REMARK    2  A    between atoms: O_2  and  C_3
REMARK    3  A    between atoms: C_6  and  C_7
REMARK    4  A    between atoms: C_13  and  C_14
REMARK    5  A    between atoms: C_14  and  C_15
REMARK    6  A    between atoms: C_15  and  S_16
REMARK    7  A    between atoms: S_16  and  C_19
REMARK    8  A    between atoms: C_22  and  C_23
REMARK                            x       y       z     vdW  Elec       q    Type
REMARK                         _______ _______ _______ _____ _____    ______ ____
ROOT
ATOM      1  C   UNL     1       8.298   9.061  18.204  0.00  0.00    +0.000 C 
ATOM      2  O   UNL     1       7.533   9.262  17.264  0.00  0.00    +0.000 OA
ATOM      3  N   UNL     1       8.491   7.866  18.860  0.00  0.00    +0.000 N 
ATOM      4  C   UNL     1       7.867   6.683  18.526  0.00  0.00    +0.000 A 
ATOM      5  N   UNL     1       7.848   5.628  19.312  0.00  0.00    +0.000 NA
ATOM      6  N   UNL     1       7.152   4.570  18.751  0.00  0.00    +0.000 NA
ATOM      7  C   UNL     1       6.714   4.844  17.536  0.00  0.00    +0.000 A 
ATOM      8  S   UNL     1       7.113   6.429  17.016  0.00  0.00    +0.000 S 
ATOM      9  H   UNL     1       8.967   7.845  19.751  0.00  0.00    +0.000 HD
ENDROOT
BRANCH   1  13
ATOM     10  C   UNL     1      10.577  12.448  19.536  0.00  0.00    +0.000 A 
ATOM     11  C   UNL     1      10.155  12.333  18.212  0.00  0.00    +0.000 A 
ATOM     12  C   UNL     1       9.390  11.240  17.810  0.00  0.00    +0.000 A 
ATOM     13  C   UNL     1       9.043  10.240  18.727  0.00  0.00    +0.000 A 
ATOM     14  C   UNL     1       9.478  10.342  20.054  0.00  0.00    +0.000 A 
ATOM     15  C   UNL     1      10.247  11.447  20.455  0.00  0.00    +0.000 A 
BRANCH  10  17
ATOM     16  C   UNL     1      10.844  14.788  19.327  0.00  0.00    +0.000 C 
ATOM     17  O   UNL     1      11.350  13.545  19.796  0.00  0.00    +0.000 OA
ENDBRANCH  10  17
ENDBRANCH   1  13
BRANCH   7  18
ATOM     18  C   UNL     1       5.905   3.898  16.697  0.00  0.00    +0.000 C 
BRANCH  18  19
ATOM     19  C   UNL     1       4.476   4.353  16.440  0.00  0.00    +0.000 C 
BRANCH  19  20
ATOM     20  S   UNL     1       3.358   3.585  17.591  0.00  0.00    +0.000 S 
ATOM     21  O   UNL     1       2.213   3.092  16.853  0.00  0.00    +0.000 OA
ATOM     22  O   UNL     1       4.126   2.704  18.450  0.00  0.00    +0.000 OA
BRANCH  20  23
ATOM     23  C   UNL     1       2.802   4.954  18.582  0.00  0.00    +0.000 A 
ATOM     24  C   UNL     1       2.286   4.716  19.857  0.00  0.00    +0.000 A 
ATOM     25  C   UNL     1       1.834   5.788  20.628  0.00  0.00    +0.000 A 
ATOM     26  C   UNL     1       1.906   7.098  20.136  0.00  0.00    +0.000 A 
ATOM     27  C   UNL     1       1.420   8.257  20.957  0.00  0.00    +0.000 C 
ATOM     28  C   UNL     1       2.453   7.324  18.864  0.00  0.00    +0.000 A 
ATOM     29  C   UNL     1       2.906   6.256  18.086  0.00  0.00    +0.000 A 
ENDBRANCH  20  23
ENDBRANCH  19  20
ENDBRANCH  18  19
ENDBRANCH   7  18
TORSDOF 6
ENDMDL
MODEL 3
REMARK VINA RESULT:      -8.6      0.836      1.255
REMARK  Name = 
REMARK  8 active torsions:
REMARK  status: ('A' for Active; 'I' for Inactive)
REMARK    1  A    between atoms: C_1  and  O_2
REMARK    2  A    between atoms: O_2  and  C_3
REMARK    3  A    between atoms: C_6  and  C_7
REMARK    4  A    between atoms: C_13  and  C_14
REMARK    5  A    between atoms: C_14  and  C_15
REMARK    6  A    between atoms: C_15  and  S_16
REMARK    7  A    between atoms: S_16  and  C_19
REMARK    8  A    between atoms: C_22  and  C_23
REMARK                            x       y       z     vdW  Elec       q    Type
REMARK                         _______ _______ _______ _____ _____    ______ ____
ROOT
ATOM      1  C   UNL     1       8.374   9.040  18.258  0.00  0.00    +0.000 C 
ATOM      2  O   UNL     1       7.449   9.336  17.506  0.00  0.00    +0.000 OA
ATOM      3  N   UNL     1       8.591   7.812  18.843  0.00  0.00    +0.000 N 
ATOM      4  C   UNL     1       7.805   6.698  18.636  0.00  0.00    +0.000 A 
ATOM      5  N   UNL     1       7.856   5.625  19.394  0.00  0.00    +0.000 NA
ATOM      6  N   UNL     1       6.963   4.650  18.982  0.00  0.00    +0.000 NA
ATOM      7  C   UNL     1       6.304   4.999  17.893  0.00  0.00    +0.000 A 
ATOM      8  S   UNL     1       6.728   6.559  17.319  0.00  0.00    +0.000 S 
ATOM      9  H   UNL     1       9.241   7.722  19.611  0.00  0.00    +0.000 HD
ENDROOT
BRANCH   1  13
ATOM     10  C   UNL     1      10.950  12.256  19.464  0.00  0.00    +0.000 A 
ATOM     11  C   UNL     1      10.314  11.445  20.403  0.00  0.00    +0.000 A 
ATOM     12  C   UNL     1       9.507  10.388  19.988  0.00  0.00    +0.000 A 
ATOM     13  C   UNL     1       9.318  10.132  18.624  0.00  0.00    +0.000 A 
ATOM     14  C   UNL     1       9.941  10.953  17.677  0.00  0.00    +0.000 A 
ATOM     15  C   UNL     1      10.755  12.016  18.100  0.00  0.00    +0.000 A 
BRANCH  10  17
ATOM     16  C   UNL     1      12.333  14.131  19.061  0.00  0.00    +0.000 C 
ATOM     17  O   UNL     1      11.684  13.279  19.996  0.00  0.00    +0.000 OA
ENDBRANCH  10  17
ENDBRANCH   1  13
BRANCH   7  18
ATOM     18  C   UNL     1       5.253   4.154  17.235  0.00  0.00    +0.000 C 
BRANCH  18  19
ATOM     19  C   UNL     1       4.505   3.231  18.186  0.00  0.00    +0.000 C 
BRANCH  19  20
ATOM     20  S   UNL     1       2.747   3.403  17.972  0.00  0.00    +0.000 S 
ATOM     21  O   UNL     1       2.480   3.636  16.568  0.00  0.00    +0.000 OA
ATOM     22  O   UNL     1       2.095   2.321  18.685  0.00  0.00    +0.000 OA
BRANCH  20  23
ATOM     23  C   UNL     1       2.387   4.915  18.838  0.00  0.00    +0.000 A 
ATOM     24  C   UNL     1       1.843   4.859  20.123  0.00  0.00    +0.000 A 
ATOM     25  C   UNL     1       1.543   6.044  20.797  0.00  0.00    +0.000 A 
ATOM     26  C   UNL     1       1.796   7.285  20.198  0.00  0.00    +0.000 A 
ATOM     27  C   UNL     1       1.475   8.565  20.913  0.00  0.00    +0.000 C 
ATOM     28  C   UNL     1       2.368   7.326  18.918  0.00  0.00    +0.000 A 
ATOM     29  C   UNL     1       2.669   6.143  18.236  0.00  0.00    +0.000 A 
ENDBRANCH  20  23
ENDBRANCH  19  20
ENDBRANCH  18  19
ENDBRANCH   7  18
TORSDOF 6
ENDMDL
MODEL 4
REMARK VINA RESULT:      -7.9      1.630      1.959
REMARK  Name = 
REMARK  8 active torsions:
REMARK  status: ('A' for Active; 'I' for Inactive)
REMARK    1  A    between atoms: C_1  and  O_2
REMARK    2  A    between atoms: O_2  and  C_3
REMARK    3  A    between atoms: C_6  and  C_7
REMARK    4  A    between atoms: C_13  and  C_14
REMARK    5  A    between atoms: C_14  and  C_15
REMARK    6  A    between atoms: C_15  and  S_16
REMARK    7  A    between atoms: S_16  and  C_19
REMARK    8  A    between atoms: C_22  and  C_23
REMARK                            x       y       z     vdW  Elec       q    Type
REMARK                         _______ _______ _______ _____ _____    ______ ____
ROOT
ATOM      1  C   UNL     1       8.107   8.426  18.199  0.00  0.00    +0.000 C 
ATOM      2  O   UNL     1       8.612   7.522  18.860  0.00  0.00    +0.000 OA
ATOM      3  N   UNL     1       7.107   8.292  17.261  0.00  0.00    +0.000 N 
ATOM      4  C   UNL     1       6.487   7.101  16.946  0.00  0.00    +0.000 A 
ATOM      5  N   UNL     1       5.739   6.937  15.877  0.00  0.00    +0.000 NA
ATOM      6  N   UNL     1       5.236   5.649  15.784  0.00  0.00    +0.000 NA
ATOM      7  C   UNL     1       5.578   4.900  16.815  0.00  0.00    +0.000 A 
ATOM      8  S   UNL     1       6.558   5.726  17.954  0.00  0.00    +0.000 S 
ATOM      9  H   UNL     1       6.910   9.044  16.616  0.00  0.00    +0.000 HD
ENDROOT
BRANCH   1  13
ATOM     10  C   UNL     1       9.692  12.346  18.946  0.00  0.00    +0.000 A 
ATOM     11  C   UNL     1       9.995  11.270  19.779  0.00  0.00    +0.000 A 
ATOM     12  C   UNL     1       9.493  10.000  19.500  0.00  0.00    +0.000 A 
ATOM     13  C   UNL     1       8.673   9.791  18.384  0.00  0.00    +0.000 A 
ATOM     14  C   UNL     1       8.352  10.870  17.552  0.00  0.00    +0.000 A 
ATOM     15  C   UNL     1       8.861  12.147  17.838  0.00  0.00    +0.000 A 
BRANCH  10  17
ATOM     16  C   UNL     1      11.598  13.544  19.668  0.00  0.00    +0.000 C 
ATOM     17  O   UNL     1      10.213  13.544  19.346  0.00  0.00    +0.000 OA
ENDBRANCH  10  17
ENDBRANCH   1  13
BRANCH   7  18
ATOM     18  C   UNL     1       5.200   3.455  16.971  0.00  0.00    +0.000 C 
BRANCH  18  19
ATOM     19  C   UNL     1       3.739   3.225  17.327  0.00  0.00    +0.000 C 
BRANCH  19  20
ATOM     20  S   UNL     1       3.538   3.089  19.089  0.00  0.00    +0.000 S 
ATOM     21  O   UNL     1       2.521   2.092  19.356  0.00  0.00    +0.000 OA
ATOM     22  O   UNL     1       4.855   2.988  19.690  0.00  0.00    +0.000 OA
BRANCH  20  23
ATOM     23  C   UNL     1       2.860   4.671  19.537  0.00  0.00    +0.000 A 
ATOM     24  C   UNL     1       2.135   4.799  20.724  0.00  0.00    +0.000 A 
ATOM     25  C   UNL     1       1.588   6.036  21.068  0.00  0.00    +0.000 A 
ATOM     26  C   UNL     1       1.772   7.149  20.238  0.00  0.00    +0.000 A 
ATOM     27  C   UNL     1       1.186   8.484  20.598  0.00  0.00    +0.000 C 
ATOM     28  C   UNL     1       2.525   7.012  19.062  0.00  0.00    +0.000 A 
ATOM     29  C   UNL     1       3.075   5.777  18.711  0.00  0.00    +0.000 A 
ENDBRANCH  20  23
ENDBRANCH  19  20
ENDBRANCH  18  19
ENDBRANCH   7  18
TORSDOF 6
ENDMDL
MODEL 5
REMARK VINA RESULT:      -7.9      1.642      1.876
REMARK  Name = 
REMARK  8 active torsions:
REMARK  status: ('A' for Active; 'I' for Inactive)
REMARK    1  A    between atoms: C_1  and  O_2
REMARK    2  A    between atoms: O_2  and  C_3
REMARK    3  A    between atoms: C_6  and  C_7
REMARK    4  A    between atoms: C_13  and  C_14
REMARK    5  A    between atoms: C_14  and  C_15
REMARK    6  A    between atoms: C_15  and  S_16
REMARK    7  A    between atoms: S_16  and  C_19
REMARK    8  A    between atoms: C_22  and  C_23
REMARK                            x       y       z     vdW  Elec       q    Type
REMARK                         _______ _______ _______ _____ _____    ______ ____
ROOT
ATOM      1  C   UNL     1       8.044   8.410  18.225  0.00  0.00    +0.000 C 
ATOM      2  O   UNL     1       8.538   7.476  18.852  0.00  0.00    +0.000 OA
ATOM      3  N   UNL     1       7.040   8.324  17.287  0.00  0.00    +0.000 N 
ATOM      4  C   UNL     1       6.400   7.155  16.932  0.00  0.00    +0.000 A 
ATOM      5  N   UNL     1       5.647   7.040  15.860  0.00  0.00    +0.000 NA
ATOM      6  N   UNL     1       5.124   5.765  15.723  0.00  0.00    +0.000 NA
ATOM      7  C   UNL     1       5.458   4.974  16.725  0.00  0.00    +0.000 A 
ATOM      8  S   UNL     1       6.454   5.744  17.890  0.00  0.00    +0.000 S 
ATOM      9  H   UNL     1       6.852   9.102  16.670  0.00  0.00    +0.000 HD
ENDROOT
BRANCH   1  13
ATOM     10  C   UNL     1       9.776  12.313  18.674  0.00  0.00    +0.000 A 
ATOM     11  C   UNL     1       8.851  12.041  17.667  0.00  0.00    +0.000 A 
ATOM     12  C   UNL     1       8.279  10.775  17.559  0.00  0.00    +0.000 A 
ATOM     13  C   UNL     1       8.632   9.759  18.456  0.00  0.00    +0.000 A 
ATOM     14  C   UNL     1       9.572  10.020  19.459  0.00  0.00    +0.000 A 
ATOM     15  C   UNL     1      10.144  11.299  19.564  0.00  0.00    +0.000 A 
BRANCH  10  17
ATOM     16  C   UNL     1      10.089  14.353  19.827  0.00  0.00    +0.000 C 
ATOM     17  O   UNL     1      10.291  13.579  18.652  0.00  0.00    +0.000 OA
ENDBRANCH  10  17
ENDBRANCH   1  13
BRANCH   7  18
ATOM     18  C   UNL     1       5.058   3.531  16.831  0.00  0.00    +0.000 C 
BRANCH  18  19
ATOM     19  C   UNL     1       4.465   3.142  18.177  0.00  0.00    +0.000 C 
BRANCH  19  20
ATOM     20  S   UNL     1       2.688   3.203  18.119  0.00  0.00    +0.000 S 
ATOM     21  O   UNL     1       2.284   3.367  16.738  0.00  0.00    +0.000 OA
ATOM     22  O   UNL     1       2.170   2.111  18.922  0.00  0.00    +0.000 OA
BRANCH  20  23
ATOM     23  C   UNL     1       2.313   4.721  18.967  0.00  0.00    +0.000 A 
ATOM     24  C   UNL     1       2.561   5.942  18.335  0.00  0.00    +0.000 A 
ATOM     25  C   UNL     1       2.283   7.134  19.005  0.00  0.00    +0.000 A 
ATOM     26  C   UNL     1       1.747   7.112  20.300  0.00  0.00    +0.000 A 
ATOM     27  C   UNL     1       1.448   8.390  21.030  0.00  0.00    +0.000 C 
ATOM     28  C   UNL     1       1.479   5.879  20.911  0.00  0.00    +0.000 A 
ATOM     29  C   UNL     1       1.755   4.681  20.247  0.00  0.00    +0.000 A 
ENDBRANCH  20  23
ENDBRANCH  19  20
ENDBRANCH  18  19
ENDBRANCH   7  18
TORSDOF 6
ENDMDL
MODEL 6
REMARK VINA RESULT:      -7.8      1.810      2.395
REMARK  Name = 
REMARK  8 active torsions:
REMARK  status: ('A' for Active; 'I' for Inactive)
REMARK    1  A    between atoms: C_1  and  O_2
REMARK    2  A    between atoms: O_2  and  C_3
REMARK    3  A    between atoms: C_6  and  C_7
REMARK    4  A    between atoms: C_13  and  C_14
REMARK    5  A    between atoms: C_14  and  C_15
REMARK    6  A    between atoms: C_15  and  S_16
REMARK    7  A    between atoms: S_16  and  C_19
REMARK    8  A    between atoms: C_22  and  C_23
REMARK                            x       y       z     vdW  Elec       q    Type
REMARK                         _______ _______ _______ _____ _____    ______ ____
ROOT
ATOM      1  C   UNL     1       8.432   9.201  18.232  0.00  0.00    +0.000 C 
ATOM      2  O   UNL     1       7.667   9.460  17.306  0.00  0.00    +0.000 OA
ATOM      3  N   UNL     1       8.588   7.978  18.844  0.00  0.00    +0.000 N 
ATOM      4  C   UNL     1       7.920   6.829  18.477  0.00  0.00    +0.000 A 
ATOM      5  N   UNL     1       7.871   5.750  19.226  0.00  0.00    +0.000 NA
ATOM      6  N   UNL     1       7.134   4.736  18.636  0.00  0.00    +0.000 NA
ATOM      7  C   UNL     1       6.695   5.066  17.436  0.00  0.00    +0.000 A 
ATOM      8  S   UNL     1       7.145   6.654  16.966  0.00  0.00    +0.000 S 
ATOM      9  H   UNL     1       9.071   7.910  19.730  0.00  0.00    +0.000 HD
ENDROOT
BRANCH   1  13
ATOM     10  C   UNL     1      10.876  12.413  19.697  0.00  0.00    +0.000 A 
ATOM     11  C   UNL     1      10.754  12.158  18.332  0.00  0.00    +0.000 A 
ATOM     12  C   UNL     1       9.932  11.130  17.878  0.00  0.00    +0.000 A 
ATOM     13  C   UNL     1       9.223  10.334  18.787  0.00  0.00    +0.000 A 
ATOM     14  C   UNL     1       9.353  10.575  20.160  0.00  0.00    +0.000 A 
ATOM     15  C   UNL     1      10.182  11.614  20.612  0.00  0.00    +0.000 A 
BRANCH  10  17
ATOM     16  C   UNL     1      11.640  14.600  19.224  0.00  0.00    +0.000 C 
ATOM     17  O   UNL     1      11.739  13.424  20.017  0.00  0.00    +0.000 OA
ENDBRANCH  10  17
ENDBRANCH   1  13
BRANCH   7  18
ATOM     18  C   UNL     1       5.847   4.178  16.573  0.00  0.00    +0.000 C 
BRANCH  18  19
ATOM     19  C   UNL     1       4.868   3.305  17.344  0.00  0.00    +0.000 C 
BRANCH  19  20
ATOM     20  S   UNL     1       3.251   4.045  17.366  0.00  0.00    +0.000 S 
ATOM     21  O   UNL     1       3.410   5.484  17.425  0.00  0.00    +0.000 OA
ATOM     22  O   UNL     1       2.454   3.426  16.324  0.00  0.00    +0.000 OA
BRANCH  20  23
ATOM     23  C   UNL     1       2.593   3.519  18.933  0.00  0.00    +0.000 A 
ATOM     24  C   UNL     1       1.225   3.651  19.184  0.00  0.00    +0.000 A 
ATOM     25  C   UNL     1       0.710   3.255  20.419  0.00  0.00    +0.000 A 
ATOM     26  C   UNL     1       1.553   2.716  21.400  0.00  0.00    +0.000 A 
ATOM     27  C   UNL     1       1.009   2.290  22.733  0.00  0.00    +0.000 C 
ATOM     28  C   UNL     1       2.920   2.565  21.124  0.00  0.00    +0.000 A 
ATOM     29  C   UNL     1       3.443   2.961  19.890  0.00  0.00    +0.000 A 
ENDBRANCH  20  23
ENDBRANCH  19  20
ENDBRANCH  18  19
ENDBRANCH   7  18
TORSDOF 6
ENDMDL
MODEL 7
REMARK VINA RESULT:      -7.7      3.851      7.633
REMARK  Name = 
REMARK  8 active torsions:
REMARK  status: ('A' for Active; 'I' for Inactive)
REMARK    1  A    between atoms: C_1  and  O_2
REMARK    2  A    between atoms: O_2  and  C_3
REMARK    3  A    between atoms: C_6  and  C_7
REMARK    4  A    between atoms: C_13  and  C_14
REMARK    5  A    between atoms: C_14  and  C_15
REMARK    6  A    between atoms: C_15  and  S_16
REMARK    7  A    between atoms: S_16  and  C_19
REMARK    8  A    between atoms: C_22  and  C_23
REMARK                            x       y       z     vdW  Elec       q    Type
REMARK                         _______ _______ _______ _____ _____    ______ ____
ROOT
ATOM      1  C   UNL     1       1.251   8.264  20.498  0.00  0.00    +0.000 C 
ATOM      2  O   UNL     1       1.691   8.581  19.396  0.00  0.00    +0.000 OA
ATOM      3  N   UNL     1       1.330   7.021  21.083  0.00  0.00    +0.000 N 
ATOM      4  C   UNL     1       1.964   5.932  20.521  0.00  0.00    +0.000 A 
ATOM      5  N   UNL     1       1.804   4.700  20.952  0.00  0.00    +0.000 NA
ATOM      6  N   UNL     1       2.543   3.788  20.217  0.00  0.00    +0.000 NA
ATOM      7  C   UNL     1       3.279   4.369  19.288  0.00  0.00    +0.000 A 
ATOM      8  S   UNL     1       3.091   6.074  19.248  0.00  0.00    +0.000 S 
ATOM      9  H   UNL     1       0.755   6.796  21.883  0.00  0.00    +0.000 HD
ENDROOT
BRANCH   1  13
ATOM     10  C   UNL     1      -0.744  11.421  22.617  0.00  0.00    +0.000 A 
ATOM     11  C   UNL     1      -0.159  11.641  21.370  0.00  0.00    +0.000 A 
ATOM     12  C   UNL     1       0.456  10.594  20.687  0.00  0.00    +0.000 A 
ATOM     13  C   UNL     1       0.502   9.311  21.248  0.00  0.00    +0.000 A 
ATOM     14  C   UNL     1      -0.069   9.088  22.506  0.00  0.00    +0.000 A 
ATOM     15  C   UNL     1      -0.689  10.146  23.189  0.00  0.00    +0.000 A 
BRANCH  10  17
ATOM     16  C   UNL     1      -2.701  12.623  23.178  0.00  0.00    +0.000 C 
ATOM     17  O   UNL     1      -1.283  12.534  23.200  0.00  0.00    +0.000 OA
ENDBRANCH  10  17
ENDBRANCH   1  13
BRANCH   7  18
ATOM     18  C   UNL     1       4.160   3.630  18.323  0.00  0.00    +0.000 C 
BRANCH  18  19
ATOM     19  C   UNL     1       5.627   4.029  18.383  0.00  0.00    +0.000 C 
BRANCH  19  20
ATOM     20  S   UNL     1       6.100   4.896  16.903  0.00  0.00    +0.000 S 
ATOM     21  O   UNL     1       7.054   4.078  16.182  0.00  0.00    +0.000 OA
ATOM     22  O   UNL     1       4.895   5.380  16.256  0.00  0.00    +0.000 OA
BRANCH  20  23
ATOM     23  C   UNL     1       6.980   6.308  17.532  0.00  0.00    +0.000 A 
ATOM     24  C   UNL     1       6.829   7.548  16.906  0.00  0.00    +0.000 A 
ATOM     25  C   UNL     1       7.532   8.653  17.388  0.00  0.00    +0.000 A 
ATOM     26  C   UNL     1       8.376   8.528  18.499  0.00  0.00    +0.000 A 
ATOM     27  C   UNL     1       9.139   9.710  19.023  0.00  0.00    +0.000 C 
ATOM     28  C   UNL     1       8.497   7.283  19.134  0.00  0.00    +0.000 A 
ATOM     29  C   UNL     1       7.797   6.172  18.656  0.00  0.00    +0.000 A 
ENDBRANCH  20  23
ENDBRANCH  19  20
ENDBRANCH  18  19
ENDBRANCH   7  18
TORSDOF 6
ENDMDL
MODEL 8
REMARK VINA RESULT:      -7.6      6.565      9.690
REMARK  Name = 
REMARK  8 active torsions:
REMARK  status: ('A' for Active; 'I' for Inactive)
REMARK    1  A    between atoms: C_1  and  O_2
REMARK    2  A    between atoms: O_2  and  C_3
REMARK    3  A    between atoms: C_6  and  C_7
REMARK    4  A    between atoms: C_13  and  C_14
REMARK    5  A    between atoms: C_14  and  C_15
REMARK    6  A    between atoms: C_15  and  S_16
REMARK    7  A    between atoms: S_16  and  C_19
REMARK    8  A    between atoms: C_22  and  C_23
REMARK                            x       y       z     vdW  Elec       q    Type
REMARK                         _______ _______ _______ _____ _____    ______ ____
ROOT
ATOM      1  C   UNL     1       1.761   8.177  19.833  0.00  0.00    +0.000 C 
ATOM      2  O   UNL     1       1.521   9.074  19.028  0.00  0.00    +0.000 OA
ATOM      3  N   UNL     1       1.434   8.171  21.170  0.00  0.00    +0.000 N 
ATOM      4  C   UNL     1       0.740   9.176  21.810  0.00  0.00    +0.000 A 
ATOM      5  N   UNL     1       0.671   9.289  23.118  0.00  0.00    +0.000 NA
ATOM      6  N   UNL     1      -0.079  10.385  23.510  0.00  0.00    +0.000 NA
ATOM      7  C   UNL     1      -0.597  11.034  22.484  0.00  0.00    +0.000 A 
ATOM      8  S   UNL     1      -0.174  10.347  20.969  0.00  0.00    +0.000 S 
ATOM      9  H   UNL     1       1.860   7.501  21.795  0.00  0.00    +0.000 HD
ENDROOT
BRANCH   1  13
ATOM     10  C   UNL     1       3.903   4.843  18.179  0.00  0.00    +0.000 A 
ATOM     11  C   UNL     1       3.793   6.050  17.489  0.00  0.00    +0.000 A 
ATOM     12  C   UNL     1       3.119   7.128  18.058  0.00  0.00    +0.000 A 
ATOM     13  C   UNL     1       2.538   7.011  19.327  0.00  0.00    +0.000 A 
ATOM     14  C   UNL     1       2.630   5.797  20.018  0.00  0.00    +0.000 A 
ATOM     15  C   UNL     1       3.312   4.714  19.440  0.00  0.00    +0.000 A 
BRANCH  10  17
ATOM     16  C   UNL     1       5.611   4.275  16.646  0.00  0.00    +0.000 C 
ATOM     17  O   UNL     1       4.555   3.853  17.500  0.00  0.00    +0.000 OA
ENDBRANCH  10  17
ENDBRANCH   1  13
BRANCH   7  18
ATOM     18  C   UNL     1      -1.431  12.275  22.603  0.00  0.00    +0.000 C 
BRANCH  18  19
ATOM     19  C   UNL     1      -1.648  13.013  21.290  0.00  0.00    +0.000 C 
BRANCH  19  20
ATOM     20  S   UNL     1      -3.377  13.050  20.871  0.00  0.00    +0.000 S 
ATOM     21  O   UNL     1      -4.088  12.195  21.799  0.00  0.00    +0.000 OA
ATOM     22  O   UNL     1      -3.768  14.434  20.683  0.00  0.00    +0.000 OA
BRANCH  20  23
ATOM     23  C   UNL     1      -3.418  12.256  19.280  0.00  0.00    +0.000 A 
ATOM     24  C   UNL     1      -2.220  11.949  18.632  0.00  0.00    +0.000 A 
ATOM     25  C   UNL     1      -2.251  11.342  17.376  0.00  0.00    +0.000 A 
ATOM     26  C   UNL     1      -3.474  11.029  16.769  0.00  0.00    +0.000 A 
ATOM     27  C   UNL     1      -3.519  10.378  15.416  0.00  0.00    +0.000 C 
ATOM     28  C   UNL     1      -4.670  11.319  17.443  0.00  0.00    +0.000 A 
ATOM     29  C   UNL     1      -4.646  11.928  18.701  0.00  0.00    +0.000 A 
ENDBRANCH  20  23
ENDBRANCH  19  20
ENDBRANCH  18  19
ENDBRANCH   7  18
TORSDOF 6
ENDMDL
MODEL 9
REMARK VINA RESULT:      -7.6      6.549      9.881
REMARK  Name = 
REMARK  8 active torsions:
REMARK  status: ('A' for Active; 'I' for Inactive)
REMARK    1  A    between atoms: C_1  and  O_2
REMARK    2  A    between atoms: O_2  and  C_3
REMARK    3  A    between atoms: C_6  and  C_7
REMARK    4  A    between atoms: C_13  and  C_14
REMARK    5  A    between atoms: C_14  and  C_15
REMARK    6  A    between atoms: C_15  and  S_16
REMARK    7  A    between atoms: S_16  and  C_19
REMARK    8  A    between atoms: C_22  and  C_23
REMARK                            x       y       z     vdW  Elec       q    Type
REMARK                         _______ _______ _______ _____ _____    ______ ____
ROOT
ATOM      1  C   UNL     1       1.735   7.998  20.007  0.00  0.00    +0.000 C 
ATOM      2  O   UNL     1       1.721   8.940  19.218  0.00  0.00    +0.000 OA
ATOM      3  N   UNL     1       1.232   7.997  21.288  0.00  0.00    +0.000 N 
ATOM      4  C   UNL     1       0.589   9.067  21.875  0.00  0.00    +0.000 A 
ATOM      5  N   UNL     1       0.358   9.151  23.167  0.00  0.00    +0.000 NA
ATOM      6  N   UNL     1      -0.295  10.325  23.506  0.00  0.00    +0.000 NA
ATOM      7  C   UNL     1      -0.583  11.064  22.451  0.00  0.00    +0.000 A 
ATOM      8  S   UNL     1      -0.048  10.369  20.976  0.00  0.00    +0.000 S 
ATOM      9  H   UNL     1       1.481   7.261  21.933  0.00  0.00    +0.000 HD
ENDROOT
BRANCH   1  13
ATOM     10  C   UNL     1       3.631   4.450  18.504  0.00  0.00    +0.000 A 
ATOM     11  C   UNL     1       3.691   5.656  17.807  0.00  0.00    +0.000 A 
ATOM     12  C   UNL     1       3.095   6.802  18.329  0.00  0.00    +0.000 A 
ATOM     13  C   UNL     1       2.420   6.755  19.556  0.00  0.00    +0.000 A 
ATOM     14  C   UNL     1       2.342   5.543  20.253  0.00  0.00    +0.000 A 
ATOM     15  C   UNL     1       2.946   4.392  19.723  0.00  0.00    +0.000 A 
BRANCH  10  17
ATOM     16  C   UNL     1       3.515   2.161  17.925  0.00  0.00    +0.000 C 
ATOM     17  O   UNL     1       4.222   3.393  17.872  0.00  0.00    +0.000 OA
ENDBRANCH  10  17
ENDBRANCH   1  13
BRANCH   7  18
ATOM     18  C   UNL     1      -1.263  12.400  22.515  0.00  0.00    +0.000 C 
BRANCH  18  19
ATOM     19  C   UNL     1      -1.536  13.030  21.157  0.00  0.00    +0.000 C 
BRANCH  19  20
ATOM     20  S   UNL     1      -3.275  12.986  20.784  0.00  0.00    +0.000 S 
ATOM     21  O   UNL     1      -3.921  12.105  21.735  0.00  0.00    +0.000 OA
ATOM     22  O   UNL     1      -3.734  14.349  20.600  0.00  0.00    +0.000 OA
BRANCH  20  23
ATOM     23  C   UNL     1      -3.322  12.181  19.198  0.00  0.00    +0.000 A 
ATOM     24  C   UNL     1      -4.550  11.796  18.657  0.00  0.00    +0.000 A 
ATOM     25  C   UNL     1      -4.587  11.150  17.421  0.00  0.00    +0.000 A 
ATOM     26  C   UNL     1      -3.403  10.897  16.717  0.00  0.00    +0.000 A 
ATOM     27  C   UNL     1      -3.432  10.199  15.387  0.00  0.00    +0.000 C 
ATOM     28  C   UNL     1      -2.178  11.313  17.259  0.00  0.00    +0.000 A 
ATOM     29  C   UNL     1      -2.134  11.960  18.497  0.00  0.00    +0.000 A 
ENDBRANCH  20  23
ENDBRANCH  19  20
ENDBRANCH  18  19
ENDBRANCH   7  18
TORSDOF 6
ENDMDL
