MODEL 1
REMARK VINA RESULT:      -6.7      0.000      0.000
REMARK  Name = 
REMARK  3 active torsions:
REMARK  status: ('A' for Active; 'I' for Inactive)
REMARK    1  A    between atoms: C_4  and  O_5
REMARK    2  A    between atoms: C_7  and  C_8
REMARK    3  A    between atoms: C_9  and  C_10
REMARK                            x       y       z     vdW  Elec       q    Type
REMARK                         _______ _______ _______ _____ _____    ______ ____
ROOT
ATOM      1  O   UNL     1       6.249   5.659  14.765  0.00  0.00    +0.000 OA
ATOM      2  C   UNL     1       6.483   5.670  15.968  0.00  0.00    +0.000 A 
ATOM      3  C   UNL     1       5.987   4.586  16.850  0.00  0.00    +0.000 A 
ATOM      4  C   UNL     1       6.294   4.629  18.152  0.00  0.00    +0.000 A 
ATOM      5  C   UNL     1       7.085   5.701  18.704  0.00  0.00    +0.000 A 
ATOM      6  C   UNL     1       7.504   6.707  17.916  0.00  0.00    +0.000 A 
ATOM      7  N   UNL     1       7.206   6.665  16.573  0.00  0.00    +0.000 N 
ATOM      8  H   UNL     1       7.563   7.374  15.948  0.00  0.00    +0.000 HD
ENDROOT
BRANCH   4   9
ATOM      9  O   UNL     1       5.890   3.688  19.066  0.00  0.00    +0.000 OA
ATOM     10  H   UNL     1       6.143   2.808  18.737  0.00  0.00    +0.000 HD
ENDBRANCH   4   9
BRANCH   6  11
ATOM     11  C   UNL     1       8.295   7.808  18.428  0.00  0.00    +0.000 C 
ATOM     12  C   UNL     1       8.215   9.081  18.007  0.00  0.00    +0.000 C 
BRANCH  12  13
ATOM     13  C   UNL     1       9.030  10.103  18.568  0.00  0.00    +0.000 A 
ATOM     14  C   UNL     1       9.726  11.108  17.905  0.00  0.00    +0.000 A 
ATOM     15  C   UNL     1      10.402  11.885  18.875  0.00  0.00    +0.000 A 
ATOM     16  C   UNL     1      10.090  11.323  20.085  0.00  0.00    +0.000 A 
ATOM     17  O   UNL     1       9.271  10.257  19.916  0.00  0.00    +0.000 OA
ENDBRANCH  12  13
ENDBRANCH   6  11
TORSDOF 3
ENDMDL
MODEL 2
REMARK VINA RESULT:      -6.7      0.875      1.089
REMARK  Name = 
REMARK  3 active torsions:
REMARK  status: ('A' for Active; 'I' for Inactive)
REMARK    1  A    between atoms: C_4  and  O_5
REMARK    2  A    between atoms: C_7  and  C_8
REMARK    3  A    between atoms: C_9  and  C_10
REMARK                            x       y       z     vdW  Elec       q    Type
REMARK                         _______ _______ _______ _____ _____    ______ ____
ROOT
ATOM      1  O   UNL     1       5.246   6.429  15.063  0.00  0.00    +0.000 OA
ATOM      2  C   UNL     1       5.804   6.234  16.136  0.00  0.00    +0.000 A 
ATOM      3  C   UNL     1       5.564   4.988  16.904  0.00  0.00    +0.000 A 
ATOM      4  C   UNL     1       6.220   4.810  18.057  0.00  0.00    +0.000 A 
ATOM      5  C   UNL     1       7.140   5.800  18.561  0.00  0.00    +0.000 A 
ATOM      6  C   UNL     1       7.331   6.949  17.889  0.00  0.00    +0.000 A 
ATOM      7  N   UNL     1       6.672   7.136  16.695  0.00  0.00    +0.000 N 
ATOM      8  H   UNL     1       6.847   7.961  16.139  0.00  0.00    +0.000 HD
ENDROOT
BRANCH   4   9
ATOM      9  O   UNL     1       6.079   3.702  18.855  0.00  0.00    +0.000 OA
ATOM     10  H   UNL     1       6.963   3.355  19.064  0.00  0.00    +0.000 HD
ENDBRANCH   4   9
BRANCH   6  11
ATOM     11  C   UNL     1       8.240   7.975  18.361  0.00  0.00    +0.000 C 
ATOM     12  C   UNL     1       8.220   9.262  17.978  0.00  0.00    +0.000 C 
BRANCH  12  13
ATOM     13  C   UNL     1       9.151  10.206  18.494  0.00  0.00    +0.000 A 
ATOM     14  C   UNL     1       9.436  10.493  19.825  0.00  0.00    +0.000 A 
ATOM     15  C   UNL     1      10.423  11.506  19.851  0.00  0.00    +0.000 A 
ATOM     16  C   UNL     1      10.698  11.793  18.540  0.00  0.00    +0.000 A 
ATOM     17  O   UNL     1       9.945  11.023  17.719  0.00  0.00    +0.000 OA
ENDBRANCH  12  13
ENDBRANCH   6  11
TORSDOF 3
ENDMDL
MODEL 3
REMARK VINA RESULT:      -6.5      0.941      1.116
REMARK  Name = 
REMARK  3 active torsions:
REMARK  status: ('A' for Active; 'I' for Inactive)
REMARK    1  A    between atoms: C_4  and  O_5
REMARK    2  A    between atoms: C_7  and  C_8
REMARK    3  A    between atoms: C_9  and  C_10
REMARK                            x       y       z     vdW  Elec       q    Type
REMARK                         _______ _______ _______ _____ _____    ______ ____
ROOT
ATOM      1  O   UNL     1       7.022   4.842  14.509  0.00  0.00    +0.000 OA
ATOM      2  C   UNL     1       6.862   5.114  15.693  0.00  0.00    +0.000 A 
ATOM      3  C   UNL     1       5.987   4.282  16.554  0.00  0.00    +0.000 A 
ATOM      4  C   UNL     1       5.869   4.604  17.848  0.00  0.00    +0.000 A 
ATOM      5  C   UNL     1       6.565   5.735  18.409  0.00  0.00    +0.000 A 
ATOM      6  C   UNL     1       7.328   6.516  17.625  0.00  0.00    +0.000 A 
ATOM      7  N   UNL     1       7.468   6.186  16.296  0.00  0.00    +0.000 N 
ATOM      8  H   UNL     1       8.085   6.718  15.700  0.00  0.00    +0.000 HD
ENDROOT
BRANCH   4   9
ATOM      9  O   UNL     1       5.088   3.912  18.741  0.00  0.00    +0.000 OA
ATOM     10  H   UNL     1       4.463   3.358  18.242  0.00  0.00    +0.000 HD
ENDBRANCH   4   9
BRANCH   6  11
ATOM     11  C   UNL     1       8.040   7.668  18.143  0.00  0.00    +0.000 C 
ATOM     12  C   UNL     1       7.888   8.931  17.712  0.00  0.00    +0.000 C 
BRANCH  12  13
ATOM     13  C   UNL     1       8.628  10.005  18.280  0.00  0.00    +0.000 A 
ATOM     14  C   UNL     1       9.410   9.997  19.430  0.00  0.00    +0.000 A 
ATOM     15  C   UNL     1       9.945  11.295  19.603  0.00  0.00    +0.000 A 
ATOM     16  C   UNL     1       9.469  12.038  18.555  0.00  0.00    +0.000 A 
ATOM     17  O   UNL     1       8.680  11.279  17.756  0.00  0.00    +0.000 OA
ENDBRANCH  12  13
ENDBRANCH   6  11
TORSDOF 3
ENDMDL
MODEL 4
REMARK VINA RESULT:      -6.4      5.387      6.666
REMARK  Name = 
REMARK  3 active torsions:
REMARK  status: ('A' for Active; 'I' for Inactive)
REMARK    1  A    between atoms: C_4  and  O_5
REMARK    2  A    between atoms: C_7  and  C_8
REMARK    3  A    between atoms: C_9  and  C_10
REMARK                            x       y       z     vdW  Elec       q    Type
REMARK                         _______ _______ _______ _____ _____    ______ ____
ROOT
ATOM      1  O   UNL     1       5.079   1.754  21.040  0.00  0.00    +0.000 OA
ATOM      2  C   UNL     1       4.426   2.405  20.233  0.00  0.00    +0.000 A 
ATOM      3  C   UNL     1       3.098   2.958  20.595  0.00  0.00    +0.000 A 
ATOM      4  C   UNL     1       2.439   3.686  19.687  0.00  0.00    +0.000 A 
ATOM      5  C   UNL     1       2.989   3.935  18.377  0.00  0.00    +0.000 A 
ATOM      6  C   UNL     1       4.174   3.404  18.029  0.00  0.00    +0.000 A 
ATOM      7  N   UNL     1       4.867   2.665  18.961  0.00  0.00    +0.000 N 
ATOM      8  H   UNL     1       5.788   2.309  18.747  0.00  0.00    +0.000 HD
ENDROOT
BRANCH   4   9
ATOM      9  O   UNL     1       1.204   4.246  19.904  0.00  0.00    +0.000 OA
ATOM     10  H   UNL     1       0.706   3.672  20.511  0.00  0.00    +0.000 HD
ENDBRANCH   4   9
BRANCH   6  11
ATOM     11  C   UNL     1       4.762   3.621  16.722  0.00  0.00    +0.000 C 
ATOM     12  C   UNL     1       5.901   4.292  16.488  0.00  0.00    +0.000 C 
BRANCH  12  13
ATOM     13  C   UNL     1       6.410   4.457  15.169  0.00  0.00    +0.000 A 
ATOM     14  C   UNL     1       5.965   3.859  13.995  0.00  0.00    +0.000 A 
ATOM     15  C   UNL     1       6.780   4.319  12.935  0.00  0.00    +0.000 A 
ATOM     16  C   UNL     1       7.684   5.176  13.504  0.00  0.00    +0.000 A 
ATOM     17  O   UNL     1       7.474   5.268  14.839  0.00  0.00    +0.000 OA
ENDBRANCH  12  13
ENDBRANCH   6  11
TORSDOF 3
ENDMDL
MODEL 5
REMARK VINA RESULT:      -6.4      4.275      7.254
REMARK  Name = 
REMARK  3 active torsions:
REMARK  status: ('A' for Active; 'I' for Inactive)
REMARK    1  A    between atoms: C_4  and  O_5
REMARK    2  A    between atoms: C_7  and  C_8
REMARK    3  A    between atoms: C_9  and  C_10
REMARK                            x       y       z     vdW  Elec       q    Type
REMARK                         _______ _______ _______ _____ _____    ______ ____
ROOT
ATOM      1  O   UNL     1       7.638   6.668  16.673  0.00  0.00    +0.000 OA
ATOM      2  C   UNL     1       6.901   5.750  16.334  0.00  0.00    +0.000 A 
ATOM      3  C   UNL     1       7.102   5.048  15.043  0.00  0.00    +0.000 A 
ATOM      4  C   UNL     1       6.288   4.032  14.732  0.00  0.00    +0.000 A 
ATOM      5  C   UNL     1       5.229   3.618  15.619  0.00  0.00    +0.000 A 
ATOM      6  C   UNL     1       5.016   4.276  16.772  0.00  0.00    +0.000 A 
ATOM      7  N   UNL     1       5.857   5.313  17.107  0.00  0.00    +0.000 N 
ATOM      8  H   UNL     1       5.759   5.782  17.997  0.00  0.00    +0.000 HD
ENDROOT
BRANCH   4   9
ATOM      9  O   UNL     1       6.374   3.310  13.568  0.00  0.00    +0.000 OA
ATOM     10  H   UNL     1       7.244   2.876  13.536  0.00  0.00    +0.000 HD
ENDBRANCH   4   9
BRANCH   6  11
ATOM     11  C   UNL     1       3.959   3.900  17.689  0.00  0.00    +0.000 C 
ATOM     12  C   UNL     1       4.039   3.958  19.029  0.00  0.00    +0.000 C 
BRANCH  12  13
ATOM     13  C   UNL     1       2.949   3.570  19.857  0.00  0.00    +0.000 A 
ATOM     14  C   UNL     1       2.980   2.799  21.014  0.00  0.00    +0.000 A 
ATOM     15  C   UNL     1       1.654   2.671  21.489  0.00  0.00    +0.000 A 
ATOM     16  C   UNL     1       0.873   3.369  20.606  0.00  0.00    +0.000 A 
ATOM     17  O   UNL     1       1.634   3.911  19.626  0.00  0.00    +0.000 OA
ENDBRANCH  12  13
ENDBRANCH   6  11
TORSDOF 3
ENDMDL
MODEL 6
REMARK VINA RESULT:      -6.4      4.097      7.224
REMARK  Name = 
REMARK  3 active torsions:
REMARK  status: ('A' for Active; 'I' for Inactive)
REMARK    1  A    between atoms: C_4  and  O_5
REMARK    2  A    between atoms: C_7  and  C_8
REMARK    3  A    between atoms: C_9  and  C_10
REMARK                            x       y       z     vdW  Elec       q    Type
REMARK                         _______ _______ _______ _____ _____    ______ ____
ROOT
ATOM      1  O   UNL     1       7.722   6.898  16.472  0.00  0.00    +0.000 OA
ATOM      2  C   UNL     1       7.027   5.900  16.326  0.00  0.00    +0.000 A 
ATOM      3  C   UNL     1       7.022   5.154  15.044  0.00  0.00    +0.000 A 
ATOM      4  C   UNL     1       6.267   4.053  14.946  0.00  0.00    +0.000 A 
ATOM      5  C   UNL     1       5.465   3.590  16.051  0.00  0.00    +0.000 A 
ATOM      6  C   UNL     1       5.435   4.283  17.202  0.00  0.00    +0.000 A 
ATOM      7  N   UNL     1       6.218   5.409  17.318  0.00  0.00    +0.000 N 
ATOM      8  H   UNL     1       6.263   5.911  18.194  0.00  0.00    +0.000 HD
ENDROOT
BRANCH   4   9
ATOM      9  O   UNL     1       6.179   3.284  13.812  0.00  0.00    +0.000 OA
ATOM     10  H   UNL     1       6.998   2.767  13.724  0.00  0.00    +0.000 HD
ENDBRANCH   4   9
BRANCH   6  11
ATOM     11  C   UNL     1       4.637   3.859  18.336  0.00  0.00    +0.000 C 
ATOM     12  C   UNL     1       3.297   3.904  18.400  0.00  0.00    +0.000 C 
BRANCH  12  13
ATOM     13  C   UNL     1       2.592   3.464  19.555  0.00  0.00    +0.000 A 
ATOM     14  C   UNL     1       1.219   3.462  19.776  0.00  0.00    +0.000 A 
ATOM     15  C   UNL     1       0.985   2.940  21.070  0.00  0.00    +0.000 A 
ATOM     16  C   UNL     1       2.221   2.647  21.582  0.00  0.00    +0.000 A 
ATOM     17  O   UNL     1       3.191   2.955  20.688  0.00  0.00    +0.000 OA
ENDBRANCH  12  13
ENDBRANCH   6  11
TORSDOF 3
ENDMDL
MODEL 7
REMARK VINA RESULT:      -6.4      1.476      1.888
REMARK  Name = 
REMARK  3 active torsions:
REMARK  status: ('A' for Active; 'I' for Inactive)
REMARK    1  A    between atoms: C_4  and  O_5
REMARK    2  A    between atoms: C_7  and  C_8
REMARK    3  A    between atoms: C_9  and  C_10
REMARK                            x       y       z     vdW  Elec       q    Type
REMARK                         _______ _______ _______ _____ _____    ______ ____
ROOT
ATOM      1  O   UNL     1       5.614   5.567  16.188  0.00  0.00    +0.000 OA
ATOM      2  C   UNL     1       6.365   6.046  17.028  0.00  0.00    +0.000 A 
ATOM      3  C   UNL     1       6.757   5.271  18.231  0.00  0.00    +0.000 A 
ATOM      4  C   UNL     1       7.604   5.829  19.104  0.00  0.00    +0.000 A 
ATOM      5  C   UNL     1       8.130   7.156  18.900  0.00  0.00    +0.000 A 
ATOM      6  C   UNL     1       7.748   7.878  17.833  0.00  0.00    +0.000 A 
ATOM      7  N   UNL     1       6.889   7.309  16.921  0.00  0.00    +0.000 N 
ATOM      8  H   UNL     1       6.637   7.805  16.078  0.00  0.00    +0.000 HD
ENDROOT
BRANCH   4   9
ATOM      9  O   UNL     1       8.035   5.212  20.253  0.00  0.00    +0.000 OA
ATOM     10  H   UNL     1       7.918   5.827  20.998  0.00  0.00    +0.000 HD
ENDBRANCH   4   9
BRANCH   6  11
ATOM     11  C   UNL     1       8.245   9.219  17.592  0.00  0.00    +0.000 C 
ATOM     12  C   UNL     1       8.991   9.934  18.450  0.00  0.00    +0.000 C 
BRANCH  12  13
ATOM     13  C   UNL     1       9.439  11.246  18.130  0.00  0.00    +0.000 A 
ATOM     14  C   UNL     1      10.735  11.669  17.857  0.00  0.00    +0.000 A 
ATOM     15  C   UNL     1      10.697  13.059  17.602  0.00  0.00    +0.000 A 
ATOM     16  C   UNL     1       9.383  13.425  17.730  0.00  0.00    +0.000 A 
ATOM     17  O   UNL     1       8.620  12.351  18.045  0.00  0.00    +0.000 OA
ENDBRANCH  12  13
ENDBRANCH   6  11
TORSDOF 3
ENDMDL
MODEL 8
REMARK VINA RESULT:      -6.4      2.270      7.042
REMARK  Name = 
REMARK  3 active torsions:
REMARK  status: ('A' for Active; 'I' for Inactive)
REMARK    1  A    between atoms: C_4  and  O_5
REMARK    2  A    between atoms: C_7  and  C_8
REMARK    3  A    between atoms: C_9  and  C_10
REMARK                            x       y       z     vdW  Elec       q    Type
REMARK                         _______ _______ _______ _____ _____    ______ ____
ROOT
ATOM      1  O   UNL     1       9.949  12.507  21.780  0.00  0.00    +0.000 OA
ATOM      2  C   UNL     1       9.756  12.140  20.627  0.00  0.00    +0.000 A 
ATOM      3  C   UNL     1       9.948  13.071  19.489  0.00  0.00    +0.000 A 
ATOM      4  C   UNL     1       9.752  12.613  18.247  0.00  0.00    +0.000 A 
ATOM      5  C   UNL     1       9.357  11.248  18.001  0.00  0.00    +0.000 A 
ATOM      6  C   UNL     1       9.143  10.410  19.031  0.00  0.00    +0.000 A 
ATOM      7  N   UNL     1       9.355  10.867  20.312  0.00  0.00    +0.000 N 
ATOM      8  H   UNL     1       9.264  10.241  21.099  0.00  0.00    +0.000 HD
ENDROOT
BRANCH   4   9
ATOM      9  O   UNL     1       9.896  13.379  17.117  0.00  0.00    +0.000 OA
ATOM     10  H   UNL     1       9.167  13.171  16.506  0.00  0.00    +0.000 HD
ENDBRANCH   4   9
BRANCH   6  11
ATOM     11  C   UNL     1       8.738   9.033  18.832  0.00  0.00    +0.000 C 
ATOM     12  C   UNL     1       8.013   8.581  17.796  0.00  0.00    +0.000 C 
BRANCH  12  13
ATOM     13  C   UNL     1       7.660   7.207  17.678  0.00  0.00    +0.000 A 
ATOM     14  C   UNL     1       7.786   6.202  18.630  0.00  0.00    +0.000 A 
ATOM     15  C   UNL     1       7.312   4.998  18.060  0.00  0.00    +0.000 A 
ATOM     16  C   UNL     1       6.917   5.318  16.788  0.00  0.00    +0.000 A 
ATOM     17  O   UNL     1       7.120   6.635  16.546  0.00  0.00    +0.000 OA
ENDBRANCH  12  13
ENDBRANCH   6  11
TORSDOF 3
ENDMDL
MODEL 9
REMARK VINA RESULT:      -6.2      1.651      2.601
REMARK  Name = 
REMARK  3 active torsions:
REMARK  status: ('A' for Active; 'I' for Inactive)
REMARK    1  A    between atoms: C_4  and  O_5
REMARK    2  A    between atoms: C_7  and  C_8
REMARK    3  A    between atoms: C_9  and  C_10
REMARK                            x       y       z     vdW  Elec       q    Type
REMARK                         _______ _______ _______ _____ _____    ______ ____
ROOT
ATOM      1  O   UNL     1       8.125   5.173  20.366  0.00  0.00    +0.000 OA
ATOM      2  C   UNL     1       7.707   5.779  19.386  0.00  0.00    +0.000 A 
ATOM      3  C   UNL     1       6.642   5.201  18.531  0.00  0.00    +0.000 A 
ATOM      4  C   UNL     1       6.199   5.915  17.489  0.00  0.00    +0.000 A 
ATOM      5  C   UNL     1       6.737   7.218  17.187  0.00  0.00    +0.000 A 
ATOM      6  C   UNL     1       7.729   7.730  17.935  0.00  0.00    +0.000 A 
ATOM      7  N   UNL     1       8.183   7.010  19.017  0.00  0.00    +0.000 N 
ATOM      8  H   UNL     1       8.882   7.400  19.633  0.00  0.00    +0.000 HD
ENDROOT
BRANCH   4   9
ATOM      9  O   UNL     1       5.222   5.485  16.626  0.00  0.00    +0.000 OA
ATOM     10  H   UNL     1       5.622   5.338  15.752  0.00  0.00    +0.000 HD
ENDBRANCH   4   9
BRANCH   6  11
ATOM     11  C   UNL     1       8.305   9.033  17.663  0.00  0.00    +0.000 C 
ATOM     12  C   UNL     1       8.912   9.815  18.571  0.00  0.00    +0.000 C 
BRANCH  12  13
ATOM     13  C   UNL     1       9.454  11.082  18.217  0.00  0.00    +0.000 A 
ATOM     14  C   UNL     1       8.774  12.221  17.797  0.00  0.00    +0.000 A 
ATOM     15  C   UNL     1       9.730  13.234  17.552  0.00  0.00    +0.000 A 
ATOM     16  C   UNL     1      10.948  12.674  17.833  0.00  0.00    +0.000 A 
ATOM     17  O   UNL     1      10.798  11.388  18.231  0.00  0.00    +0.000 OA
ENDBRANCH  12  13
ENDBRANCH   6  11
TORSDOF 3
ENDMDL
