MODEL 1
REMARK VINA RESULT:      -6.1      0.000      0.000
REMARK  Name = 
REMARK  3 active torsions:
REMARK  status: ('A' for Active; 'I' for Inactive)
REMARK    1  A    between atoms: C_1  and  C_2
REMARK    2  A    between atoms: C_10  and  C_11
REMARK    3  A    between atoms: C_11  and  O_13
REMARK                            x       y       z     vdW  Elec       q    Type
REMARK                         _______ _______ _______ _____ _____    ______ ____
ROOT
ATOM      1  C   UNL     1       1.159   3.313  20.826  0.00  0.00    +0.000 C 
ATOM      2  C   UNL     1       1.898   4.348  20.070  0.00  0.00    +0.000 A 
ATOM      3  C   UNL     1       1.881   5.728  20.209  0.00  0.00    +0.000 A 
ATOM      4  S   UNL     1       2.913   6.579  19.100  0.00  0.00    +0.000 S 
ATOM      5  C   UNL     1       3.363   5.086  18.455  0.00  0.00    +0.000 A 
ATOM      6  C   UNL     1       2.787   3.983  19.021  0.00  0.00    +0.000 A 
ATOM      7  S   UNL     1       3.430   2.629  18.167  0.00  0.00    +0.000 S 
ATOM      8  C   UNL     1       4.433   3.529  17.095  0.00  0.00    +0.000 A 
ATOM      9  C   UNL     1       5.354   3.398  16.026  0.00  0.00    +0.000 A 
ATOM     10  C   UNL     1       5.804   4.650  15.617  0.00  0.00    +0.000 A 
ATOM     11  S   UNL     1       5.113   5.967  16.524  0.00  0.00    +0.000 S 
ATOM     12  C   UNL     1       4.243   4.844  17.425  0.00  0.00    +0.000 A 
ENDROOT
BRANCH  10  13
ATOM     13  C   UNL     1       6.759   4.896  14.542  0.00  0.00    +0.000 C 
ATOM     14  O   UNL     1       6.666   4.452  13.407  0.00  0.00    +0.000 OA
BRANCH  13  15
ATOM     15  O   UNL     1       7.797   5.686  14.916  0.00  0.00    +0.000 OA
ATOM     16  H   UNL     1       8.637   5.398  14.507  0.00  0.00    +0.000 HD
ENDBRANCH  13  15
ENDBRANCH  10  13
TORSDOF 2
ENDMDL
MODEL 2
REMARK VINA RESULT:      -6.1      1.221      2.375
REMARK  Name = 
REMARK  3 active torsions:
REMARK  status: ('A' for Active; 'I' for Inactive)
REMARK    1  A    between atoms: C_1  and  C_2
REMARK    2  A    between atoms: C_10  and  C_11
REMARK    3  A    between atoms: C_11  and  O_13
REMARK                            x       y       z     vdW  Elec       q    Type
REMARK                         _______ _______ _______ _____ _____    ______ ____
ROOT
ATOM      1  C   UNL     1       1.220   6.951  20.868  0.00  0.00    +0.000 C 
ATOM      2  C   UNL     1       2.030   5.864  20.275  0.00  0.00    +0.000 A 
ATOM      3  C   UNL     1       2.169   4.543  20.675  0.00  0.00    +0.000 A 
ATOM      4  S   UNL     1       3.237   3.596  19.682  0.00  0.00    +0.000 S 
ATOM      5  C   UNL     1       3.493   4.972  18.739  0.00  0.00    +0.000 A 
ATOM      6  C   UNL     1       2.826   6.102  19.120  0.00  0.00    +0.000 A 
ATOM      7  S   UNL     1       3.279   7.319  17.985  0.00  0.00    +0.000 S 
ATOM      8  C   UNL     1       4.326   6.330  17.041  0.00  0.00    +0.000 A 
ATOM      9  C   UNL     1       5.181   6.339  15.911  0.00  0.00    +0.000 A 
ATOM     10  C   UNL     1       5.746   5.081  15.719  0.00  0.00    +0.000 A 
ATOM     11  S   UNL     1       5.242   3.906  16.901  0.00  0.00    +0.000 S 
ATOM     12  C   UNL     1       4.295   5.093  17.627  0.00  0.00    +0.000 A 
ENDROOT
BRANCH  10  13
ATOM     13  C   UNL     1       6.676   4.726  14.653  0.00  0.00    +0.000 C 
ATOM     14  O   UNL     1       7.630   5.404  14.299  0.00  0.00    +0.000 OA
BRANCH  13  15
ATOM     15  O   UNL     1       6.386   3.538  14.063  0.00  0.00    +0.000 OA
ATOM     16  H   UNL     1       5.826   3.655  13.271  0.00  0.00    +0.000 HD
ENDBRANCH  13  15
ENDBRANCH  10  13
TORSDOF 2
ENDMDL
MODEL 3
REMARK VINA RESULT:      -6.1      0.997      1.381
REMARK  Name = 
REMARK  3 active torsions:
REMARK  status: ('A' for Active; 'I' for Inactive)
REMARK    1  A    between atoms: C_1  and  C_2
REMARK    2  A    between atoms: C_10  and  C_11
REMARK    3  A    between atoms: C_11  and  O_13
REMARK                            x       y       z     vdW  Elec       q    Type
REMARK                         _______ _______ _______ _____ _____    ______ ____
ROOT
ATOM      1  C   UNL     1       1.668   5.078  20.858  0.00  0.00    +0.000 C 
ATOM      2  C   UNL     1       2.311   5.823  19.754  0.00  0.00    +0.000 A 
ATOM      3  C   UNL     1       2.216   7.166  19.418  0.00  0.00    +0.000 A 
ATOM      4  S   UNL     1       3.148   7.630  18.026  0.00  0.00    +0.000 S 
ATOM      5  C   UNL     1       3.660   6.027  17.901  0.00  0.00    +0.000 A 
ATOM      6  C   UNL     1       3.175   5.160  18.840  0.00  0.00    +0.000 A 
ATOM      7  S   UNL     1       3.863   3.624  18.458  0.00  0.00    +0.000 S 
ATOM      8  C   UNL     1       4.764   4.146  17.086  0.00  0.00    +0.000 A 
ATOM      9  C   UNL     1       5.646   3.697  16.072  0.00  0.00    +0.000 A 
ATOM     10  C   UNL     1       6.003   4.753  15.237  0.00  0.00    +0.000 A 
ATOM     11  S   UNL     1       5.272   6.269  15.684  0.00  0.00    +0.000 S 
ATOM     12  C   UNL     1       4.509   5.485  16.963  0.00  0.00    +0.000 A 
ENDROOT
BRANCH  10  13
ATOM     13  C   UNL     1       6.895   4.656  14.087  0.00  0.00    +0.000 C 
ATOM     14  O   UNL     1       7.814   5.425  13.846  0.00  0.00    +0.000 OA
BRANCH  13  15
ATOM     15  O   UNL     1       6.611   3.606  13.275  0.00  0.00    +0.000 OA
ATOM     16  H   UNL     1       6.460   3.892  12.353  0.00  0.00    +0.000 HD
ENDBRANCH  13  15
ENDBRANCH  10  13
TORSDOF 2
ENDMDL
MODEL 4
REMARK VINA RESULT:      -5.9      1.526      1.817
REMARK  Name = 
REMARK  3 active torsions:
REMARK  status: ('A' for Active; 'I' for Inactive)
REMARK    1  A    between atoms: C_1  and  C_2
REMARK    2  A    between atoms: C_10  and  C_11
REMARK    3  A    between atoms: C_11  and  O_13
REMARK                            x       y       z     vdW  Elec       q    Type
REMARK                         _______ _______ _______ _____ _____    ______ ____
ROOT
ATOM      1  C   UNL     1       1.477   2.570  21.572  0.00  0.00    +0.000 C 
ATOM      2  C   UNL     1       1.890   3.797  20.856  0.00  0.00    +0.000 A 
ATOM      3  C   UNL     1       1.286   5.046  20.816  0.00  0.00    +0.000 A 
ATOM      4  S   UNL     1       2.115   6.218  19.837  0.00  0.00    +0.000 S 
ATOM      5  C   UNL     1       3.265   5.034  19.486  0.00  0.00    +0.000 A 
ATOM      6  C   UNL     1       3.068   3.809  20.058  0.00  0.00    +0.000 A 
ATOM      7  S   UNL     1       4.381   2.826  19.525  0.00  0.00    +0.000 S 
ATOM      8  C   UNL     1       5.156   4.031  18.570  0.00  0.00    +0.000 A 
ATOM      9  C   UNL     1       6.273   4.268  17.731  0.00  0.00    +0.000 A 
ATOM     10  C   UNL     1       6.262   5.581  17.268  0.00  0.00    +0.000 A 
ATOM     11  S   UNL     1       4.909   6.511  17.847  0.00  0.00    +0.000 S 
ATOM     12  C   UNL     1       4.381   5.153  18.690  0.00  0.00    +0.000 A 
ENDROOT
BRANCH  10  13
ATOM     13  C   UNL     1       7.259   6.173  16.381  0.00  0.00    +0.000 C 
ATOM     14  O   UNL     1       7.853   7.219  16.594  0.00  0.00    +0.000 OA
BRANCH  13  15
ATOM     15  O   UNL     1       7.480   5.441  15.260  0.00  0.00    +0.000 OA
ATOM     16  H   UNL     1       6.647   5.101  14.879  0.00  0.00    +0.000 HD
ENDBRANCH  13  15
ENDBRANCH  10  13
TORSDOF 2
ENDMDL
MODEL 5
REMARK VINA RESULT:      -5.6      0.814      1.027
REMARK  Name = 
REMARK  3 active torsions:
REMARK  status: ('A' for Active; 'I' for Inactive)
REMARK    1  A    between atoms: C_1  and  C_2
REMARK    2  A    between atoms: C_10  and  C_11
REMARK    3  A    between atoms: C_11  and  O_13
REMARK                            x       y       z     vdW  Elec       q    Type
REMARK                         _______ _______ _______ _____ _____    ______ ____
ROOT
ATOM      1  C   UNL     1       1.333   2.863  21.492  0.00  0.00    +0.000 C 
ATOM      2  C   UNL     1       1.867   3.999  20.709  0.00  0.00    +0.000 A 
ATOM      3  C   UNL     1       1.596   5.356  20.819  0.00  0.00    +0.000 A 
ATOM      4  S   UNL     1       2.451   6.357  19.684  0.00  0.00    +0.000 S 
ATOM      5  C   UNL     1       3.165   4.958  19.069  0.00  0.00    +0.000 A 
ATOM      6  C   UNL     1       2.804   3.781  19.661  0.00  0.00    +0.000 A 
ATOM      7  S   UNL     1       3.682   2.549  18.832  0.00  0.00    +0.000 S 
ATOM      8  C   UNL     1       4.499   3.594  17.733  0.00  0.00    +0.000 A 
ATOM      9  C   UNL     1       5.425   3.611  16.661  0.00  0.00    +0.000 A 
ATOM     10  C   UNL     1       5.637   4.916  16.223  0.00  0.00    +0.000 A 
ATOM     11  S   UNL     1       4.718   6.103  17.107  0.00  0.00    +0.000 S 
ATOM     12  C   UNL     1       4.072   4.859  18.037  0.00  0.00    +0.000 A 
ENDROOT
BRANCH  10  13
ATOM     13  C   UNL     1       6.526   5.309  15.135  0.00  0.00    +0.000 C 
ATOM     14  O   UNL     1       7.742   5.189  15.146  0.00  0.00    +0.000 OA
BRANCH  13  15
ATOM     15  O   UNL     1       5.870   5.838  14.071  0.00  0.00    +0.000 OA
ATOM     16  H   UNL     1       6.114   6.772  13.924  0.00  0.00    +0.000 HD
ENDBRANCH  13  15
ENDBRANCH  10  13
TORSDOF 2
ENDMDL
MODEL 6
REMARK VINA RESULT:      -5.6      2.493      3.128
REMARK  Name = 
REMARK  3 active torsions:
REMARK  status: ('A' for Active; 'I' for Inactive)
REMARK    1  A    between atoms: C_1  and  C_2
REMARK    2  A    between atoms: C_10  and  C_11
REMARK    3  A    between atoms: C_11  and  O_13
REMARK                            x       y       z     vdW  Elec       q    Type
REMARK                         _______ _______ _______ _____ _____    ______ ____
ROOT
ATOM      1  C   UNL     1       0.420   2.635  19.097  0.00  0.00    +0.000 C 
ATOM      2  C   UNL     1       1.879   2.714  19.329  0.00  0.00    +0.000 A 
ATOM      3  C   UNL     1       2.711   1.854  20.032  0.00  0.00    +0.000 A 
ATOM      4  S   UNL     1       4.383   2.330  20.058  0.00  0.00    +0.000 S 
ATOM      5  C   UNL     1       3.960   3.674  19.131  0.00  0.00    +0.000 A 
ATOM      6  C   UNL     1       2.639   3.792  18.799  0.00  0.00    +0.000 A 
ATOM      7  S   UNL     1       2.517   5.237  17.866  0.00  0.00    +0.000 S 
ATOM      8  C   UNL     1       4.187   5.655  17.929  0.00  0.00    +0.000 A 
ATOM      9  C   UNL     1       5.130   6.624  17.504  0.00  0.00    +0.000 A 
ATOM     10  C   UNL     1       6.403   6.295  17.960  0.00  0.00    +0.000 A 
ATOM     11  S   UNL     1       6.448   4.824  18.892  0.00  0.00    +0.000 S 
ATOM     12  C   UNL     1       4.788   4.671  18.665  0.00  0.00    +0.000 A 
ENDROOT
BRANCH  10  13
ATOM     13  C   UNL     1       7.616   7.067  17.713  0.00  0.00    +0.000 C 
ATOM     14  O   UNL     1       7.949   7.521  16.628  0.00  0.00    +0.000 OA
BRANCH  13  15
ATOM     15  O   UNL     1       8.373   7.248  18.825  0.00  0.00    +0.000 OA
ATOM     16  H   UNL     1       9.219   7.691  18.619  0.00  0.00    +0.000 HD
ENDBRANCH  13  15
ENDBRANCH  10  13
TORSDOF 2
ENDMDL
MODEL 7
REMARK VINA RESULT:      -5.6      1.180      2.182
REMARK  Name = 
REMARK  3 active torsions:
REMARK  status: ('A' for Active; 'I' for Inactive)
REMARK    1  A    between atoms: C_1  and  C_2
REMARK    2  A    between atoms: C_10  and  C_11
REMARK    3  A    between atoms: C_11  and  O_13
REMARK                            x       y       z     vdW  Elec       q    Type
REMARK                         _______ _______ _______ _____ _____    ______ ____
ROOT
ATOM      1  C   UNL     1       1.869   4.392  21.052  0.00  0.00    +0.000 C 
ATOM      2  C   UNL     1       2.465   3.662  19.911  0.00  0.00    +0.000 A 
ATOM      3  C   UNL     1       2.317   2.335  19.534  0.00  0.00    +0.000 A 
ATOM      4  S   UNL     1       3.209   1.885  18.111  0.00  0.00    +0.000 S 
ATOM      5  C   UNL     1       3.775   3.472  18.029  0.00  0.00    +0.000 A 
ATOM      6  C   UNL     1       3.337   4.325  19.004  0.00  0.00    +0.000 A 
ATOM      7  S   UNL     1       4.073   5.847  18.660  0.00  0.00    +0.000 S 
ATOM      8  C   UNL     1       4.933   5.339  17.258  0.00  0.00    +0.000 A 
ATOM      9  C   UNL     1       5.816   5.789  16.244  0.00  0.00    +0.000 A 
ATOM     10  C   UNL     1       6.121   4.750  15.370  0.00  0.00    +0.000 A 
ATOM     11  S   UNL     1       5.342   3.247  15.779  0.00  0.00    +0.000 S 
ATOM     12  C   UNL     1       4.629   4.015  17.095  0.00  0.00    +0.000 A 
ENDROOT
BRANCH  10  13
ATOM     13  C   UNL     1       7.000   4.852  14.210  0.00  0.00    +0.000 C 
ATOM     14  O   UNL     1       6.796   4.325  13.127  0.00  0.00    +0.000 OA
BRANCH  13  15
ATOM     15  O   UNL     1       8.105   5.607  14.440  0.00  0.00    +0.000 OA
ATOM     16  H   UNL     1       8.705   5.615  13.669  0.00  0.00    +0.000 HD
ENDBRANCH  13  15
ENDBRANCH  10  13
TORSDOF 2
ENDMDL
MODEL 8
REMARK VINA RESULT:      -5.6      1.475      2.535
REMARK  Name = 
REMARK  3 active torsions:
REMARK  status: ('A' for Active; 'I' for Inactive)
REMARK    1  A    between atoms: C_1  and  C_2
REMARK    2  A    between atoms: C_10  and  C_11
REMARK    3  A    between atoms: C_11  and  O_13
REMARK                            x       y       z     vdW  Elec       q    Type
REMARK                         _______ _______ _______ _____ _____    ______ ____
ROOT
ATOM      1  C   UNL     1       0.773   3.292  20.837  0.00  0.00    +0.000 C 
ATOM      2  C   UNL     1       1.785   2.957  19.811  0.00  0.00    +0.000 A 
ATOM      3  C   UNL     1       2.029   1.751  19.169  0.00  0.00    +0.000 A 
ATOM      4  S   UNL     1       3.332   1.797  18.018  0.00  0.00    +0.000 S 
ATOM      5  C   UNL     1       3.543   3.426  18.403  0.00  0.00    +0.000 A 
ATOM      6  C   UNL     1       2.696   3.943  19.342  0.00  0.00    +0.000 A 
ATOM      7  S   UNL     1       3.147   5.599  19.520  0.00  0.00    +0.000 S 
ATOM      8  C   UNL     1       4.427   5.580  18.368  0.00  0.00    +0.000 A 
ATOM      9  C   UNL     1       5.421   6.390  17.765  0.00  0.00    +0.000 A 
ATOM     10  C   UNL     1       6.158   5.649  16.845  0.00  0.00    +0.000 A 
ATOM     11  S   UNL     1       5.646   3.989  16.719  0.00  0.00    +0.000 S 
ATOM     12  C   UNL     1       4.469   4.301  17.882  0.00  0.00    +0.000 A 
ENDROOT
BRANCH  10  13
ATOM     13  C   UNL     1       7.262   6.160  16.039  0.00  0.00    +0.000 C 
ATOM     14  O   UNL     1       7.624   5.693  14.969  0.00  0.00    +0.000 OA
BRANCH  13  15
ATOM     15  O   UNL     1       7.879   7.234  16.594  0.00  0.00    +0.000 OA
ATOM     16  H   UNL     1       8.736   6.992  16.996  0.00  0.00    +0.000 HD
ENDBRANCH  13  15
ENDBRANCH  10  13
TORSDOF 2
ENDMDL
MODEL 9
REMARK VINA RESULT:      -5.6      3.969      5.754
REMARK  Name = 
REMARK  3 active torsions:
REMARK  status: ('A' for Active; 'I' for Inactive)
REMARK    1  A    between atoms: C_1  and  C_2
REMARK    2  A    between atoms: C_10  and  C_11
REMARK    3  A    between atoms: C_11  and  O_13
REMARK                            x       y       z     vdW  Elec       q    Type
REMARK                         _______ _______ _______ _____ _____    ______ ____
ROOT
ATOM      1  C   UNL     1       7.592   8.010  17.184  0.00  0.00    +0.000 C 
ATOM      2  C   UNL     1       7.125   6.830  17.946  0.00  0.00    +0.000 A 
ATOM      3  C   UNL     1       7.835   5.976  18.778  0.00  0.00    +0.000 A 
ATOM      4  S   UNL     1       6.885   4.700  19.481  0.00  0.00    +0.000 S 
ATOM      5  C   UNL     1       5.546   5.317  18.661  0.00  0.00    +0.000 A 
ATOM      6  C   UNL     1       5.764   6.423  17.889  0.00  0.00    +0.000 A 
ATOM      7  S   UNL     1       4.236   6.813  17.188  0.00  0.00    +0.000 S 
ATOM      8  C   UNL     1       3.351   5.528  17.915  0.00  0.00    +0.000 A 
ATOM      9  C   UNL     1       2.061   4.948  18.004  0.00  0.00    +0.000 A 
ATOM     10  C   UNL     1       2.084   3.838  18.844  0.00  0.00    +0.000 A 
ATOM     11  S   UNL     1       3.657   3.507  19.514  0.00  0.00    +0.000 S 
ATOM     12  C   UNL     1       4.256   4.837  18.675  0.00  0.00    +0.000 A 
ENDROOT
BRANCH  10  13
ATOM     13  C   UNL     1       0.936   2.997  19.165  0.00  0.00    +0.000 C 
ATOM     14  O   UNL     1       0.418   2.195  18.402  0.00  0.00    +0.000 OA
BRANCH  13  15
ATOM     15  O   UNL     1       0.471   3.184  20.427  0.00  0.00    +0.000 OA
ATOM     16  H   UNL     1       0.383   2.339  20.909  0.00  0.00    +0.000 HD
ENDBRANCH  13  15
ENDBRANCH  10  13
TORSDOF 2
ENDMDL
