MODEL 1
REMARK VINA RESULT:      -7.9      0.000      0.000
REMARK  Name = 
REMARK  4 active torsions:
REMARK  status: ('A' for Active; 'I' for Inactive)
REMARK    1  A    between atoms: C_1  and  C_2
REMARK    2  A    between atoms: C_2  and  N_3
REMARK    3  A    between atoms: C_2  and  C_19
REMARK    4  A    between atoms: N_10  and  C_11
REMARK                            x       y       z     vdW  Elec       q    Type
REMARK                         _______ _______ _______ _____ _____    ______ ____
ROOT
ATOM      1  N   UNL     1       2.364   8.835  17.559  0.00  0.00    +0.000 N 
ATOM      2  C   UNL     1       3.165   7.747  17.749  0.00  0.00    +0.000 A 
ATOM      3  N   UNL     1       2.845   6.765  18.540  0.00  0.00    +0.000 NA
ATOM      4  C   UNL     1       3.749   5.761  18.585  0.00  0.00    +0.000 A 
ATOM      5  C   UNL     1       4.928   5.677  17.891  0.00  0.00    +0.000 A 
ATOM      6  C   UNL     1       5.510   4.471  18.277  0.00  0.00    +0.000 A 
ATOM      7  N   UNL     1       4.755   3.811  19.162  0.00  0.00    +0.000 NA
ATOM      8  N   UNL     1       3.673   4.620  19.339  0.00  0.00    +0.000 N 
ATOM      9  C   UNL     1       5.276   6.744  17.006  0.00  0.00    +0.000 A 
ATOM     10  O   UNL     1       6.277   6.768  16.303  0.00  0.00    +0.000 OA
ATOM     11  N   UNL     1       4.339   7.763  17.010  0.00  0.00    +0.000 N 
ATOM     12  H   UNL     1       2.838   9.684  17.274  0.00  0.00    +0.000 HD
ATOM     13  H   UNL     1       4.524   8.512  16.368  0.00  0.00    +0.000 HD
ENDROOT
BRANCH   8  14
ATOM     14  C   UNL     1       2.621   4.246  20.262  0.00  0.00    +0.000 C 
ATOM     15  C   UNL     1       1.351   3.743  19.575  0.00  0.00    +0.000 C 
ATOM     16  C   UNL     1       0.615   2.982  20.669  0.00  0.00    +0.000 C 
ATOM     17  C   UNL     1       1.690   2.447  21.611  0.00  0.00    +0.000 C 
ATOM     18  C   UNL     1       3.008   3.090  21.187  0.00  0.00    +0.000 C 
ENDBRANCH   8  14
BRANCH   1  20
ATOM     19  C   UNL     1      -0.012   9.319  17.344  0.00  0.00    +0.000 C 
ATOM     20  C   UNL     1       1.139   9.101  18.327  0.00  0.00    +0.000 C 
BRANCH  20  21
ATOM     21  C   UNL     1       1.212  10.251  19.370  0.00  0.00    +0.000 C 
ATOM     22  O   UNL     1       1.485  11.401  19.006  0.00  0.00    +0.000 OA
ATOM     23  N   UNL     1       0.800  10.001  20.680  0.00  0.00    +0.000 N 
ATOM     24  C   UNL     1       0.695  11.132  21.601  0.00  0.00    +0.000 C 
ATOM     25  C   UNL     1      -0.597  11.035  22.402  0.00  0.00    +0.000 C 
ATOM     26  C   UNL     1      -0.692   9.692  23.111  0.00  0.00    +0.000 C 
ATOM     27  F   UNL     1       0.272   9.640  24.072  0.00  0.00    +0.000 F 
ATOM     28  C   UNL     1      -0.490   8.521  22.160  0.00  0.00    +0.000 C 
ATOM     29  C   UNL     1       0.778   8.693  21.332  0.00  0.00    +0.000 C 
ENDBRANCH  20  21
ENDBRANCH   1  20
TORSDOF 3
ENDMDL
MODEL 2
REMARK VINA RESULT:      -7.3      3.093      7.659
REMARK  Name = 
REMARK  4 active torsions:
REMARK  status: ('A' for Active; 'I' for Inactive)
REMARK    1  A    between atoms: C_1  and  C_2
REMARK    2  A    between atoms: C_2  and  N_3
REMARK    3  A    between atoms: C_2  and  C_19
REMARK    4  A    between atoms: N_10  and  C_11
REMARK                            x       y       z     vdW  Elec       q    Type
REMARK                         _______ _______ _______ _____ _____    ______ ____
ROOT
ATOM      1  N   UNL     1       2.353   6.880  20.052  0.00  0.00    +0.000 N 
ATOM      2  C   UNL     1       1.638   7.969  20.458  0.00  0.00    +0.000 A 
ATOM      3  N   UNL     1       0.844   8.628  19.665  0.00  0.00    +0.000 NA
ATOM      4  C   UNL     1       0.200   9.664  20.248  0.00  0.00    +0.000 A 
ATOM      5  C   UNL     1       0.292  10.067  21.555  0.00  0.00    +0.000 A 
ATOM      6  C   UNL     1      -0.545  11.175  21.670  0.00  0.00    +0.000 A 
ATOM      7  N   UNL     1      -1.146  11.471  20.512  0.00  0.00    +0.000 NA
ATOM      8  N   UNL     1      -0.676  10.528  19.647  0.00  0.00    +0.000 N 
ATOM      9  C   UNL     1       1.147   9.334  22.435  0.00  0.00    +0.000 A 
ATOM     10  O   UNL     1       1.284   9.568  23.629  0.00  0.00    +0.000 OA
ATOM     11  N   UNL     1       1.808   8.300  21.795  0.00  0.00    +0.000 N 
ATOM     12  H   UNL     1       3.199   6.691  20.575  0.00  0.00    +0.000 HD
ATOM     13  H   UNL     1       2.386   7.733  22.389  0.00  0.00    +0.000 HD
ENDROOT
BRANCH   8  14
ATOM     14  C   UNL     1      -1.093  10.534  18.260  0.00  0.00    +0.000 C 
ATOM     15  C   UNL     1      -2.227   9.555  17.955  0.00  0.00    +0.000 C 
ATOM     16  C   UNL     1      -2.806  10.057  16.640  0.00  0.00    +0.000 C 
ATOM     17  C   UNL     1      -2.562  11.564  16.616  0.00  0.00    +0.000 C 
ATOM     18  C   UNL     1      -1.650  11.882  17.799  0.00  0.00    +0.000 C 
ENDBRANCH   8  14
BRANCH   1  20
ATOM     19  C   UNL     1       2.436   4.891  18.651  0.00  0.00    +0.000 C 
ATOM     20  C   UNL     1       2.433   6.420  18.658  0.00  0.00    +0.000 C 
BRANCH  20  21
ATOM     21  C   UNL     1       3.605   6.987  17.810  0.00  0.00    +0.000 C 
ATOM     22  O   UNL     1       3.540   8.134  17.352  0.00  0.00    +0.000 OA
ATOM     23  N   UNL     1       4.790   6.253  17.718  0.00  0.00    +0.000 N 
ATOM     24  C   UNL     1       5.944   6.879  17.076  0.00  0.00    +0.000 C 
ATOM     25  C   UNL     1       7.202   6.618  17.896  0.00  0.00    +0.000 C 
ATOM     26  C   UNL     1       7.397   5.127  18.125  0.00  0.00    +0.000 C 
ATOM     27  F   UNL     1       7.679   4.538  16.928  0.00  0.00    +0.000 F 
ATOM     28  C   UNL     1       6.157   4.465  18.707  0.00  0.00    +0.000 C 
ATOM     29  C   UNL     1       4.912   4.808  17.895  0.00  0.00    +0.000 C 
ENDBRANCH  20  21
ENDBRANCH   1  20
TORSDOF 3
ENDMDL
MODEL 3
REMARK VINA RESULT:      -7.0      3.355      7.972
REMARK  Name = 
REMARK  4 active torsions:
REMARK  status: ('A' for Active; 'I' for Inactive)
REMARK    1  A    between atoms: C_1  and  C_2
REMARK    2  A    between atoms: C_2  and  N_3
REMARK    3  A    between atoms: C_2  and  C_19
REMARK    4  A    between atoms: N_10  and  C_11
REMARK                            x       y       z     vdW  Elec       q    Type
REMARK                         _______ _______ _______ _____ _____    ______ ____
ROOT
ATOM      1  N   UNL     1       2.467   7.423  20.142  0.00  0.00    +0.000 N 
ATOM      2  C   UNL     1       1.598   8.383  20.573  0.00  0.00    +0.000 A 
ATOM      3  N   UNL     1       0.837   9.060  19.763  0.00  0.00    +0.000 NA
ATOM      4  C   UNL     1       0.023   9.952  20.371  0.00  0.00    +0.000 A 
ATOM      5  C   UNL     1      -0.083  10.194  21.716  0.00  0.00    +0.000 A 
ATOM      6  C   UNL     1      -1.042  11.198  21.846  0.00  0.00    +0.000 A 
ATOM      7  N   UNL     1      -1.530  11.580  20.660  0.00  0.00    +0.000 NA
ATOM      8  N   UNL     1      -0.864  10.801  19.763  0.00  0.00    +0.000 N 
ATOM      9  C   UNL     1       0.735   9.438  22.611  0.00  0.00    +0.000 A 
ATOM     10  O   UNL     1       0.704   9.532  23.831  0.00  0.00    +0.000 OA
ATOM     11  N   UNL     1       1.573   8.558  21.949  0.00  0.00    +0.000 N 
ATOM     12  H   UNL     1       3.261   7.249  20.746  0.00  0.00    +0.000 HD
ATOM     13  H   UNL     1       2.134   7.976  22.545  0.00  0.00    +0.000 HD
ENDROOT
BRANCH   8  14
ATOM     14  C   UNL     1      -1.113  10.942  18.343  0.00  0.00    +0.000 C 
ATOM     15  C   UNL     1      -1.574   9.651  17.668  0.00  0.00    +0.000 C 
ATOM     16  C   UNL     1      -2.218  10.120  16.371  0.00  0.00    +0.000 C 
ATOM     17  C   UNL     1      -2.761  11.519  16.648  0.00  0.00    +0.000 C 
ATOM     18  C   UNL     1      -2.231  11.935  18.018  0.00  0.00    +0.000 C 
ENDBRANCH   8  14
BRANCH   1  20
ATOM     19  C   UNL     1       1.616   7.709  17.879  0.00  0.00    +0.000 C 
ATOM     20  C   UNL     1       2.760   7.151  18.728  0.00  0.00    +0.000 C 
BRANCH  20  21
ATOM     21  C   UNL     1       3.066   5.674  18.356  0.00  0.00    +0.000 C 
ATOM     22  O   UNL     1       2.166   4.825  18.398  0.00  0.00    +0.000 OA
ATOM     23  N   UNL     1       4.313   5.357  17.815  0.00  0.00    +0.000 N 
ATOM     24  C   UNL     1       4.521   4.006  17.297  0.00  0.00    +0.000 C 
ATOM     25  C   UNL     1       5.243   4.066  15.956  0.00  0.00    +0.000 C 
ATOM     26  C   UNL     1       6.539   4.853  16.076  0.00  0.00    +0.000 C 
ATOM     27  F   UNL     1       7.402   4.149  16.861  0.00  0.00    +0.000 F 
ATOM     28  C   UNL     1       6.327   6.224  16.702  0.00  0.00    +0.000 C 
ATOM     29  C   UNL     1       5.543   6.122  18.006  0.00  0.00    +0.000 C 
ENDBRANCH  20  21
ENDBRANCH   1  20
TORSDOF 3
ENDMDL
MODEL 4
REMARK VINA RESULT:      -6.8      2.708      4.445
REMARK  Name = 
REMARK  4 active torsions:
REMARK  status: ('A' for Active; 'I' for Inactive)
REMARK    1  A    between atoms: C_1  and  C_2
REMARK    2  A    between atoms: C_2  and  N_3
REMARK    3  A    between atoms: C_2  and  C_19
REMARK    4  A    between atoms: N_10  and  C_11
REMARK                            x       y       z     vdW  Elec       q    Type
REMARK                         _______ _______ _______ _____ _____    ______ ____
ROOT
ATOM      1  N   UNL     1       1.459   6.605  21.164  0.00  0.00    +0.000 N 
ATOM      2  C   UNL     1       2.064   5.482  20.678  0.00  0.00    +0.000 A 
ATOM      3  N   UNL     1       2.633   5.438  19.509  0.00  0.00    +0.000 NA
ATOM      4  C   UNL     1       3.202   4.250  19.205  0.00  0.00    +0.000 A 
ATOM      5  C   UNL     1       3.245   3.127  19.991  0.00  0.00    +0.000 A 
ATOM      6  C   UNL     1       3.926   2.167  19.244  0.00  0.00    +0.000 A 
ATOM      7  N   UNL     1       4.304   2.638  18.050  0.00  0.00    +0.000 NA
ATOM      8  N   UNL     1       3.851   3.923  18.044  0.00  0.00    +0.000 N 
ATOM      9  C   UNL     1       2.640   3.178  21.285  0.00  0.00    +0.000 A 
ATOM     10  O   UNL     1       2.647   2.259  22.093  0.00  0.00    +0.000 OA
ATOM     11  N   UNL     1       2.045   4.400  21.546  0.00  0.00    +0.000 N 
ATOM     12  H   UNL     1       0.732   6.448  21.852  0.00  0.00    +0.000 HD
ATOM     13  H   UNL     1       1.646   4.491  22.462  0.00  0.00    +0.000 HD
ENDROOT
BRANCH   8  14
ATOM     14  C   UNL     1       4.056   4.767  16.885  0.00  0.00    +0.000 C 
ATOM     15  C   UNL     1       4.697   6.116  17.212  0.00  0.00    +0.000 C 
ATOM     16  C   UNL     1       5.245   6.599  15.877  0.00  0.00    +0.000 C 
ATOM     17  C   UNL     1       5.576   5.344  15.074  0.00  0.00    +0.000 C 
ATOM     18  C   UNL     1       5.008   4.159  15.853  0.00  0.00    +0.000 C 
ENDBRANCH   8  14
BRANCH   1  20
ATOM     19  C   UNL     1       2.378   7.964  19.366  0.00  0.00    +0.000 C 
ATOM     20  C   UNL     1       1.242   7.829  20.380  0.00  0.00    +0.000 C 
BRANCH  20  21
ATOM     21  C   UNL     1       1.052   9.143  21.188  0.00  0.00    +0.000 C 
ATOM     22  O   UNL     1       1.643   9.300  22.263  0.00  0.00    +0.000 OA
ATOM     23  N   UNL     1       0.350  10.200  20.604  0.00  0.00    +0.000 N 
ATOM     24  C   UNL     1       0.339  11.489  21.293  0.00  0.00    +0.000 C 
ATOM     25  C   UNL     1       0.576  12.616  20.295  0.00  0.00    +0.000 C 
ATOM     26  C   UNL     1      -0.433  12.551  19.159  0.00  0.00    +0.000 C 
ATOM     27  F   UNL     1      -1.668  12.836  19.659  0.00  0.00    +0.000 F 
ATOM     28  C   UNL     1      -0.481  11.177  18.507  0.00  0.00    +0.000 C 
ATOM     29  C   UNL     1      -0.652  10.076  19.547  0.00  0.00    +0.000 C 
ENDBRANCH  20  21
ENDBRANCH   1  20
TORSDOF 3
ENDMDL
MODEL 5
REMARK VINA RESULT:      -6.8      0.965      1.094
REMARK  Name = 
REMARK  4 active torsions:
REMARK  status: ('A' for Active; 'I' for Inactive)
REMARK    1  A    between atoms: C_1  and  C_2
REMARK    2  A    between atoms: C_2  and  N_3
REMARK    3  A    between atoms: C_2  and  C_19
REMARK    4  A    between atoms: N_10  and  C_11
REMARK                            x       y       z     vdW  Elec       q    Type
REMARK                         _______ _______ _______ _____ _____    ______ ____
ROOT
ATOM      1  N   UNL     1       2.899   8.823  17.549  0.00  0.00    +0.000 N 
ATOM      2  C   UNL     1       3.586   7.657  17.720  0.00  0.00    +0.000 A 
ATOM      3  N   UNL     1       3.173   6.704  18.504  0.00  0.00    +0.000 NA
ATOM      4  C   UNL     1       3.970   5.612  18.530  0.00  0.00    +0.000 A 
ATOM      5  C   UNL     1       5.129   5.415  17.823  0.00  0.00    +0.000 A 
ATOM      6  C   UNL     1       5.587   4.152  18.191  0.00  0.00    +0.000 A 
ATOM      7  N   UNL     1       4.776   3.563  19.077  0.00  0.00    +0.000 NA
ATOM      8  N   UNL     1       3.785   4.477  19.273  0.00  0.00    +0.000 N 
ATOM      9  C   UNL     1       5.575   6.451  16.945  0.00  0.00    +0.000 A 
ATOM     10  O   UNL     1       6.568   6.380  16.232  0.00  0.00    +0.000 OA
ATOM     11  N   UNL     1       4.749   7.561  16.968  0.00  0.00    +0.000 N 
ATOM     12  H   UNL     1       3.455   9.622  17.268  0.00  0.00    +0.000 HD
ATOM     13  H   UNL     1       5.004   8.294  16.332  0.00  0.00    +0.000 HD
ENDROOT
BRANCH   8  14
ATOM     14  C   UNL     1       2.708   4.202  20.202  0.00  0.00    +0.000 C 
ATOM     15  C   UNL     1       1.394   3.812  19.524  0.00  0.00    +0.000 C 
ATOM     16  C   UNL     1       0.599   3.124  20.624  0.00  0.00    +0.000 C 
ATOM     17  C   UNL     1       1.626   2.500  21.565  0.00  0.00    +0.000 C 
ATOM     18  C   UNL     1       2.995   3.021  21.132  0.00  0.00    +0.000 C 
ENDBRANCH   8  14
BRANCH   1  20
ATOM     19  C   UNL     1       0.465   8.863  17.518  0.00  0.00    +0.000 C 
ATOM     20  C   UNL     1       1.715   9.205  18.331  0.00  0.00    +0.000 C 
BRANCH  20  21
ATOM     21  C   UNL     1       1.666  10.671  18.843  0.00  0.00    +0.000 C 
ATOM     22  O   UNL     1       2.157  11.581  18.164  0.00  0.00    +0.000 OA
ATOM     23  N   UNL     1       0.918  10.964  19.985  0.00  0.00    +0.000 N 
ATOM     24  C   UNL     1       0.727  12.367  20.347  0.00  0.00    +0.000 C 
ATOM     25  C   UNL     1      -0.725  12.612  20.740  0.00  0.00    +0.000 C 
ATOM     26  C   UNL     1      -1.153  11.659  21.845  0.00  0.00    +0.000 C 
ATOM     27  F   UNL     1      -0.468  11.976  22.980  0.00  0.00    +0.000 F 
ATOM     28  C   UNL     1      -0.865  10.206  21.498  0.00  0.00    +0.000 C 
ATOM     29  C   UNL     1       0.579  10.019  21.047  0.00  0.00    +0.000 C 
ENDBRANCH  20  21
ENDBRANCH   1  20
TORSDOF 3
ENDMDL
MODEL 6
REMARK VINA RESULT:      -6.8      2.818      4.723
REMARK  Name = 
REMARK  4 active torsions:
REMARK  status: ('A' for Active; 'I' for Inactive)
REMARK    1  A    between atoms: C_1  and  C_2
REMARK    2  A    between atoms: C_2  and  N_3
REMARK    3  A    between atoms: C_2  and  C_19
REMARK    4  A    between atoms: N_10  and  C_11
REMARK                            x       y       z     vdW  Elec       q    Type
REMARK                         _______ _______ _______ _____ _____    ______ ____
ROOT
ATOM      1  N   UNL     1       0.928   6.872  21.002  0.00  0.00    +0.000 N 
ATOM      2  C   UNL     1       1.741   5.869  20.559  0.00  0.00    +0.000 A 
ATOM      3  N   UNL     1       2.942   6.083  20.106  0.00  0.00    +0.000 NA
ATOM      4  C   UNL     1       3.609   4.968  19.734  0.00  0.00    +0.000 A 
ATOM      5  C   UNL     1       3.159   3.674  19.796  0.00  0.00    +0.000 A 
ATOM      6  C   UNL     1       4.196   2.888  19.295  0.00  0.00    +0.000 A 
ATOM      7  N   UNL     1       5.253   3.624  18.934  0.00  0.00    +0.000 NA
ATOM      8  N   UNL     1       4.873   4.903  19.213  0.00  0.00    +0.000 N 
ATOM      9  C   UNL     1       1.848   3.432  20.312  0.00  0.00    +0.000 A 
ATOM     10  O   UNL     1       1.350   2.324  20.456  0.00  0.00    +0.000 OA
ATOM     11  N   UNL     1       1.189   4.600  20.655  0.00  0.00    +0.000 N 
ATOM     12  H   UNL     1      -0.066   6.685  20.951  0.00  0.00    +0.000 HD
ATOM     13  H   UNL     1       0.281   4.471  21.062  0.00  0.00    +0.000 HD
ENDROOT
BRANCH   8  14
ATOM     14  C   UNL     1       5.766   6.009  18.932  0.00  0.00    +0.000 C 
ATOM     15  C   UNL     1       7.234   5.708  19.235  0.00  0.00    +0.000 C 
ATOM     16  C   UNL     1       7.999   6.760  18.445  0.00  0.00    +0.000 C 
ATOM     17  C   UNL     1       7.130   7.099  17.236  0.00  0.00    +0.000 C 
ATOM     18  C   UNL     1       5.781   6.418  17.457  0.00  0.00    +0.000 C 
ENDBRANCH   8  14
BRANCH   1  20
ATOM     19  C   UNL     1       2.163   8.698  22.035  0.00  0.00    +0.000 C 
ATOM     20  C   UNL     1       1.242   8.303  20.880  0.00  0.00    +0.000 C 
BRANCH  20  21
ATOM     21  C   UNL     1       0.031   9.270  20.771  0.00  0.00    +0.000 C 
ATOM     22  O   UNL     1      -0.956   9.111  21.499  0.00  0.00    +0.000 OA
ATOM     23  N   UNL     1       0.146  10.409  19.971  0.00  0.00    +0.000 N 
ATOM     24  C   UNL     1      -0.924  11.404  20.025  0.00  0.00    +0.000 C 
ATOM     25  C   UNL     1      -0.331  12.806  20.097  0.00  0.00    +0.000 C 
ATOM     26  C   UNL     1       0.632  13.043  18.944  0.00  0.00    +0.000 C 
ATOM     27  F   UNL     1      -0.080  13.068  17.782  0.00  0.00    +0.000 F 
ATOM     28  C   UNL     1       1.688  11.953  18.839  0.00  0.00    +0.000 C 
ATOM     29  C   UNL     1       1.055  10.566  18.838  0.00  0.00    +0.000 C 
ENDBRANCH  20  21
ENDBRANCH   1  20
TORSDOF 3
ENDMDL
MODEL 7
REMARK VINA RESULT:      -6.8      2.624      4.473
REMARK  Name = 
REMARK  4 active torsions:
REMARK  status: ('A' for Active; 'I' for Inactive)
REMARK    1  A    between atoms: C_1  and  C_2
REMARK    2  A    between atoms: C_2  and  N_3
REMARK    3  A    between atoms: C_2  and  C_19
REMARK    4  A    between atoms: N_10  and  C_11
REMARK                            x       y       z     vdW  Elec       q    Type
REMARK                         _______ _______ _______ _____ _____    ______ ____
ROOT
ATOM      1  N   UNL     1       1.045   7.075  21.037  0.00  0.00    +0.000 N 
ATOM      2  C   UNL     1       1.786   6.038  20.549  0.00  0.00    +0.000 A 
ATOM      3  N   UNL     1       3.004   6.183  20.116  0.00  0.00    +0.000 NA
ATOM      4  C   UNL     1       3.590   5.041  19.692  0.00  0.00    +0.000 A 
ATOM      5  C   UNL     1       3.045   3.783  19.688  0.00  0.00    +0.000 A 
ATOM      6  C   UNL     1       4.025   2.947  19.154  0.00  0.00    +0.000 A 
ATOM      7  N   UNL     1       5.138   3.619  18.837  0.00  0.00    +0.000 NA
ATOM      8  N   UNL     1       4.852   4.907  19.177  0.00  0.00    +0.000 N 
ATOM      9  C   UNL     1       1.714   3.615  20.182  0.00  0.00    +0.000 A 
ATOM     10  O   UNL     1       1.134   2.541  20.267  0.00  0.00    +0.000 OA
ATOM     11  N   UNL     1       1.140   4.810  20.579  0.00  0.00    +0.000 N 
ATOM     12  H   UNL     1       0.041   6.966  20.970  0.00  0.00    +0.000 HD
ATOM     13  H   UNL     1       0.221   4.729  20.973  0.00  0.00    +0.000 HD
ENDROOT
BRANCH   8  14
ATOM     14  C   UNL     1       5.827   5.956  18.957  0.00  0.00    +0.000 C 
ATOM     15  C   UNL     1       7.249   5.568  19.360  0.00  0.00    +0.000 C 
ATOM     16  C   UNL     1       8.129   6.568  18.624  0.00  0.00    +0.000 C 
ATOM     17  C   UNL     1       7.366   6.954  17.359  0.00  0.00    +0.000 C 
ATOM     18  C   UNL     1       5.967   6.356  17.487  0.00  0.00    +0.000 C 
ENDBRANCH   8  14
BRANCH   1  20
ATOM     19  C   UNL     1       1.005   9.172  22.272  0.00  0.00    +0.000 C 
ATOM     20  C   UNL     1       1.466   8.483  20.988  0.00  0.00    +0.000 C 
BRANCH  20  21
ATOM     21  C   UNL     1       1.036   9.291  19.732  0.00  0.00    +0.000 C 
ATOM     22  O   UNL     1       1.253   8.839  18.601  0.00  0.00    +0.000 OA
ATOM     23  N   UNL     1       0.258  10.437  19.900  0.00  0.00    +0.000 N 
ATOM     24  C   UNL     1      -0.296  11.080  18.710  0.00  0.00    +0.000 C 
ATOM     25  C   UNL     1      -1.753  11.456  18.949  0.00  0.00    +0.000 C 
ATOM     26  C   UNL     1      -1.889  12.317  20.195  0.00  0.00    +0.000 C 
ATOM     27  F   UNL     1      -1.294  13.520  19.959  0.00  0.00    +0.000 F 
ATOM     28  C   UNL     1      -1.229  11.683  21.411  0.00  0.00    +0.000 C 
ATOM     29  C   UNL     1       0.204  11.261  21.106  0.00  0.00    +0.000 C 
ENDBRANCH  20  21
ENDBRANCH   1  20
TORSDOF 3
ENDMDL
MODEL 8
REMARK VINA RESULT:      -6.7      2.733      7.448
REMARK  Name = 
REMARK  4 active torsions:
REMARK  status: ('A' for Active; 'I' for Inactive)
REMARK    1  A    between atoms: C_1  and  C_2
REMARK    2  A    between atoms: C_2  and  N_3
REMARK    3  A    between atoms: C_2  and  C_19
REMARK    4  A    between atoms: N_10  and  C_11
REMARK                            x       y       z     vdW  Elec       q    Type
REMARK                         _______ _______ _______ _____ _____    ______ ____
ROOT
ATOM      1  N   UNL     1       2.437   7.507  20.200  0.00  0.00    +0.000 N 
ATOM      2  C   UNL     1       1.551   8.452  20.630  0.00  0.00    +0.000 A 
ATOM      3  N   UNL     1       0.789   9.125  19.819  0.00  0.00    +0.000 NA
ATOM      4  C   UNL     1      -0.043  10.001  20.426  0.00  0.00    +0.000 A 
ATOM      5  C   UNL     1      -0.164  10.231  21.772  0.00  0.00    +0.000 A 
ATOM      6  C   UNL     1      -1.137  11.221  21.901  0.00  0.00    +0.000 A 
ATOM      7  N   UNL     1      -1.620  11.606  20.714  0.00  0.00    +0.000 NA
ATOM      8  N   UNL     1      -0.935  10.843  19.817  0.00  0.00    +0.000 N 
ATOM      9  C   UNL     1       0.656   9.479  22.668  0.00  0.00    +0.000 A 
ATOM     10  O   UNL     1       0.613   9.563  23.889  0.00  0.00    +0.000 OA
ATOM     11  N   UNL     1       1.512   8.615  22.007  0.00  0.00    +0.000 N 
ATOM     12  H   UNL     1       3.229   7.339  20.809  0.00  0.00    +0.000 HD
ATOM     13  H   UNL     1       2.075   8.036  22.603  0.00  0.00    +0.000 HD
ENDROOT
BRANCH   8  14
ATOM     14  C   UNL     1      -1.173  10.992  18.396  0.00  0.00    +0.000 C 
ATOM     15  C   UNL     1      -1.543   9.686  17.693  0.00  0.00    +0.000 C 
ATOM     16  C   UNL     1      -2.197  10.136  16.394  0.00  0.00    +0.000 C 
ATOM     17  C   UNL     1      -2.831  11.493  16.686  0.00  0.00    +0.000 C 
ATOM     18  C   UNL     1      -2.347  11.918  18.071  0.00  0.00    +0.000 C 
ENDBRANCH   8  14
BRANCH   1  20
ATOM     19  C   UNL     1       1.474   7.462  17.964  0.00  0.00    +0.000 C 
ATOM     20  C   UNL     1       2.747   7.250  18.786  0.00  0.00    +0.000 C 
BRANCH  20  21
ATOM     21  C   UNL     1       3.404   5.881  18.459  0.00  0.00    +0.000 C 
ATOM     22  O   UNL     1       4.483   5.840  17.854  0.00  0.00    +0.000 OA
ATOM     23  N   UNL     1       2.852   4.719  19.002  0.00  0.00    +0.000 N 
ATOM     24  C   UNL     1       3.584   3.464  18.843  0.00  0.00    +0.000 C 
ATOM     25  C   UNL     1       3.591   2.693  20.158  0.00  0.00    +0.000 C 
ATOM     26  C   UNL     1       2.173   2.483  20.667  0.00  0.00    +0.000 C 
ATOM     27  F   UNL     1       1.528   1.637  19.815  0.00  0.00    +0.000 F 
ATOM     28  C   UNL     1       1.387   3.784  20.742  0.00  0.00    +0.000 C 
ATOM     29  C   UNL     1       1.464   4.554  19.428  0.00  0.00    +0.000 C 
ENDBRANCH  20  21
ENDBRANCH   1  20
TORSDOF 3
ENDMDL
MODEL 9
REMARK VINA RESULT:      -6.7      5.692     10.145
REMARK  Name = 
REMARK  4 active torsions:
REMARK  status: ('A' for Active; 'I' for Inactive)
REMARK    1  A    between atoms: C_1  and  C_2
REMARK    2  A    between atoms: C_2  and  N_3
REMARK    3  A    between atoms: C_2  and  C_19
REMARK    4  A    between atoms: N_10  and  C_11
REMARK                            x       y       z     vdW  Elec       q    Type
REMARK                         _______ _______ _______ _____ _____    ______ ____
ROOT
ATOM      1  N   UNL     1      -0.414  12.047  22.415  0.00  0.00    +0.000 N 
ATOM      2  C   UNL     1      -1.291  13.014  22.811  0.00  0.00    +0.000 A 
ATOM      3  N   UNL     1      -2.572  12.810  22.904  0.00  0.00    +0.000 NA
ATOM      4  C   UNL     1      -3.282  13.876  23.336  0.00  0.00    +0.000 A 
ATOM      5  C   UNL     1      -2.795  15.110  23.684  0.00  0.00    +0.000 A 
ATOM      6  C   UNL     1      -3.906  15.867  24.050  0.00  0.00    +0.000 A 
ATOM      7  N   UNL     1      -5.043  15.168  23.950  0.00  0.00    +0.000 NA
ATOM      8  N   UNL     1      -4.639  13.944  23.510  0.00  0.00    +0.000 N 
ATOM      9  C   UNL     1      -1.385  15.333  23.603  0.00  0.00    +0.000 A 
ATOM     10  O   UNL     1      -0.825  16.373  23.924  0.00  0.00    +0.000 OA
ATOM     11  N   UNL     1      -0.699  14.228  23.131  0.00  0.00    +0.000 N 
ATOM     12  H   UNL     1       0.447  12.380  21.999  0.00  0.00    +0.000 HD
ATOM     13  H   UNL     1       0.299  14.329  23.101  0.00  0.00    +0.000 HD
ENDROOT
BRANCH   8  14
ATOM     14  C   UNL     1      -5.610  12.899  23.257  0.00  0.00    +0.000 C 
ATOM     15  C   UNL     1      -6.934  13.098  23.995  0.00  0.00    +0.000 C 
ATOM     16  C   UNL     1      -7.916  12.214  23.240  0.00  0.00    +0.000 C 
ATOM     17  C   UNL     1      -7.411  12.151  21.801  0.00  0.00    +0.000 C 
ATOM     18  C   UNL     1      -6.030  12.803  21.789  0.00  0.00    +0.000 C 
ENDBRANCH   8  14
BRANCH   1  20
ATOM     19  C   UNL     1      -0.463   9.673  22.953  0.00  0.00    +0.000 C 
ATOM     20  C   UNL     1      -0.817  10.728  21.905  0.00  0.00    +0.000 C 
BRANCH  20  21
ATOM     21  C   UNL     1      -0.272  10.332  20.504  0.00  0.00    +0.000 C 
ATOM     22  O   UNL     1       0.687   9.557  20.409  0.00  0.00    +0.000 OA
ATOM     23  N   UNL     1      -0.983  10.724  19.367  0.00  0.00    +0.000 N 
ATOM     24  C   UNL     1      -0.566  10.189  18.072  0.00  0.00    +0.000 C 
ATOM     25  C   UNL     1      -1.787   9.752  17.271  0.00  0.00    +0.000 C 
ATOM     26  C   UNL     1      -2.783  10.894  17.140  0.00  0.00    +0.000 C 
ATOM     27  F   UNL     1      -2.230  11.864  16.358  0.00  0.00    +0.000 F 
ATOM     28  C   UNL     1      -3.140  11.506  18.486  0.00  0.00    +0.000 C 
ATOM     29  C   UNL     1      -1.890  11.866  19.281  0.00  0.00    +0.000 C 
ENDBRANCH  20  21
ENDBRANCH   1  20
TORSDOF 3
ENDMDL
