MODEL 1
REMARK VINA RESULT:      -8.0      0.000      0.000
REMARK  Name = 
REMARK  8 active torsions:
REMARK  status: ('A' for Active; 'I' for Inactive)
REMARK    1  A    between atoms: C_1  and  O_2
REMARK    2  A    between atoms: O_2  and  C_3
REMARK    3  A    between atoms: N_10  and  C_11
REMARK    4  A    between atoms: C_11  and  C_12
REMARK    5  A    between atoms: C_15  and  C_16
REMARK    6  A    between atoms: C_22  and  C_24
REMARK    7  A    between atoms: C_24  and  C_25
REMARK    8  A    between atoms: C_24  and  C_26
REMARK                            x       y       z     vdW  Elec       q    Type
REMARK                         _______ _______ _______ _____ _____    ______ ____
ROOT
ATOM      1  C   UNL     1       0.507  10.076  20.267  0.00  0.00    +0.000 C 
ATOM      2  C   UNL     1       1.443   9.641  19.130  0.00  0.00    +0.000 C 
ATOM      3  C   UNL     1       1.480   8.123  19.030  0.00  0.00    +0.000 C 
ATOM      4  C   UNL     1       1.985   7.497  20.332  0.00  0.00    +0.000 C 
ATOM      5  C   UNL     1       1.126   7.950  21.522  0.00  0.00    +0.000 C 
ATOM      6  C   UNL     1       1.022   9.485  21.594  0.00  0.00    +0.000 C 
ENDROOT
BRANCH   4   7
ATOM      7  C   UNL     1       2.015   5.979  20.175  0.00  0.00    +0.000 C 
ATOM      8  O   UNL     1       1.084   5.276  20.580  0.00  0.00    +0.000 OA
ATOM      9  N   UNL     1       3.125   5.404  19.549  0.00  0.00    +0.000 N 
ATOM     10  C   UNL     1       3.040   3.994  19.102  0.00  0.00    +0.000 C 
ATOM     11  C   UNL     1       3.030   3.903  17.563  0.00  0.00    +0.000 C 
ATOM     12  N   UNL     1       4.122   4.703  16.966  0.00  0.00    +0.000 N 
ATOM     13  C   UNL     1       5.105   4.064  16.221  0.00  0.00    +0.000 C 
ATOM     14  O   UNL     1       5.098   2.840  16.074  0.00  0.00    +0.000 OA
ATOM     15  C   UNL     1       4.142   6.099  17.420  0.00  0.00    +0.000 C 
ATOM     16  C   UNL     1       4.253   6.131  18.952  0.00  0.00    +0.000 C 
BRANCH  13  17
ATOM     17  C   UNL     1       6.212   4.919  15.596  0.00  0.00    +0.000 C 
ATOM     18  C   UNL     1       7.496   4.840  16.421  0.00  0.00    +0.000 C 
ATOM     19  C   UNL     1       6.490   4.455  14.164  0.00  0.00    +0.000 C 
ENDBRANCH  13  17
ENDBRANCH   4   7
BRANCH   1  20
ATOM     20  C   UNL     1       0.346  11.612  20.329  0.00  0.00    +0.000 C 
BRANCH  20  28
ATOM     21  C   UNL     1      -5.150  13.088  22.791  0.00  0.00    +0.000 A 
ATOM     22  C   UNL     1      -5.749  13.406  21.568  0.00  0.00    +0.000 A 
ATOM     23  C   UNL     1      -5.009  13.345  20.383  0.00  0.00    +0.000 A 
ATOM     24  C   UNL     1      -3.680  12.930  20.421  0.00  0.00    +0.000 A 
ATOM     25  N   UNL     1      -2.981  12.737  19.236  0.00  0.00    +0.000 N 
ATOM     26  C   UNL     1      -1.724  12.206  19.174  0.00  0.00    +0.000 A 
ATOM     27  O   UNL     1      -1.247  11.932  18.073  0.00  0.00    +0.000 OA
ATOM     28  N   UNL     1      -1.065  12.014  20.379  0.00  0.00    +0.000 N 
ATOM     29  C   UNL     1      -1.653  12.224  21.628  0.00  0.00    +0.000 A 
ATOM     30  O   UNL     1      -1.064  12.089  22.698  0.00  0.00    +0.000 OA
ATOM     31  C   UNL     1      -3.068  12.645  21.635  0.00  0.00    +0.000 A 
ATOM     32  C   UNL     1      -3.799  12.733  22.825  0.00  0.00    +0.000 A 
ATOM     33  H   UNL     1      -3.431  12.889  18.342  0.00  0.00    +0.000 HD
BRANCH  21  35
ATOM     34  C   UNL     1      -7.108  12.574  24.039  0.00  0.00    +0.000 C 
ATOM     35  O   UNL     1      -5.778  13.081  24.006  0.00  0.00    +0.000 OA
ENDBRANCH  21  35
ENDBRANCH  20  28
ENDBRANCH   1  20
TORSDOF 5
ENDMDL
MODEL 2
REMARK VINA RESULT:      -8.0      3.154     11.189
REMARK  Name = 
REMARK  8 active torsions:
REMARK  status: ('A' for Active; 'I' for Inactive)
REMARK    1  A    between atoms: C_1  and  O_2
REMARK    2  A    between atoms: O_2  and  C_3
REMARK    3  A    between atoms: N_10  and  C_11
REMARK    4  A    between atoms: C_11  and  C_12
REMARK    5  A    between atoms: C_15  and  C_16
REMARK    6  A    between atoms: C_22  and  C_24
REMARK    7  A    between atoms: C_24  and  C_25
REMARK    8  A    between atoms: C_24  and  C_26
REMARK                            x       y       z     vdW  Elec       q    Type
REMARK                         _______ _______ _______ _____ _____    ______ ____
ROOT
ATOM      1  C   UNL     1       2.199   6.968  19.328  0.00  0.00    +0.000 C 
ATOM      2  C   UNL     1       1.876   7.776  20.593  0.00  0.00    +0.000 C 
ATOM      3  C   UNL     1       0.747   8.758  20.318  0.00  0.00    +0.000 C 
ATOM      4  C   UNL     1       1.128   9.740  19.208  0.00  0.00    +0.000 C 
ATOM      5  C   UNL     1       1.528   8.987  17.930  0.00  0.00    +0.000 C 
ATOM      6  C   UNL     1       2.622   7.939  18.208  0.00  0.00    +0.000 C 
ENDROOT
BRANCH   4   7
ATOM      7  C   UNL     1      -0.030  10.707  18.981  0.00  0.00    +0.000 C 
ATOM      8  O   UNL     1      -1.202  10.349  19.137  0.00  0.00    +0.000 OA
ATOM      9  N   UNL     1       0.272  12.017  18.598  0.00  0.00    +0.000 N 
ATOM     10  C   UNL     1      -0.790  13.047  18.681  0.00  0.00    +0.000 C 
ATOM     11  C   UNL     1      -0.483  14.068  19.794  0.00  0.00    +0.000 C 
ATOM     12  N   UNL     1       0.902  14.578  19.695  0.00  0.00    +0.000 N 
ATOM     13  C   UNL     1       1.114  15.932  19.468  0.00  0.00    +0.000 C 
ATOM     14  O   UNL     1       0.168  16.709  19.320  0.00  0.00    +0.000 OA
ATOM     15  C   UNL     1       1.916  13.517  19.647  0.00  0.00    +0.000 C 
ATOM     16  C   UNL     1       1.619  12.588  18.460  0.00  0.00    +0.000 C 
BRANCH  13  17
ATOM     17  C   UNL     1       2.558  16.437  19.391  0.00  0.00    +0.000 C 
ATOM     18  C   UNL     1       2.956  16.739  17.947  0.00  0.00    +0.000 C 
ATOM     19  C   UNL     1       2.721  17.697  20.245  0.00  0.00    +0.000 C 
ENDBRANCH  13  17
ENDBRANCH   4   7
BRANCH   1  20
ATOM     20  C   UNL     1       3.259   5.875  19.592  0.00  0.00    +0.000 C 
BRANCH  20  28
ATOM     21  C   UNL     1       7.052   5.005  14.765  0.00  0.00    +0.000 A 
ATOM     22  C   UNL     1       6.340   3.919  14.246  0.00  0.00    +0.000 A 
ATOM     23  C   UNL     1       5.212   3.431  14.913  0.00  0.00    +0.000 A 
ATOM     24  C   UNL     1       4.777   4.056  16.080  0.00  0.00    +0.000 A 
ATOM     25  N   UNL     1       3.583   3.664  16.671  0.00  0.00    +0.000 N 
ATOM     26  C   UNL     1       3.015   4.306  17.735  0.00  0.00    +0.000 A 
ATOM     27  O   UNL     1       1.884   3.980  18.093  0.00  0.00    +0.000 OA
ATOM     28  N   UNL     1       3.772   5.295  18.346  0.00  0.00    +0.000 N 
ATOM     29  C   UNL     1       5.008   5.734  17.868  0.00  0.00    +0.000 A 
ATOM     30  O   UNL     1       5.699   6.585  18.423  0.00  0.00    +0.000 OA
ATOM     31  C   UNL     1       5.498   5.113  16.620  0.00  0.00    +0.000 A 
ATOM     32  C   UNL     1       6.643   5.584  15.969  0.00  0.00    +0.000 A 
ATOM     33  H   UNL     1       3.020   2.931  16.259  0.00  0.00    +0.000 HD
BRANCH  21  35
ATOM     34  C   UNL     1       8.194   5.596  12.765  0.00  0.00    +0.000 C 
ATOM     35  O   UNL     1       8.147   5.586  14.188  0.00  0.00    +0.000 OA
ENDBRANCH  21  35
ENDBRANCH  20  28
ENDBRANCH   1  20
TORSDOF 5
ENDMDL
MODEL 3
REMARK VINA RESULT:      -7.8      1.226      1.437
REMARK  Name = 
REMARK  8 active torsions:
REMARK  status: ('A' for Active; 'I' for Inactive)
REMARK    1  A    between atoms: C_1  and  O_2
REMARK    2  A    between atoms: O_2  and  C_3
REMARK    3  A    between atoms: N_10  and  C_11
REMARK    4  A    between atoms: C_11  and  C_12
REMARK    5  A    between atoms: C_15  and  C_16
REMARK    6  A    between atoms: C_22  and  C_24
REMARK    7  A    between atoms: C_24  and  C_25
REMARK    8  A    between atoms: C_24  and  C_26
REMARK                            x       y       z     vdW  Elec       q    Type
REMARK                         _______ _______ _______ _____ _____    ______ ____
ROOT
ATOM      1  C   UNL     1      -0.060  10.281  19.023  0.00  0.00    +0.000 C 
ATOM      2  C   UNL     1       0.902   9.700  17.978  0.00  0.00    +0.000 C 
ATOM      3  C   UNL     1       1.245   8.258  18.322  0.00  0.00    +0.000 C 
ATOM      4  C   UNL     1       1.915   8.162  19.694  0.00  0.00    +0.000 C 
ATOM      5  C   UNL     1       1.025   8.791  20.778  0.00  0.00    +0.000 C 
ATOM      6  C   UNL     1       0.612  10.228  20.409  0.00  0.00    +0.000 C 
ENDROOT
BRANCH   4   7
ATOM      7  C   UNL     1       2.248   6.702  19.984  0.00  0.00    +0.000 C 
ATOM      8  O   UNL     1       1.549   6.025  20.747  0.00  0.00    +0.000 OA
ATOM      9  N   UNL     1       3.364   6.144  19.356  0.00  0.00    +0.000 N 
ATOM     10  C   UNL     1       3.526   4.671  19.365  0.00  0.00    +0.000 C 
ATOM     11  C   UNL     1       3.338   4.087  17.949  0.00  0.00    +0.000 C 
ATOM     12  N   UNL     1       4.146   4.819  16.950  0.00  0.00    +0.000 N 
ATOM     13  C   UNL     1       5.138   4.142  16.252  0.00  0.00    +0.000 C 
ATOM     14  O   UNL     1       5.375   2.952  16.472  0.00  0.00    +0.000 OA
ATOM     15  C   UNL     1       3.926   6.270  16.964  0.00  0.00    +0.000 C 
ATOM     16  C   UNL     1       4.224   6.813  18.369  0.00  0.00    +0.000 C 
BRANCH  13  17
ATOM     17  C   UNL     1       5.946   4.918  15.206  0.00  0.00    +0.000 C 
ATOM     18  C   UNL     1       7.380   5.146  15.682  0.00  0.00    +0.000 C 
ATOM     19  C   UNL     1       5.960   4.154  13.879  0.00  0.00    +0.000 C 
ENDBRANCH  13  17
ENDBRANCH   4   7
BRANCH   1  20
ATOM     20  C   UNL     1      -0.530  11.705  18.650  0.00  0.00    +0.000 C 
BRANCH  20  28
ATOM     21  C   UNL     1      -6.044  12.896  21.225  0.00  0.00    +0.000 A 
ATOM     22  C   UNL     1      -6.772  12.699  20.048  0.00  0.00    +0.000 A 
ATOM     23  C   UNL     1      -6.113  12.396  18.852  0.00  0.00    +0.000 A 
ATOM     24  C   UNL     1      -4.726  12.256  18.846  0.00  0.00    +0.000 A 
ATOM     25  N   UNL     1      -4.080  11.822  17.695  0.00  0.00    +0.000 N 
ATOM     26  C   UNL     1      -2.747  11.529  17.638  0.00  0.00    +0.000 A 
ATOM     27  O   UNL     1      -2.295  11.008  16.618  0.00  0.00    +0.000 OA
ATOM     28  N   UNL     1      -1.987  11.848  18.753  0.00  0.00    +0.000 N 
ATOM     29  C   UNL     1      -2.525  12.337  19.945  0.00  0.00    +0.000 A 
ATOM     30  O   UNL     1      -1.853  12.654  20.925  0.00  0.00    +0.000 OA
ATOM     31  C   UNL     1      -3.993  12.482  20.003  0.00  0.00    +0.000 A 
ATOM     32  C   UNL     1      -4.649  12.813  21.194  0.00  0.00    +0.000 A 
ATOM     33  H   UNL     1      -4.607  11.601  16.860  0.00  0.00    +0.000 HD
BRANCH  21  35
ATOM     34  C   UNL     1      -5.668  13.539  23.483  0.00  0.00    +0.000 C 
ATOM     35  O   UNL     1      -6.578  13.165  22.454  0.00  0.00    +0.000 OA
ENDBRANCH  21  35
ENDBRANCH  20  28
ENDBRANCH   1  20
TORSDOF 5
ENDMDL
MODEL 4
REMARK VINA RESULT:      -7.8      2.136     11.511
REMARK  Name = 
REMARK  8 active torsions:
REMARK  status: ('A' for Active; 'I' for Inactive)
REMARK    1  A    between atoms: C_1  and  O_2
REMARK    2  A    between atoms: O_2  and  C_3
REMARK    3  A    between atoms: N_10  and  C_11
REMARK    4  A    between atoms: C_11  and  C_12
REMARK    5  A    between atoms: C_15  and  C_16
REMARK    6  A    between atoms: C_22  and  C_24
REMARK    7  A    between atoms: C_24  and  C_25
REMARK    8  A    between atoms: C_24  and  C_26
REMARK                            x       y       z     vdW  Elec       q    Type
REMARK                         _______ _______ _______ _____ _____    ______ ____
ROOT
ATOM      1  C   UNL     1       2.199   7.245  19.221  0.00  0.00    +0.000 C 
ATOM      2  C   UNL     1       1.696   7.983  20.469  0.00  0.00    +0.000 C 
ATOM      3  C   UNL     1       0.461   8.807  20.133  0.00  0.00    +0.000 C 
ATOM      4  C   UNL     1       0.769   9.847  19.055  0.00  0.00    +0.000 C 
ATOM      5  C   UNL     1       1.341   9.174  17.798  0.00  0.00    +0.000 C 
ATOM      6  C   UNL     1       2.550   8.281  18.134  0.00  0.00    +0.000 C 
ENDROOT
BRANCH   4   7
ATOM      7  C   UNL     1      -0.495  10.652  18.765  0.00  0.00    +0.000 C 
ATOM      8  O   UNL     1      -1.387  10.201  18.039  0.00  0.00    +0.000 OA
ATOM      9  N   UNL     1      -0.621  11.914  19.352  0.00  0.00    +0.000 N 
ATOM     10  C   UNL     1      -1.949  12.572  19.350  0.00  0.00    +0.000 C 
ATOM     11  C   UNL     1      -2.529  12.646  20.777  0.00  0.00    +0.000 C 
ATOM     12  N   UNL     1      -1.542  13.189  21.735  0.00  0.00    +0.000 N 
ATOM     13  C   UNL     1      -1.821  14.378  22.398  0.00  0.00    +0.000 C 
ATOM     14  O   UNL     1      -2.862  15.001  22.179  0.00  0.00    +0.000 OA
ATOM     15  C   UNL     1      -0.255  12.483  21.717  0.00  0.00    +0.000 C 
ATOM     16  C   UNL     1       0.325  12.526  20.295  0.00  0.00    +0.000 C 
BRANCH  13  17
ATOM     17  C   UNL     1      -0.791  14.907  23.402  0.00  0.00    +0.000 C 
ATOM     18  C   UNL     1      -0.262  16.275  22.973  0.00  0.00    +0.000 C 
ATOM     19  C   UNL     1      -1.419  15.011  24.794  0.00  0.00    +0.000 C 
ENDBRANCH  13  17
ENDBRANCH   4   7
BRANCH   1  20
ATOM     20  C   UNL     1       3.380   6.302  19.541  0.00  0.00    +0.000 C 
BRANCH  20  28
ATOM     21  C   UNL     1       7.043   4.997  14.711  0.00  0.00    +0.000 A 
ATOM     22  C   UNL     1       6.335   3.853  14.329  0.00  0.00    +0.000 A 
ATOM     23  C   UNL     1       5.236   3.420  15.077  0.00  0.00    +0.000 A 
ATOM     24  C   UNL     1       4.826   4.155  16.187  0.00  0.00    +0.000 A 
ATOM     25  N   UNL     1       3.656   3.808  16.853  0.00  0.00    +0.000 N 
ATOM     26  C   UNL     1       3.110   4.548  17.862  0.00  0.00    +0.000 A 
ATOM     27  O   UNL     1       1.995   4.244  18.287  0.00  0.00    +0.000 OA
ATOM     28  N   UNL     1       3.867   5.605  18.345  0.00  0.00    +0.000 N 
ATOM     29  C   UNL     1       5.080   6.010  17.786  0.00  0.00    +0.000 A 
ATOM     30  O   UNL     1       5.772   6.924  18.230  0.00  0.00    +0.000 OA
ATOM     31  C   UNL     1       5.543   5.272  16.593  0.00  0.00    +0.000 A 
ATOM     32  C   UNL     1       6.660   5.690  15.863  0.00  0.00    +0.000 A 
ATOM     33  H   UNL     1       3.095   3.029  16.535  0.00  0.00    +0.000 HD
BRANCH  21  35
ATOM     34  C   UNL     1       8.054   5.512  12.621  0.00  0.00    +0.000 C 
ATOM     35  O   UNL     1       8.110   5.531  14.044  0.00  0.00    +0.000 OA
ENDBRANCH  21  35
ENDBRANCH  20  28
ENDBRANCH   1  20
TORSDOF 5
ENDMDL
MODEL 5
REMARK VINA RESULT:      -7.7      1.576      2.497
REMARK  Name = 
REMARK  8 active torsions:
REMARK  status: ('A' for Active; 'I' for Inactive)
REMARK    1  A    between atoms: C_1  and  O_2
REMARK    2  A    between atoms: O_2  and  C_3
REMARK    3  A    between atoms: N_10  and  C_11
REMARK    4  A    between atoms: C_11  and  C_12
REMARK    5  A    between atoms: C_15  and  C_16
REMARK    6  A    between atoms: C_22  and  C_24
REMARK    7  A    between atoms: C_24  and  C_25
REMARK    8  A    between atoms: C_24  and  C_26
REMARK                            x       y       z     vdW  Elec       q    Type
REMARK                         _______ _______ _______ _____ _____    ______ ____
ROOT
ATOM      1  C   UNL     1       0.470  10.119  19.289  0.00  0.00    +0.000 C 
ATOM      2  C   UNL     1       1.510   9.606  18.283  0.00  0.00    +0.000 C 
ATOM      3  C   UNL     1       1.686   8.101  18.427  0.00  0.00    +0.000 C 
ATOM      4  C   UNL     1       2.160   7.734  19.834  0.00  0.00    +0.000 C 
ATOM      5  C   UNL     1       1.191   8.279  20.894  0.00  0.00    +0.000 C 
ATOM      6  C   UNL     1       0.949   9.790  20.717  0.00  0.00    +0.000 C 
ENDROOT
BRANCH   4   7
ATOM      7  C   UNL     1       2.333   6.220  19.921  0.00  0.00    +0.000 C 
ATOM      8  O   UNL     1       1.518   5.518  20.530  0.00  0.00    +0.000 OA
ATOM      9  N   UNL     1       3.435   5.646  19.283  0.00  0.00    +0.000 N 
ATOM     10  C   UNL     1       3.456   4.178  19.081  0.00  0.00    +0.000 C 
ATOM     11  C   UNL     1       3.319   3.826  17.585  0.00  0.00    +0.000 C 
ATOM     12  N   UNL     1       4.265   4.604  16.757  0.00  0.00    +0.000 N 
ATOM     13  C   UNL     1       5.238   3.935  16.025  0.00  0.00    +0.000 C 
ATOM     14  O   UNL     1       5.344   2.709  16.078  0.00  0.00    +0.000 OA
ATOM     15  C   UNL     1       4.181   6.054  16.975  0.00  0.00    +0.000 C 
ATOM     16  C   UNL     1       4.425   6.356  18.461  0.00  0.00    +0.000 C 
BRANCH  13  17
ATOM     17  C   UNL     1       6.190   4.765  15.157  0.00  0.00    +0.000 C 
ATOM     18  C   UNL     1       7.549   4.927  15.838  0.00  0.00    +0.000 C 
ATOM     19  C   UNL     1       6.374   4.097  13.792  0.00  0.00    +0.000 C 
ENDBRANCH  13  17
ENDBRANCH   4   7
BRANCH   1  20
ATOM     20  C   UNL     1       0.171  11.623  19.099  0.00  0.00    +0.000 C 
BRANCH  20  28
ATOM     21  C   UNL     1      -5.979  12.298  18.675  0.00  0.00    +0.000 A 
ATOM     22  C   UNL     1      -6.143  12.732  19.994  0.00  0.00    +0.000 A 
ATOM     23  C   UNL     1      -5.044  12.809  20.854  0.00  0.00    +0.000 A 
ATOM     24  C   UNL     1      -3.774  12.485  20.381  0.00  0.00    +0.000 A 
ATOM     25  N   UNL     1      -2.662  12.690  21.188  0.00  0.00    +0.000 N 
ATOM     26  C   UNL     1      -1.375  12.528  20.761  0.00  0.00    +0.000 A 
ATOM     27  O   UNL     1      -0.454  12.878  21.500  0.00  0.00    +0.000 OA
ATOM     28  N   UNL     1      -1.197  11.967  19.505  0.00  0.00    +0.000 N 
ATOM     29  C   UNL     1      -2.245  11.674  18.630  0.00  0.00    +0.000 A 
ATOM     30  O   UNL     1      -2.096  11.146  17.530  0.00  0.00    +0.000 OA
ATOM     31  C   UNL     1      -3.607  12.021  19.083  0.00  0.00    +0.000 A 
ATOM     32  C   UNL     1      -4.710  11.916  18.230  0.00  0.00    +0.000 A 
ATOM     33  H   UNL     1      -2.764  13.078  22.117  0.00  0.00    +0.000 HD
BRANCH  21  35
ATOM     34  C   UNL     1      -7.157  13.343  16.894  0.00  0.00    +0.000 C 
ATOM     35  O   UNL     1      -6.969  12.211  17.737  0.00  0.00    +0.000 OA
ENDBRANCH  21  35
ENDBRANCH  20  28
ENDBRANCH   1  20
TORSDOF 5
ENDMDL
MODEL 6
REMARK VINA RESULT:      -7.6      1.440      1.745
REMARK  Name = 
REMARK  8 active torsions:
REMARK  status: ('A' for Active; 'I' for Inactive)
REMARK    1  A    between atoms: C_1  and  O_2
REMARK    2  A    between atoms: O_2  and  C_3
REMARK    3  A    between atoms: N_10  and  C_11
REMARK    4  A    between atoms: C_11  and  C_12
REMARK    5  A    between atoms: C_15  and  C_16
REMARK    6  A    between atoms: C_22  and  C_24
REMARK    7  A    between atoms: C_24  and  C_25
REMARK    8  A    between atoms: C_24  and  C_26
REMARK                            x       y       z     vdW  Elec       q    Type
REMARK                         _______ _______ _______ _____ _____    ______ ____
ROOT
ATOM      1  C   UNL     1       0.397  10.415  19.864  0.00  0.00    +0.000 C 
ATOM      2  C   UNL     1       1.295   9.853  18.753  0.00  0.00    +0.000 C 
ATOM      3  C   UNL     1       1.370   8.336  18.852  0.00  0.00    +0.000 C 
ATOM      4  C   UNL     1       1.948   7.900  20.200  0.00  0.00    +0.000 C 
ATOM      5  C   UNL     1       1.128   8.488  21.358  0.00  0.00    +0.000 C 
ATOM      6  C   UNL     1       0.984  10.016  21.233  0.00  0.00    +0.000 C 
ENDROOT
BRANCH   4   7
ATOM      7  C   UNL     1       2.013   6.376  20.242  0.00  0.00    +0.000 C 
ATOM      8  O   UNL     1       1.127   5.713  20.792  0.00  0.00    +0.000 OA
ATOM      9  N   UNL     1       3.102   5.747  19.633  0.00  0.00    +0.000 N 
ATOM     10  C   UNL     1       3.033   4.288  19.381  0.00  0.00    +0.000 C 
ATOM     11  C   UNL     1       2.939   3.993  17.870  0.00  0.00    +0.000 C 
ATOM     12  N   UNL     1       3.971   4.730  17.109  0.00  0.00    +0.000 N 
ATOM     13  C   UNL     1       4.928   4.019  16.397  0.00  0.00    +0.000 C 
ATOM     14  O   UNL     1       4.950   2.787  16.413  0.00  0.00    +0.000 OA
ATOM     15  C   UNL     1       3.976   6.174  17.373  0.00  0.00    +0.000 C 
ATOM     16  C   UNL     1       4.173   6.413  18.878  0.00  0.00    +0.000 C 
BRANCH  13  17
ATOM     17  C   UNL     1       5.973   4.807  15.599  0.00  0.00    +0.000 C 
ATOM     18  C   UNL     1       7.326   4.796  16.309  0.00  0.00    +0.000 C 
ATOM     19  C   UNL     1       6.122   4.213  14.196  0.00  0.00    +0.000 C 
ENDBRANCH  13  17
ENDBRANCH   4   7
BRANCH   1  20
ATOM     20  C   UNL     1       0.194  11.941  19.731  0.00  0.00    +0.000 C 
BRANCH  20  28
ATOM     21  C   UNL     1      -3.049  14.461  24.376  0.00  0.00    +0.000 A 
ATOM     22  C   UNL     1      -4.283  14.366  23.726  0.00  0.00    +0.000 A 
ATOM     23  C   UNL     1      -4.360  13.860  22.425  0.00  0.00    +0.000 A 
ATOM     24  C   UNL     1      -3.202  13.416  21.790  0.00  0.00    +0.000 A 
ATOM     25  N   UNL     1      -3.289  12.788  20.553  0.00  0.00    +0.000 N 
ATOM     26  C   UNL     1      -2.227  12.204  19.923  0.00  0.00    +0.000 A 
ATOM     27  O   UNL     1      -2.430  11.542  18.905  0.00  0.00    +0.000 OA
ATOM     28  N   UNL     1      -0.975  12.408  20.483  0.00  0.00    +0.000 N 
ATOM     29  C   UNL     1      -0.766  13.068  21.696  0.00  0.00    +0.000 A 
ATOM     30  O   UNL     1       0.343  13.282  22.182  0.00  0.00    +0.000 OA
ATOM     31  C   UNL     1      -1.968  13.538  22.414  0.00  0.00    +0.000 A 
ATOM     32  C   UNL     1      -1.887  14.070  23.705  0.00  0.00    +0.000 A 
ATOM     33  H   UNL     1      -4.187  12.644  20.110  0.00  0.00    +0.000 HD
BRANCH  21  35
ATOM     34  C   UNL     1      -1.604  15.526  25.936  0.00  0.00    +0.000 C 
ATOM     35  O   UNL     1      -2.856  14.908  25.653  0.00  0.00    +0.000 OA
ENDBRANCH  21  35
ENDBRANCH  20  28
ENDBRANCH   1  20
TORSDOF 5
ENDMDL
MODEL 7
REMARK VINA RESULT:      -7.4      1.203      2.140
REMARK  Name = 
REMARK  8 active torsions:
REMARK  status: ('A' for Active; 'I' for Inactive)
REMARK    1  A    between atoms: C_1  and  O_2
REMARK    2  A    between atoms: O_2  and  C_3
REMARK    3  A    between atoms: N_10  and  C_11
REMARK    4  A    between atoms: C_11  and  C_12
REMARK    5  A    between atoms: C_15  and  C_16
REMARK    6  A    between atoms: C_22  and  C_24
REMARK    7  A    between atoms: C_24  and  C_25
REMARK    8  A    between atoms: C_24  and  C_26
REMARK                            x       y       z     vdW  Elec       q    Type
REMARK                         _______ _______ _______ _____ _____    ______ ____
ROOT
ATOM      1  C   UNL     1       0.340  10.168  20.287  0.00  0.00    +0.000 C 
ATOM      2  C   UNL     1       1.240   9.722  19.126  0.00  0.00    +0.000 C 
ATOM      3  C   UNL     1       1.303   8.202  19.062  0.00  0.00    +0.000 C 
ATOM      4  C   UNL     1       1.869   7.618  20.358  0.00  0.00    +0.000 C 
ATOM      5  C   UNL     1       1.047   8.085  21.568  0.00  0.00    +0.000 C 
ATOM      6  C   UNL     1       0.916   9.620  21.608  0.00  0.00    +0.000 C 
ENDROOT
BRANCH   4   7
ATOM      7  C   UNL     1       1.923   6.098  20.236  0.00  0.00    +0.000 C 
ATOM      8  O   UNL     1       1.000   5.391  20.654  0.00  0.00    +0.000 OA
ATOM      9  N   UNL     1       3.043   5.526  19.629  0.00  0.00    +0.000 N 
ATOM     10  C   UNL     1       2.981   4.104  19.215  0.00  0.00    +0.000 C 
ATOM     11  C   UNL     1       2.980   3.977  17.678  0.00  0.00    +0.000 C 
ATOM     12  N   UNL     1       4.063   4.780  17.067  0.00  0.00    +0.000 N 
ATOM     13  C   UNL     1       5.058   4.138  16.342  0.00  0.00    +0.000 C 
ATOM     14  O   UNL     1       5.070   2.912  16.223  0.00  0.00    +0.000 OA
ATOM     15  C   UNL     1       4.060   6.186  17.488  0.00  0.00    +0.000 C 
ATOM     16  C   UNL     1       4.163   6.256  19.020  0.00  0.00    +0.000 C 
BRANCH  13  17
ATOM     17  C   UNL     1       6.155   4.996  15.701  0.00  0.00    +0.000 C 
ATOM     18  C   UNL     1       7.464   4.881  16.482  0.00  0.00    +0.000 C 
ATOM     19  C   UNL     1       6.381   4.563  14.250  0.00  0.00    +0.000 C 
ENDBRANCH  13  17
ENDBRANCH   4   7
BRANCH   1  20
ATOM     20  C   UNL     1       0.151  11.701  20.318  0.00  0.00    +0.000 C 
BRANCH  20  28
ATOM     21  C   UNL     1      -5.884  13.085  19.980  0.00  0.00    +0.000 A 
ATOM     22  C   UNL     1      -6.055  13.216  21.362  0.00  0.00    +0.000 A 
ATOM     23  C   UNL     1      -4.987  12.977  22.231  0.00  0.00    +0.000 A 
ATOM     24  C   UNL     1      -3.738  12.643  21.712  0.00  0.00    +0.000 A 
ATOM     25  N   UNL     1      -2.642  12.539  22.560  0.00  0.00    +0.000 N 
ATOM     26  C   UNL     1      -1.361  12.349  22.125  0.00  0.00    +0.000 A 
ATOM     27  O   UNL     1      -0.439  12.421  22.938  0.00  0.00    +0.000 OA
ATOM     28  N   UNL     1      -1.191  12.080  20.775  0.00  0.00    +0.000 N 
ATOM     29  C   UNL     1      -2.229  12.108  19.841  0.00  0.00    +0.000 A 
ATOM     30  O   UNL     1      -2.092  11.838  18.650  0.00  0.00    +0.000 OA
ATOM     31  C   UNL     1      -3.567  12.479  20.344  0.00  0.00    +0.000 A 
ATOM     32  C   UNL     1      -4.643  12.689  19.475  0.00  0.00    +0.000 A 
ATOM     33  H   UNL     1      -2.740  12.709  23.553  0.00  0.00    +0.000 HD
BRANCH  21  35
ATOM     34  C   UNL     1      -6.849  14.612  18.433  0.00  0.00    +0.000 C 
ATOM     35  O   UNL     1      -6.843  13.321  19.035  0.00  0.00    +0.000 OA
ENDBRANCH  21  35
ENDBRANCH  20  28
ENDBRANCH   1  20
TORSDOF 5
ENDMDL
MODEL 8
REMARK VINA RESULT:      -7.4      1.082      1.731
REMARK  Name = 
REMARK  8 active torsions:
REMARK  status: ('A' for Active; 'I' for Inactive)
REMARK    1  A    between atoms: C_1  and  O_2
REMARK    2  A    between atoms: O_2  and  C_3
REMARK    3  A    between atoms: N_10  and  C_11
REMARK    4  A    between atoms: C_11  and  C_12
REMARK    5  A    between atoms: C_15  and  C_16
REMARK    6  A    between atoms: C_22  and  C_24
REMARK    7  A    between atoms: C_24  and  C_25
REMARK    8  A    between atoms: C_24  and  C_26
REMARK                            x       y       z     vdW  Elec       q    Type
REMARK                         _______ _______ _______ _____ _____    ______ ____
ROOT
ATOM      1  C   UNL     1       0.527  10.236  19.524  0.00  0.00    +0.000 C 
ATOM      2  C   UNL     1       1.577   9.697  18.543  0.00  0.00    +0.000 C 
ATOM      3  C   UNL     1       1.653   8.179  18.631  0.00  0.00    +0.000 C 
ATOM      4  C   UNL     1       2.041   7.728  20.041  0.00  0.00    +0.000 C 
ATOM      5  C   UNL     1       1.062   8.294  21.081  0.00  0.00    +0.000 C 
ATOM      6  C   UNL     1       0.922   9.823  20.956  0.00  0.00    +0.000 C 
ENDROOT
BRANCH   4   7
ATOM      7  C   UNL     1       2.115   6.205  20.073  0.00  0.00    +0.000 C 
ATOM      8  O   UNL     1       1.225   5.532  20.605  0.00  0.00    +0.000 OA
ATOM      9  N   UNL     1       3.216   5.587  19.474  0.00  0.00    +0.000 N 
ATOM     10  C   UNL     1       3.159   4.129  19.211  0.00  0.00    +0.000 C 
ATOM     11  C   UNL     1       3.089   3.846  17.696  0.00  0.00    +0.000 C 
ATOM     12  N   UNL     1       4.128   4.594  16.956  0.00  0.00    +0.000 N 
ATOM     13  C   UNL     1       5.099   3.894  16.253  0.00  0.00    +0.000 C 
ATOM     14  O   UNL     1       5.127   2.662  16.259  0.00  0.00    +0.000 OA
ATOM     15  C   UNL     1       4.120   6.037  17.231  0.00  0.00    +0.000 C 
ATOM     16  C   UNL     1       4.294   6.264  18.740  0.00  0.00    +0.000 C 
BRANCH  13  17
ATOM     17  C   UNL     1       6.150   4.695  15.476  0.00  0.00    +0.000 C 
ATOM     18  C   UNL     1       7.470   4.752  16.244  0.00  0.00    +0.000 C 
ATOM     19  C   UNL     1       6.381   4.064  14.101  0.00  0.00    +0.000 C 
ENDBRANCH  13  17
ENDBRANCH   4   7
BRANCH   1  20
ATOM     20  C   UNL     1       0.331  11.762  19.384  0.00  0.00    +0.000 C 
BRANCH  20  28
ATOM     21  C   UNL     1      -4.933  13.277  22.289  0.00  0.00    +0.000 A 
ATOM     22  C   UNL     1      -4.301  13.759  23.440  0.00  0.00    +0.000 A 
ATOM     23  C   UNL     1      -2.909  13.701  23.558  0.00  0.00    +0.000 A 
ATOM     24  C   UNL     1      -2.149  13.193  22.506  0.00  0.00    +0.000 A 
ATOM     25  N   UNL     1      -0.762  13.258  22.561  0.00  0.00    +0.000 N 
ATOM     26  C   UNL     1       0.055  12.909  21.524  0.00  0.00    +0.000 A 
ATOM     27  O   UNL     1       1.260  13.144  21.610  0.00  0.00    +0.000 OA
ATOM     28  N   UNL     1      -0.544  12.302  20.430  0.00  0.00    +0.000 N 
ATOM     29  C   UNL     1      -1.924  12.139  20.293  0.00  0.00    +0.000 A 
ATOM     30  O   UNL     1      -2.460  11.572  19.343  0.00  0.00    +0.000 OA
ATOM     31  C   UNL     1      -2.770  12.682  21.375  0.00  0.00    +0.000 A 
ATOM     32  C   UNL     1      -4.165  12.713  21.267  0.00  0.00    +0.000 A 
ATOM     33  H   UNL     1      -0.297  13.677  23.356  0.00  0.00    +0.000 HD
BRANCH  21  35
ATOM     34  C   UNL     1      -7.107  13.810  23.093  0.00  0.00    +0.000 C 
ATOM     35  O   UNL     1      -6.279  13.309  22.049  0.00  0.00    +0.000 OA
ENDBRANCH  21  35
ENDBRANCH  20  28
ENDBRANCH   1  20
TORSDOF 5
ENDMDL
MODEL 9
REMARK VINA RESULT:      -7.3      3.381     11.148
REMARK  Name = 
REMARK  8 active torsions:
REMARK  status: ('A' for Active; 'I' for Inactive)
REMARK    1  A    between atoms: C_1  and  O_2
REMARK    2  A    between atoms: O_2  and  C_3
REMARK    3  A    between atoms: N_10  and  C_11
REMARK    4  A    between atoms: C_11  and  C_12
REMARK    5  A    between atoms: C_15  and  C_16
REMARK    6  A    between atoms: C_22  and  C_24
REMARK    7  A    between atoms: C_24  and  C_25
REMARK    8  A    between atoms: C_24  and  C_26
REMARK                            x       y       z     vdW  Elec       q    Type
REMARK                         _______ _______ _______ _____ _____    ______ ____
ROOT
ATOM      1  C   UNL     1       2.578   6.343  19.304  0.00  0.00    +0.000 C 
ATOM      2  C   UNL     1       2.179   7.061  20.601  0.00  0.00    +0.000 C 
ATOM      3  C   UNL     1       1.059   8.055  20.330  0.00  0.00    +0.000 C 
ATOM      4  C   UNL     1       1.494   9.112  19.313  0.00  0.00    +0.000 C 
ATOM      5  C   UNL     1       1.970   8.449  18.011  0.00  0.00    +0.000 C 
ATOM      6  C   UNL     1       3.055   7.389  18.278  0.00  0.00    +0.000 C 
ENDROOT
BRANCH   4   7
ATOM      7  C   UNL     1       0.344  10.088  19.087  0.00  0.00    +0.000 C 
ATOM      8  O   UNL     1      -0.824   9.768  19.334  0.00  0.00    +0.000 OA
ATOM      9  N   UNL     1       0.647  11.362  18.601  0.00  0.00    +0.000 N 
ATOM     10  C   UNL     1      -0.389  12.419  18.673  0.00  0.00    +0.000 C 
ATOM     11  C   UNL     1       0.002  13.505  19.697  0.00  0.00    +0.000 C 
ATOM     12  N   UNL     1       1.389  13.976  19.484  0.00  0.00    +0.000 N 
ATOM     13  C   UNL     1       1.612  15.306  19.154  0.00  0.00    +0.000 C 
ATOM     14  O   UNL     1       0.674  16.093  19.009  0.00  0.00    +0.000 OA
ATOM     15  C   UNL     1       2.378  12.891  19.449  0.00  0.00    +0.000 C 
ATOM     16  C   UNL     1       1.995  11.892  18.347  0.00  0.00    +0.000 C 
BRANCH  13  17
ATOM     17  C   UNL     1       3.059  15.772  18.961  0.00  0.00    +0.000 C 
ATOM     18  C   UNL     1       3.322  16.150  17.504  0.00  0.00    +0.000 C 
ATOM     19  C   UNL     1       3.350  16.973  19.865  0.00  0.00    +0.000 C 
ENDBRANCH  13  17
ENDBRANCH   4   7
BRANCH   1  20
ATOM     20  C   UNL     1       3.629   5.238  19.553  0.00  0.00    +0.000 C 
BRANCH  20  28
ATOM     21  C   UNL     1       5.808   4.032  13.874  0.00  0.00    +0.000 A 
ATOM     22  C   UNL     1       7.088   4.533  14.127  0.00  0.00    +0.000 A 
ATOM     23  C   UNL     1       7.392   5.099  15.369  0.00  0.00    +0.000 A 
ATOM     24  C   UNL     1       6.421   5.131  16.368  0.00  0.00    +0.000 A 
ATOM     25  N   UNL     1       6.756   5.566  17.644  0.00  0.00    +0.000 N 
ATOM     26  C   UNL     1       5.909   5.505  18.713  0.00  0.00    +0.000 A 
ATOM     27  O   UNL     1       6.343   5.772  19.834  0.00  0.00    +0.000 OA
ATOM     28  N   UNL     1       4.596   5.142  18.453  0.00  0.00    +0.000 N 
ATOM     29  C   UNL     1       4.137   4.735  17.198  0.00  0.00    +0.000 A 
ATOM     30  O   UNL     1       2.968   4.444  16.952  0.00  0.00    +0.000 OA
ATOM     31  C   UNL     1       5.138   4.666  16.114  0.00  0.00    +0.000 A 
ATOM     32  C   UNL     1       4.824   4.125  14.862  0.00  0.00    +0.000 A 
ATOM     33  H   UNL     1       7.701   5.857  17.858  0.00  0.00    +0.000 HD
BRANCH  21  35
ATOM     34  C   UNL     1       6.426   2.901  11.875  0.00  0.00    +0.000 C 
ATOM     35  O   UNL     1       5.404   3.430  12.714  0.00  0.00    +0.000 OA
ENDBRANCH  21  35
ENDBRANCH  20  28
ENDBRANCH   1  20
TORSDOF 5
ENDMDL
