MODEL 1
REMARK VINA RESULT:      -6.6      0.000      0.000
REMARK  Name = 
REMARK  3 active torsions:
REMARK  status: ('A' for Active; 'I' for Inactive)
REMARK    1  A    between atoms: C_1  and  N_2
REMARK    2  A    between atoms: N_2  and  C_3
REMARK    3  A    between atoms: C_7  and  N_8
REMARK                            x       y       z     vdW  Elec       q    Type
REMARK                         _______ _______ _______ _____ _____    ______ ____
ROOT
ATOM      1  N   UNL     1       3.891   6.073  17.603  0.00  0.00    +0.000 N 
ATOM      2  C   UNL     1       5.182   6.295  17.160  0.00  0.00    +0.000 C 
ATOM      3  O   UNL     1       5.749   7.379  17.216  0.00  0.00    +0.000 OA
ATOM      4  N   UNL     1       5.825   5.193  16.619  0.00  0.00    +0.000 N 
ATOM      5  C   UNL     1       5.304   3.818  16.500  0.00  0.00    +0.000 C 
ATOM      6  C   UNL     1       4.844   3.551  15.058  0.00  0.00    +0.000 C 
ATOM      7  C   UNL     1       5.922   4.014  14.125  0.00  0.00    +0.000 A 
ATOM      8  S   UNL     1       5.997   3.536  12.499  0.00  0.00    +0.000 S 
ATOM      9  C   UNL     1       7.393   4.493  12.235  0.00  0.00    +0.000 A 
ATOM     10  C   UNL     1       7.787   5.165  13.373  0.00  0.00    +0.000 A 
ATOM     11  C   UNL     1       6.934   4.888  14.485  0.00  0.00    +0.000 A 
ATOM     12  C   UNL     1       7.077   5.437  15.882  0.00  0.00    +0.000 C 
ATOM     13  H   UNL     1       3.491   5.166  17.438  0.00  0.00    +0.000 HD
ENDROOT
BRANCH   1  20
ATOM     14  C   UNL     1      -0.440  10.401  19.612  0.00  0.00    +0.000 C 
ATOM     15  N   UNL     1       0.590   9.678  20.340  0.00  0.00    +0.000 N 
ATOM     16  C   UNL     1       0.404   9.445  21.762  0.00  0.00    +0.000 C 
ATOM     17  C   UNL     1       1.382   8.767  19.640  0.00  0.00    +0.000 A 
ATOM     18  C   UNL     1       1.718   9.011  18.309  0.00  0.00    +0.000 A 
ATOM     19  C   UNL     1       2.545   8.137  17.604  0.00  0.00    +0.000 A 
ATOM     20  C   UNL     1       3.033   7.003  18.224  0.00  0.00    +0.000 A 
ATOM     21  C   UNL     1       2.644   6.814  19.546  0.00  0.00    +0.000 A 
ATOM     22  N   UNL     1       1.852   7.662  20.259  0.00  0.00    +0.000 NA
ENDBRANCH   1  20
TORSDOF 1
ENDMDL
MODEL 2
REMARK VINA RESULT:      -6.5      3.868      5.268
REMARK  Name = 
REMARK  3 active torsions:
REMARK  status: ('A' for Active; 'I' for Inactive)
REMARK    1  A    between atoms: C_1  and  N_2
REMARK    2  A    between atoms: N_2  and  C_3
REMARK    3  A    between atoms: C_7  and  N_8
REMARK                            x       y       z     vdW  Elec       q    Type
REMARK                         _______ _______ _______ _____ _____    ______ ____
ROOT
ATOM      1  N   UNL     1       1.100   7.798  21.061  0.00  0.00    +0.000 N 
ATOM      2  C   UNL     1       2.018   7.459  20.083  0.00  0.00    +0.000 C 
ATOM      3  O   UNL     1       2.333   8.195  19.155  0.00  0.00    +0.000 OA
ATOM      4  N   UNL     1       2.577   6.197  20.201  0.00  0.00    +0.000 N 
ATOM      5  C   UNL     1       2.333   5.202  21.263  0.00  0.00    +0.000 C 
ATOM      6  C   UNL     1       1.374   4.114  20.755  0.00  0.00    +0.000 C 
ATOM      7  C   UNL     1       1.851   3.654  19.410  0.00  0.00    +0.000 A 
ATOM      8  S   UNL     1       1.331   2.205  18.698  0.00  0.00    +0.000 S 
ATOM      9  C   UNL     1       2.273   2.503  17.298  0.00  0.00    +0.000 A 
ATOM     10  C   UNL     1       2.967   3.692  17.380  0.00  0.00    +0.000 A 
ATOM     11  C   UNL     1       2.729   4.371  18.614  0.00  0.00    +0.000 A 
ATOM     12  C   UNL     1       3.333   5.684  19.046  0.00  0.00    +0.000 C 
ATOM     13  H   UNL     1       0.854   7.093  21.733  0.00  0.00    +0.000 HD
ENDROOT
BRANCH   1  20
ATOM     14  C   UNL     1      -2.599  13.075  21.038  0.00  0.00    +0.000 C 
ATOM     15  N   UNL     1      -1.452  12.720  21.860  0.00  0.00    +0.000 N 
ATOM     16  C   UNL     1      -1.334  13.313  23.181  0.00  0.00    +0.000 C 
ATOM     17  C   UNL     1      -0.850  11.478  21.658  0.00  0.00    +0.000 A 
ATOM     18  C   UNL     1      -0.803  10.923  20.380  0.00  0.00    +0.000 A 
ATOM     19  C   UNL     1      -0.167   9.704  20.148  0.00  0.00    +0.000 A 
ATOM     20  C   UNL     1       0.417   9.023  21.199  0.00  0.00    +0.000 A 
ATOM     21  C   UNL     1       0.317   9.626  22.448  0.00  0.00    +0.000 A 
ATOM     22  N   UNL     1      -0.283  10.824  22.695  0.00  0.00    +0.000 NA
ENDBRANCH   1  20
TORSDOF 1
ENDMDL
MODEL 3
REMARK VINA RESULT:      -6.3      5.487     10.997
REMARK  Name = 
REMARK  3 active torsions:
REMARK  status: ('A' for Active; 'I' for Inactive)
REMARK    1  A    between atoms: C_1  and  N_2
REMARK    2  A    between atoms: N_2  and  C_3
REMARK    3  A    between atoms: C_7  and  N_8
REMARK                            x       y       z     vdW  Elec       q    Type
REMARK                         _______ _______ _______ _____ _____    ______ ____
ROOT
ATOM      1  N   UNL     1      -0.324  10.685  20.771  0.00  0.00    +0.000 N 
ATOM      2  C   UNL     1      -0.593  11.166  22.040  0.00  0.00    +0.000 C 
ATOM      3  O   UNL     1      -0.190  10.641  23.071  0.00  0.00    +0.000 OA
ATOM      4  N   UNL     1      -1.379  12.306  22.092  0.00  0.00    +0.000 N 
ATOM      5  C   UNL     1      -1.921  13.075  20.955  0.00  0.00    +0.000 C 
ATOM      6  C   UNL     1      -3.408  12.741  20.755  0.00  0.00    +0.000 C 
ATOM      7  C   UNL     1      -4.092  12.813  22.086  0.00  0.00    +0.000 A 
ATOM      8  S   UNL     1      -5.778  12.919  22.248  0.00  0.00    +0.000 S 
ATOM      9  C   UNL     1      -5.659  12.911  23.957  0.00  0.00    +0.000 A 
ATOM     10  C   UNL     1      -4.352  12.825  24.388  0.00  0.00    +0.000 A 
ATOM     11  C   UNL     1      -3.428  12.771  23.301  0.00  0.00    +0.000 A 
ATOM     12  C   UNL     1      -1.925  12.689  23.404  0.00  0.00    +0.000 C 
ATOM     13  H   UNL     1      -0.767  11.144  19.995  0.00  0.00    +0.000 HD
ENDROOT
BRANCH   1  20
ATOM     14  C   UNL     1       2.708   5.099  19.708  0.00  0.00    +0.000 C 
ATOM     15  N   UNL     1       2.998   6.444  19.236  0.00  0.00    +0.000 N 
ATOM     16  C   UNL     1       3.728   6.601  17.990  0.00  0.00    +0.000 C 
ATOM     17  C   UNL     1       2.141   7.478  19.613  0.00  0.00    +0.000 A 
ATOM     18  C   UNL     1       1.524   7.455  20.862  0.00  0.00    +0.000 A 
ATOM     19  C   UNL     1       0.698   8.500  21.276  0.00  0.00    +0.000 A 
ATOM     20  C   UNL     1       0.475   9.574  20.435  0.00  0.00    +0.000 A 
ATOM     21  C   UNL     1       1.109   9.522  19.198  0.00  0.00    +0.000 A 
ATOM     22  N   UNL     1       1.932   8.521  18.779  0.00  0.00    +0.000 NA
ENDBRANCH   1  20
TORSDOF 1
ENDMDL
MODEL 4
REMARK VINA RESULT:      -6.3      4.951     10.329
REMARK  Name = 
REMARK  3 active torsions:
REMARK  status: ('A' for Active; 'I' for Inactive)
REMARK    1  A    between atoms: C_1  and  N_2
REMARK    2  A    between atoms: N_2  and  C_3
REMARK    3  A    between atoms: C_7  and  N_8
REMARK                            x       y       z     vdW  Elec       q    Type
REMARK                         _______ _______ _______ _____ _____    ______ ____
ROOT
ATOM      1  N   UNL     1       0.358  10.644  19.904  0.00  0.00    +0.000 N 
ATOM      2  C   UNL     1       0.193  11.099  21.199  0.00  0.00    +0.000 C 
ATOM      3  O   UNL     1       0.670  10.550  22.185  0.00  0.00    +0.000 OA
ATOM      4  N   UNL     1      -0.574  12.245  21.336  0.00  0.00    +0.000 N 
ATOM      5  C   UNL     1      -1.195  13.043  20.261  0.00  0.00    +0.000 C 
ATOM      6  C   UNL     1      -2.695  12.728  20.170  0.00  0.00    +0.000 C 
ATOM      7  C   UNL     1      -3.273  12.777  21.552  0.00  0.00    +0.000 A 
ATOM      8  S   UNL     1      -4.940  12.896  21.847  0.00  0.00    +0.000 S 
ATOM      9  C   UNL     1      -4.690  12.850  23.541  0.00  0.00    +0.000 A 
ATOM     10  C   UNL     1      -3.354  12.743  23.867  0.00  0.00    +0.000 A 
ATOM     11  C   UNL     1      -2.517  12.703  22.710  0.00  0.00    +0.000 A 
ATOM     12  C   UNL     1      -1.013  12.605  22.695  0.00  0.00    +0.000 C 
ATOM     13  H   UNL     1      -0.139  11.123  19.175  0.00  0.00    +0.000 HD
ENDROOT
BRANCH   1  20
ATOM     14  C   UNL     1       4.311   6.171  17.476  0.00  0.00    +0.000 C 
ATOM     15  N   UNL     1       3.242   6.065  18.457  0.00  0.00    +0.000 N 
ATOM     16  C   UNL     1       3.299   4.990  19.433  0.00  0.00    +0.000 C 
ATOM     17  C   UNL     1       2.556   7.224  18.818  0.00  0.00    +0.000 A 
ATOM     18  C   UNL     1       2.342   8.232  17.879  0.00  0.00    +0.000 A 
ATOM     19  C   UNL     1       1.620   9.379  18.207  0.00  0.00    +0.000 A 
ATOM     20  C   UNL     1       1.116   9.532  19.484  0.00  0.00    +0.000 A 
ATOM     21  C   UNL     1       1.383   8.497  20.373  0.00  0.00    +0.000 A 
ATOM     22  N   UNL     1       2.070   7.360  20.071  0.00  0.00    +0.000 NA
ENDBRANCH   1  20
TORSDOF 1
ENDMDL
MODEL 5
REMARK VINA RESULT:      -6.3      5.993      7.164
REMARK  Name = 
REMARK  3 active torsions:
REMARK  status: ('A' for Active; 'I' for Inactive)
REMARK    1  A    between atoms: C_1  and  N_2
REMARK    2  A    between atoms: N_2  and  C_3
REMARK    3  A    between atoms: C_7  and  N_8
REMARK                            x       y       z     vdW  Elec       q    Type
REMARK                         _______ _______ _______ _____ _____    ______ ____
ROOT
ATOM      1  N   UNL     1       8.607   8.613  18.856  0.00  0.00    +0.000 N 
ATOM      2  C   UNL     1       7.883   8.139  17.777  0.00  0.00    +0.000 C 
ATOM      3  O   UNL     1       7.478   8.844  16.861  0.00  0.00    +0.000 OA
ATOM      4  N   UNL     1       7.618   6.779  17.787  0.00  0.00    +0.000 N 
ATOM      5  C   UNL     1       8.051   5.787  18.790  0.00  0.00    +0.000 C 
ATOM      6  C   UNL     1       6.887   5.449  19.734  0.00  0.00    +0.000 C 
ATOM      7  C   UNL     1       5.670   5.174  18.903  0.00  0.00    +0.000 A 
ATOM      8  S   UNL     1       4.303   4.375  19.513  0.00  0.00    +0.000 S 
ATOM      9  C   UNL     1       3.486   4.533  18.015  0.00  0.00    +0.000 A 
ATOM     10  C   UNL     1       4.251   5.188  17.072  0.00  0.00    +0.000 A 
ATOM     11  C   UNL     1       5.531   5.564  17.581  0.00  0.00    +0.000 A 
ATOM     12  C   UNL     1       6.622   6.278  16.824  0.00  0.00    +0.000 C 
ATOM     13  H   UNL     1       8.824   7.965  19.592  0.00  0.00    +0.000 HD
ENDROOT
BRANCH   1  20
ATOM     14  C   UNL     1      11.055  14.320  20.579  0.00  0.00    +0.000 C 
ATOM     15  N   UNL     1      10.233  13.942  19.440  0.00  0.00    +0.000 N 
ATOM     16  C   UNL     1      10.317  14.738  18.228  0.00  0.00    +0.000 C 
ATOM     17  C   UNL     1       9.862  12.604  19.304  0.00  0.00    +0.000 A 
ATOM     18  C   UNL     1       9.624  11.825  20.436  0.00  0.00    +0.000 A 
ATOM     19  C   UNL     1       9.210  10.498  20.323  0.00  0.00    +0.000 A 
ATOM     20  C   UNL     1       9.042   9.936  19.073  0.00  0.00    +0.000 A 
ATOM     21  C   UNL     1       9.314  10.764  17.989  0.00  0.00    +0.000 A 
ATOM     22  N   UNL     1       9.703  12.067  18.075  0.00  0.00    +0.000 NA
ENDBRANCH   1  20
TORSDOF 1
ENDMDL
MODEL 6
REMARK VINA RESULT:      -6.3      3.882      5.398
REMARK  Name = 
REMARK  3 active torsions:
REMARK  status: ('A' for Active; 'I' for Inactive)
REMARK    1  A    between atoms: C_1  and  N_2
REMARK    2  A    between atoms: N_2  and  C_3
REMARK    3  A    between atoms: C_7  and  N_8
REMARK                            x       y       z     vdW  Elec       q    Type
REMARK                         _______ _______ _______ _____ _____    ______ ____
ROOT
ATOM      1  N   UNL     1       1.149   7.697  21.221  0.00  0.00    +0.000 N 
ATOM      2  C   UNL     1       2.010   7.409  20.177  0.00  0.00    +0.000 C 
ATOM      3  O   UNL     1       2.243   8.175  19.250  0.00  0.00    +0.000 OA
ATOM      4  N   UNL     1       2.611   6.161  20.226  0.00  0.00    +0.000 N 
ATOM      5  C   UNL     1       2.464   5.135  21.276  0.00  0.00    +0.000 C 
ATOM      6  C   UNL     1       1.506   4.031  20.803  0.00  0.00    +0.000 C 
ATOM      7  C   UNL     1       1.907   3.618  19.419  0.00  0.00    +0.000 A 
ATOM      8  S   UNL     1       1.382   2.171  18.705  0.00  0.00    +0.000 S 
ATOM      9  C   UNL     1       2.222   2.530  17.255  0.00  0.00    +0.000 A 
ATOM     10  C   UNL     1       2.886   3.736  17.323  0.00  0.00    +0.000 A 
ATOM     11  C   UNL     1       2.710   4.379  18.587  0.00  0.00    +0.000 A 
ATOM     12  C   UNL     1       3.304   5.698  19.012  0.00  0.00    +0.000 C 
ATOM     13  H   UNL     1       0.967   6.969  21.889  0.00  0.00    +0.000 HD
ENDROOT
BRANCH   1  20
ATOM     14  C   UNL     1      -1.518  13.311  22.924  0.00  0.00    +0.000 C 
ATOM     15  N   UNL     1      -1.779  12.439  21.789  0.00  0.00    +0.000 N 
ATOM     16  C   UNL     1      -2.324  13.022  20.575  0.00  0.00    +0.000 C 
ATOM     17  C   UNL     1      -1.019  11.277  21.657  0.00  0.00    +0.000 A 
ATOM     18  C   UNL     1      -0.589  10.589  22.791  0.00  0.00    +0.000 A 
ATOM     19  C   UNL     1       0.134   9.401  22.682  0.00  0.00    +0.000 A 
ATOM     20  C   UNL     1       0.443   8.898  21.433  0.00  0.00    +0.000 A 
ATOM     21  C   UNL     1      -0.002   9.644  20.347  0.00  0.00    +0.000 A 
ATOM     22  N   UNL     1      -0.723  10.797  20.429  0.00  0.00    +0.000 NA
ENDBRANCH   1  20
TORSDOF 1
ENDMDL
MODEL 7
REMARK VINA RESULT:      -6.3      6.093      7.096
REMARK  Name = 
REMARK  3 active torsions:
REMARK  status: ('A' for Active; 'I' for Inactive)
REMARK    1  A    between atoms: C_1  and  N_2
REMARK    2  A    between atoms: N_2  and  C_3
REMARK    3  A    between atoms: C_7  and  N_8
REMARK                            x       y       z     vdW  Elec       q    Type
REMARK                         _______ _______ _______ _____ _____    ______ ____
ROOT
ATOM      1  N   UNL     1       8.691   8.668  18.868  0.00  0.00    +0.000 N 
ATOM      2  C   UNL     1       7.939   8.219  17.798  0.00  0.00    +0.000 C 
ATOM      3  O   UNL     1       7.524   8.942  16.901  0.00  0.00    +0.000 OA
ATOM      4  N   UNL     1       7.658   6.862  17.794  0.00  0.00    +0.000 N 
ATOM      5  C   UNL     1       8.100   5.851  18.774  0.00  0.00    +0.000 C 
ATOM      6  C   UNL     1       6.951   5.512  19.736  0.00  0.00    +0.000 C 
ATOM      7  C   UNL     1       5.715   5.263  18.927  0.00  0.00    +0.000 A 
ATOM      8  S   UNL     1       4.351   4.472  19.554  0.00  0.00    +0.000 S 
ATOM      9  C   UNL     1       3.506   4.661  18.076  0.00  0.00    +0.000 A 
ATOM     10  C   UNL     1       4.258   5.321  17.127  0.00  0.00    +0.000 A 
ATOM     11  C   UNL     1       5.553   5.674  17.615  0.00  0.00    +0.000 A 
ATOM     12  C   UNL     1       6.637   6.387  16.846  0.00  0.00    +0.000 C 
ATOM     13  H   UNL     1       8.915   8.007  19.591  0.00  0.00    +0.000 HD
ENDROOT
BRANCH   1  20
ATOM     14  C   UNL     1      10.537  14.841  19.018  0.00  0.00    +0.000 C 
ATOM     15  N   UNL     1      10.504  13.832  20.066  0.00  0.00    +0.000 N 
ATOM     16  C   UNL     1      10.379  14.267  21.446  0.00  0.00    +0.000 C 
ATOM     17  C   UNL     1      10.025  12.561  19.747  0.00  0.00    +0.000 A 
ATOM     18  C   UNL     1      10.244  12.028  18.478  0.00  0.00    +0.000 A 
ATOM     19  C   UNL     1       9.812  10.743  18.153  0.00  0.00    +0.000 A 
ATOM     20  C   UNL     1       9.146   9.983  19.095  0.00  0.00    +0.000 A 
ATOM     21  C   UNL     1       8.947  10.583  20.334  0.00  0.00    +0.000 A 
ATOM     22  N   UNL     1       9.374  11.830  20.679  0.00  0.00    +0.000 NA
ENDBRANCH   1  20
TORSDOF 1
ENDMDL
MODEL 8
REMARK VINA RESULT:      -6.2      0.683      1.320
REMARK  Name = 
REMARK  3 active torsions:
REMARK  status: ('A' for Active; 'I' for Inactive)
REMARK    1  A    between atoms: C_1  and  N_2
REMARK    2  A    between atoms: N_2  and  C_3
REMARK    3  A    between atoms: C_7  and  N_8
REMARK                            x       y       z     vdW  Elec       q    Type
REMARK                         _______ _______ _______ _____ _____    ______ ____
ROOT
ATOM      1  N   UNL     1       3.921   6.084  17.689  0.00  0.00    +0.000 N 
ATOM      2  C   UNL     1       5.211   6.300  17.237  0.00  0.00    +0.000 C 
ATOM      3  O   UNL     1       5.784   7.381  17.294  0.00  0.00    +0.000 OA
ATOM      4  N   UNL     1       5.843   5.197  16.687  0.00  0.00    +0.000 N 
ATOM      5  C   UNL     1       5.312   3.826  16.566  0.00  0.00    +0.000 C 
ATOM      6  C   UNL     1       4.840   3.568  15.127  0.00  0.00    +0.000 C 
ATOM      7  C   UNL     1       5.913   4.028  14.188  0.00  0.00    +0.000 A 
ATOM      8  S   UNL     1       5.973   3.556  12.559  0.00  0.00    +0.000 S 
ATOM      9  C   UNL     1       7.373   4.506  12.288  0.00  0.00    +0.000 A 
ATOM     10  C   UNL     1       7.779   5.171  13.426  0.00  0.00    +0.000 A 
ATOM     11  C   UNL     1       6.933   4.894  14.543  0.00  0.00    +0.000 A 
ATOM     12  C   UNL     1       7.090   5.437  15.942  0.00  0.00    +0.000 C 
ATOM     13  H   UNL     1       3.515   5.180  17.524  0.00  0.00    +0.000 HD
ENDROOT
BRANCH   1  20
ATOM     14  C   UNL     1       0.531  10.162  21.350  0.00  0.00    +0.000 C 
ATOM     15  N   UNL     1       0.463   9.882  19.925  0.00  0.00    +0.000 N 
ATOM     16  C   UNL     1      -0.037  10.917  19.036  0.00  0.00    +0.000 C 
ATOM     17  C   UNL     1       1.352   8.950  19.389  0.00  0.00    +0.000 A 
ATOM     18  C   UNL     1       1.755   7.851  20.146  0.00  0.00    +0.000 A 
ATOM     19  C   UNL     1       2.608   6.885  19.614  0.00  0.00    +0.000 A 
ATOM     20  C   UNL     1       3.074   7.017  18.321  0.00  0.00    +0.000 A 
ATOM     21  C   UNL     1       2.646   8.146  17.630  0.00  0.00    +0.000 A 
ATOM     22  N   UNL     1       1.801   9.093  18.122  0.00  0.00    +0.000 NA
ENDBRANCH   1  20
TORSDOF 1
ENDMDL
MODEL 9
REMARK VINA RESULT:      -6.2      5.265     10.550
REMARK  Name = 
REMARK  3 active torsions:
REMARK  status: ('A' for Active; 'I' for Inactive)
REMARK    1  A    between atoms: C_1  and  N_2
REMARK    2  A    between atoms: N_2  and  C_3
REMARK    3  A    between atoms: C_7  and  N_8
REMARK                            x       y       z     vdW  Elec       q    Type
REMARK                         _______ _______ _______ _____ _____    ______ ____
ROOT
ATOM      1  N   UNL     1       0.018  10.981  19.879  0.00  0.00    +0.000 N 
ATOM      2  C   UNL     1       0.414  12.063  20.645  0.00  0.00    +0.000 C 
ATOM      3  O   UNL     1       1.526  12.176  21.146  0.00  0.00    +0.000 OA
ATOM      4  N   UNL     1      -0.546  13.044  20.834  0.00  0.00    +0.000 N 
ATOM      5  C   UNL     1      -1.915  13.079  20.284  0.00  0.00    +0.000 C 
ATOM      6  C   UNL     1      -2.928  12.671  21.365  0.00  0.00    +0.000 C 
ATOM      7  C   UNL     1      -2.617  13.435  22.616  0.00  0.00    +0.000 A 
ATOM      8  S   UNL     1      -3.721  13.590  23.896  0.00  0.00    +0.000 S 
ATOM      9  C   UNL     1      -2.596  14.499  24.815  0.00  0.00    +0.000 A 
ATOM     10  C   UNL     1      -1.401  14.673  24.150  0.00  0.00    +0.000 A 
ATOM     11  C   UNL     1      -1.405  14.057  22.862  0.00  0.00    +0.000 A 
ATOM     12  C   UNL     1      -0.275  14.063  21.862  0.00  0.00    +0.000 C 
ATOM     13  H   UNL     1      -0.941  10.948  19.580  0.00  0.00    +0.000 HD
ENDROOT
BRANCH   1  20
ATOM     14  C   UNL     1       4.046   6.502  17.591  0.00  0.00    +0.000 C 
ATOM     15  N   UNL     1       3.023   6.424  18.622  0.00  0.00    +0.000 N 
ATOM     16  C   UNL     1       3.163   5.423  19.666  0.00  0.00    +0.000 C 
ATOM     17  C   UNL     1       2.306   7.579  18.934  0.00  0.00    +0.000 A 
ATOM     18  C   UNL     1       2.013   8.510  17.938  0.00  0.00    +0.000 A 
ATOM     19  C   UNL     1       1.260   9.650  18.218  0.00  0.00    +0.000 A 
ATOM     20  C   UNL     1       0.802   9.873  19.503  0.00  0.00    +0.000 A 
ATOM     21  C   UNL     1       1.147   8.912  20.448  0.00  0.00    +0.000 A 
ATOM     22  N   UNL     1       1.866   7.784  20.195  0.00  0.00    +0.000 NA
ENDBRANCH   1  20
TORSDOF 1
ENDMDL
