MODEL 1
REMARK VINA RESULT:      -7.6      0.000      0.000
REMARK  Name = 
REMARK  3 active torsions:
REMARK  status: ('A' for Active; 'I' for Inactive)
REMARK    1  A    between atoms: C_5  and  S_6
REMARK    2  A    between atoms: S_6  and  C_7
REMARK    3  A    between atoms: C_12  and  N_13
REMARK                            x       y       z     vdW  Elec       q    Type
REMARK                         _______ _______ _______ _____ _____    ______ ____
ROOT
ATOM      1  C   UNL     1       3.130   5.199  17.735  0.00  0.00    +0.000 A 
ATOM      2  C   UNL     1       1.826   4.950  18.200  0.00  0.00    +0.000 A 
ATOM      3  C   UNL     1       1.356   3.649  18.364  0.00  0.00    +0.000 A 
ATOM      4  C   UNL     1       2.174   2.574  18.048  0.00  0.00    +0.000 A 
ATOM      5  C   UNL     1       3.466   2.792  17.573  0.00  0.00    +0.000 A 
ATOM      6  C   UNL     1       3.988   4.097  17.405  0.00  0.00    +0.000 A 
ENDROOT
BRANCH   6   7
ATOM      7  N   UNL     1       5.344   4.236  16.917  0.00  0.00    +0.000 N 
ATOM      8  C   UNL     1       5.727   3.810  15.574  0.00  0.00    +0.000 C 
ATOM      9  C   UNL     1       6.434   4.975  14.868  0.00  0.00    +0.000 C 
ATOM     10  N   UNL     1       7.574   5.438  15.673  0.00  0.00    +0.000 NA
ATOM     11  C   UNL     1       7.132   5.885  17.003  0.00  0.00    +0.000 C 
ATOM     12  C   UNL     1       6.449   4.721  17.727  0.00  0.00    +0.000 C 
ATOM     13  H   UNL     1       8.035   6.240  15.182  0.00  0.00    +0.000 HD
ENDBRANCH   6   7
BRANCH   1  14
ATOM     14  S   UNL     1       3.514   6.944  17.437  0.00  0.00    +0.000 S 
BRANCH  14  19
ATOM     15  F   UNL     1      -0.166   9.888  21.112  0.00  0.00    +0.000 F 
ATOM     16  C   UNL     1       0.681   9.204  20.304  0.00  0.00    +0.000 A 
ATOM     17  C   UNL     1       0.865   9.615  18.983  0.00  0.00    +0.000 A 
ATOM     18  C   UNL     1       1.735   8.910  18.148  0.00  0.00    +0.000 A 
ATOM     19  C   UNL     1       2.430   7.787  18.619  0.00  0.00    +0.000 A 
ATOM     20  C   UNL     1       2.239   7.375  19.951  0.00  0.00    +0.000 A 
ATOM     21  C   UNL     1       1.367   8.086  20.789  0.00  0.00    +0.000 A 
ENDBRANCH  14  19
ENDBRANCH   1  14
TORSDOF 3
ENDMDL
MODEL 2
REMARK VINA RESULT:      -7.4      0.098      1.084
REMARK  Name = 
REMARK  3 active torsions:
REMARK  status: ('A' for Active; 'I' for Inactive)
REMARK    1  A    between atoms: C_5  and  S_6
REMARK    2  A    between atoms: S_6  and  C_7
REMARK    3  A    between atoms: C_12  and  N_13
REMARK                            x       y       z     vdW  Elec       q    Type
REMARK                         _______ _______ _______ _____ _____    ______ ____
ROOT
ATOM      1  C   UNL     1       3.132   5.252  17.733  0.00  0.00    +0.000 A 
ATOM      2  C   UNL     1       1.826   5.027  18.203  0.00  0.00    +0.000 A 
ATOM      3  C   UNL     1       1.335   3.736  18.377  0.00  0.00    +0.000 A 
ATOM      4  C   UNL     1       2.134   2.645  18.065  0.00  0.00    +0.000 A 
ATOM      5  C   UNL     1       3.428   2.838  17.585  0.00  0.00    +0.000 A 
ATOM      6  C   UNL     1       3.972   4.134  17.408  0.00  0.00    +0.000 A 
ENDROOT
BRANCH   6   7
ATOM      7  N   UNL     1       5.328   4.247  16.914  0.00  0.00    +0.000 N 
ATOM      8  C   UNL     1       5.697   3.820  15.568  0.00  0.00    +0.000 C 
ATOM      9  C   UNL     1       6.424   4.973  14.865  0.00  0.00    +0.000 C 
ATOM     10  N   UNL     1       7.577   5.409  15.666  0.00  0.00    +0.000 NA
ATOM     11  C   UNL     1       7.149   5.859  17.000  0.00  0.00    +0.000 C 
ATOM     12  C   UNL     1       6.446   4.707  17.722  0.00  0.00    +0.000 C 
ATOM     13  H   UNL     1       8.052   6.204  15.177  0.00  0.00    +0.000 HD
ENDBRANCH   6   7
BRANCH   1  14
ATOM     14  S   UNL     1       3.545   6.988  17.423  0.00  0.00    +0.000 S 
BRANCH  14  19
ATOM     15  F   UNL     1      -0.126   9.713  21.274  0.00  0.00    +0.000 F 
ATOM     16  C   UNL     1       0.693   9.111  20.376  0.00  0.00    +0.000 A 
ATOM     17  C   UNL     1       1.470   8.019  20.766  0.00  0.00    +0.000 A 
ATOM     18  C   UNL     1       2.316   7.399  19.843  0.00  0.00    +0.000 A 
ATOM     19  C   UNL     1       2.398   7.861  18.522  0.00  0.00    +0.000 A 
ATOM     20  C   UNL     1       1.614   8.964  18.134  0.00  0.00    +0.000 A 
ATOM     21  C   UNL     1       0.764   9.582  19.061  0.00  0.00    +0.000 A 
ENDBRANCH  14  19
ENDBRANCH   1  14
TORSDOF 3
ENDMDL
MODEL 3
REMARK VINA RESULT:      -7.2      2.548      4.486
REMARK  Name = 
REMARK  3 active torsions:
REMARK  status: ('A' for Active; 'I' for Inactive)
REMARK    1  A    between atoms: C_5  and  S_6
REMARK    2  A    between atoms: S_6  and  C_7
REMARK    3  A    between atoms: C_12  and  N_13
REMARK                            x       y       z     vdW  Elec       q    Type
REMARK                         _______ _______ _______ _____ _____    ______ ____
ROOT
ATOM      1  C   UNL     1       3.308   5.514  17.573  0.00  0.00    +0.000 A 
ATOM      2  C   UNL     1       2.074   6.009  18.029  0.00  0.00    +0.000 A 
ATOM      3  C   UNL     1       1.852   7.376  18.167  0.00  0.00    +0.000 A 
ATOM      4  C   UNL     1       2.867   8.274  17.871  0.00  0.00    +0.000 A 
ATOM      5  C   UNL     1       4.105   7.812  17.428  0.00  0.00    +0.000 A 
ATOM      6  C   UNL     1       4.367   6.430  17.260  0.00  0.00    +0.000 A 
ENDROOT
BRANCH   6   7
ATOM      7  N   UNL     1       5.677   6.035  16.787  0.00  0.00    +0.000 N 
ATOM      8  C   UNL     1       6.862   6.121  17.634  0.00  0.00    +0.000 C 
ATOM      9  C   UNL     1       7.569   4.759  17.636  0.00  0.00    +0.000 C 
ATOM     10  N   UNL     1       7.876   4.345  16.259  0.00  0.00    +0.000 NA
ATOM     11  C   UNL     1       6.647   4.243  15.456  0.00  0.00    +0.000 C 
ATOM     12  C   UNL     1       5.947   5.604  15.424  0.00  0.00    +0.000 C 
ATOM     13  H   UNL     1       8.345   3.410  16.280  0.00  0.00    +0.000 HD
ENDBRANCH   6   7
BRANCH   1  14
ATOM     14  S   UNL     1       3.468   3.710  17.603  0.00  0.00    +0.000 S 
BRANCH  14  19
ATOM     15  F   UNL     1       0.825   2.271  22.767  0.00  0.00    +0.000 F 
ATOM     16  C   UNL     1       1.396   2.594  21.581  0.00  0.00    +0.000 A 
ATOM     17  C   UNL     1       2.786   2.656  21.472  0.00  0.00    +0.000 A 
ATOM     18  C   UNL     1       3.377   2.991  20.251  0.00  0.00    +0.000 A 
ATOM     19  C   UNL     1       2.589   3.269  19.125  0.00  0.00    +0.000 A 
ATOM     20  C   UNL     1       1.187   3.207  19.240  0.00  0.00    +0.000 A 
ATOM     21  C   UNL     1       0.597   2.868  20.466  0.00  0.00    +0.000 A 
ENDBRANCH  14  19
ENDBRANCH   1  14
TORSDOF 3
ENDMDL
MODEL 4
REMARK VINA RESULT:      -7.2      2.554      4.407
REMARK  Name = 
REMARK  3 active torsions:
REMARK  status: ('A' for Active; 'I' for Inactive)
REMARK    1  A    between atoms: C_5  and  S_6
REMARK    2  A    between atoms: S_6  and  C_7
REMARK    3  A    between atoms: C_12  and  N_13
REMARK                            x       y       z     vdW  Elec       q    Type
REMARK                         _______ _______ _______ _____ _____    ______ ____
ROOT
ATOM      1  C   UNL     1       3.303   5.498  17.575  0.00  0.00    +0.000 A 
ATOM      2  C   UNL     1       2.070   5.985  18.043  0.00  0.00    +0.000 A 
ATOM      3  C   UNL     1       1.839   7.351  18.179  0.00  0.00    +0.000 A 
ATOM      4  C   UNL     1       2.845   8.256  17.868  0.00  0.00    +0.000 A 
ATOM      5  C   UNL     1       4.081   7.801  17.413  0.00  0.00    +0.000 A 
ATOM      6  C   UNL     1       4.352   6.421  17.247  0.00  0.00    +0.000 A 
ENDROOT
BRANCH   6   7
ATOM      7  N   UNL     1       5.659   6.032  16.760  0.00  0.00    +0.000 N 
ATOM      8  C   UNL     1       6.850   6.114  17.600  0.00  0.00    +0.000 C 
ATOM      9  C   UNL     1       7.561   4.754  17.584  0.00  0.00    +0.000 C 
ATOM     10  N   UNL     1       7.858   4.353  16.201  0.00  0.00    +0.000 NA
ATOM     11  C   UNL     1       6.624   4.255  15.406  0.00  0.00    +0.000 C 
ATOM     12  C   UNL     1       5.921   5.615  15.392  0.00  0.00    +0.000 C 
ATOM     13  H   UNL     1       8.330   3.419  16.211  0.00  0.00    +0.000 HD
ENDBRANCH   6   7
BRANCH   1  14
ATOM     14  S   UNL     1       3.476   3.695  17.610  0.00  0.00    +0.000 S 
BRANCH  14  19
ATOM     15  F   UNL     1       0.741   2.269  22.729  0.00  0.00    +0.000 F 
ATOM     16  C   UNL     1       1.389   2.595  21.584  0.00  0.00    +0.000 A 
ATOM     17  C   UNL     1       0.659   2.931  20.443  0.00  0.00    +0.000 A 
ATOM     18  C   UNL     1       1.325   3.264  19.261  0.00  0.00    +0.000 A 
ATOM     19  C   UNL     1       2.727   3.265  19.202  0.00  0.00    +0.000 A 
ATOM     20  C   UNL     1       3.458   2.923  20.355  0.00  0.00    +0.000 A 
ATOM     21  C   UNL     1       2.787   2.592  21.541  0.00  0.00    +0.000 A 
ENDBRANCH  14  19
ENDBRANCH   1  14
TORSDOF 3
ENDMDL
MODEL 5
REMARK VINA RESULT:      -7.2      0.757      1.340
REMARK  Name = 
REMARK  3 active torsions:
REMARK  status: ('A' for Active; 'I' for Inactive)
REMARK    1  A    between atoms: C_5  and  S_6
REMARK    2  A    between atoms: S_6  and  C_7
REMARK    3  A    between atoms: C_12  and  N_13
REMARK                            x       y       z     vdW  Elec       q    Type
REMARK                         _______ _______ _______ _____ _____    ______ ____
ROOT
ATOM      1  C   UNL     1       2.898   5.759  17.862  0.00  0.00    +0.000 A 
ATOM      2  C   UNL     1       1.646   5.331  18.338  0.00  0.00    +0.000 A 
ATOM      3  C   UNL     1       1.320   3.978  18.392  0.00  0.00    +0.000 A 
ATOM      4  C   UNL     1       2.232   3.029  17.953  0.00  0.00    +0.000 A 
ATOM      5  C   UNL     1       3.475   3.426  17.464  0.00  0.00    +0.000 A 
ATOM      6  C   UNL     1       3.853   4.790  17.406  0.00  0.00    +0.000 A 
ENDROOT
BRANCH   6   7
ATOM      7  N   UNL     1       5.167   5.116  16.895  0.00  0.00    +0.000 N 
ATOM      8  C   UNL     1       6.287   5.417  17.781  0.00  0.00    +0.000 C 
ATOM      9  C   UNL     1       7.475   4.522  17.398  0.00  0.00    +0.000 C 
ATOM     10  N   UNL     1       7.803   4.698  15.976  0.00  0.00    +0.000 NA
ATOM     11  C   UNL     1       6.653   4.353  15.125  0.00  0.00    +0.000 C 
ATOM     12  C   UNL     1       5.471   5.258  15.479  0.00  0.00    +0.000 C 
ATOM     13  H   UNL     1       8.606   4.071  15.731  0.00  0.00    +0.000 HD
ENDBRANCH   6   7
BRANCH   1  14
ATOM     14  S   UNL     1       3.088   7.555  17.720  0.00  0.00    +0.000 S 
BRANCH  14  19
ATOM     15  F   UNL     1      -0.599   9.744  21.883  0.00  0.00    +0.000 F 
ATOM     16  C   UNL     1       0.252   9.230  20.961  0.00  0.00    +0.000 A 
ATOM     17  C   UNL     1       0.324   9.797  19.688  0.00  0.00    +0.000 A 
ATOM     18  C   UNL     1       1.198   9.267  18.736  0.00  0.00    +0.000 A 
ATOM     19  C   UNL     1       2.010   8.165  19.042  0.00  0.00    +0.000 A 
ATOM     20  C   UNL     1       1.931   7.595  20.326  0.00  0.00    +0.000 A 
ATOM     21  C   UNL     1       1.055   8.131  21.281  0.00  0.00    +0.000 A 
ENDBRANCH  14  19
ENDBRANCH   1  14
TORSDOF 3
ENDMDL
MODEL 6
REMARK VINA RESULT:      -7.2      3.682      6.579
REMARK  Name = 
REMARK  3 active torsions:
REMARK  status: ('A' for Active; 'I' for Inactive)
REMARK    1  A    between atoms: C_5  and  S_6
REMARK    2  A    between atoms: S_6  and  C_7
REMARK    3  A    between atoms: C_12  and  N_13
REMARK                            x       y       z     vdW  Elec       q    Type
REMARK                         _______ _______ _______ _____ _____    ______ ____
ROOT
ATOM      1  C   UNL     1       3.862   5.837  18.304  0.00  0.00    +0.000 A 
ATOM      2  C   UNL     1       4.358   6.960  17.619  0.00  0.00    +0.000 A 
ATOM      3  C   UNL     1       3.570   8.091  17.422  0.00  0.00    +0.000 A 
ATOM      4  C   UNL     1       2.264   8.112  17.888  0.00  0.00    +0.000 A 
ATOM      5  C   UNL     1       1.741   7.008  18.560  0.00  0.00    +0.000 A 
ATOM      6  C   UNL     1       2.513   5.844  18.794  0.00  0.00    +0.000 A 
ENDROOT
BRANCH   6   7
ATOM      7  N   UNL     1       1.898   4.746  19.508  0.00  0.00    +0.000 N 
ATOM      8  C   UNL     1       1.306   3.608  18.811  0.00  0.00    +0.000 C 
ATOM      9  C   UNL     1       1.900   2.314  19.384  0.00  0.00    +0.000 C 
ATOM     10  N   UNL     1       1.700   2.264  20.839  0.00  0.00    +0.000 NA
ATOM     11  C   UNL     1       2.341   3.414  21.497  0.00  0.00    +0.000 C 
ATOM     12  C   UNL     1       1.735   4.711  20.953  0.00  0.00    +0.000 C 
ATOM     13  H   UNL     1       2.123   1.382  21.212  0.00  0.00    +0.000 HD
ENDBRANCH   6   7
BRANCH   1  14
ATOM     14  S   UNL     1       4.971   4.405  18.330  0.00  0.00    +0.000 S 
BRANCH  14  19
ATOM     15  F   UNL     1       7.284   4.636  12.823  0.00  0.00    +0.000 F 
ATOM     16  C   UNL     1       6.789   4.587  14.085  0.00  0.00    +0.000 A 
ATOM     17  C   UNL     1       5.476   4.166  14.301  0.00  0.00    +0.000 A 
ATOM     18  C   UNL     1       4.963   4.118  15.600  0.00  0.00    +0.000 A 
ATOM     19  C   UNL     1       5.752   4.491  16.698  0.00  0.00    +0.000 A 
ATOM     20  C   UNL     1       7.075   4.917  16.473  0.00  0.00    +0.000 A 
ATOM     21  C   UNL     1       7.588   4.961  15.170  0.00  0.00    +0.000 A 
ENDBRANCH  14  19
ENDBRANCH   1  14
TORSDOF 3
ENDMDL
MODEL 7
REMARK VINA RESULT:      -7.1      3.462      6.111
REMARK  Name = 
REMARK  3 active torsions:
REMARK  status: ('A' for Active; 'I' for Inactive)
REMARK    1  A    between atoms: C_5  and  S_6
REMARK    2  A    between atoms: S_6  and  C_7
REMARK    3  A    between atoms: C_12  and  N_13
REMARK                            x       y       z     vdW  Elec       q    Type
REMARK                         _______ _______ _______ _____ _____    ______ ____
ROOT
ATOM      1  C   UNL     1       3.553   4.382  19.456  0.00  0.00    +0.000 A 
ATOM      2  C   UNL     1       3.410   2.988  19.563  0.00  0.00    +0.000 A 
ATOM      3  C   UNL     1       2.163   2.406  19.778  0.00  0.00    +0.000 A 
ATOM      4  C   UNL     1       1.040   3.209  19.910  0.00  0.00    +0.000 A 
ATOM      5  C   UNL     1       1.154   4.595  19.820  0.00  0.00    +0.000 A 
ATOM      6  C   UNL     1       2.400   5.226  19.588  0.00  0.00    +0.000 A 
ENDROOT
BRANCH   6   7
ATOM      7  N   UNL     1       2.430   6.671  19.498  0.00  0.00    +0.000 N 
ATOM      8  C   UNL     1       2.929   7.360  18.312  0.00  0.00    +0.000 C 
ATOM      9  C   UNL     1       1.869   8.367  17.843  0.00  0.00    +0.000 C 
ATOM     10  N   UNL     1       1.522   9.285  18.939  0.00  0.00    +0.000 NA
ATOM     11  C   UNL     1       0.997   8.544  20.096  0.00  0.00    +0.000 C 
ATOM     12  C   UNL     1       2.056   7.556  20.590  0.00  0.00    +0.000 C 
ATOM     13  H   UNL     1       0.791   9.954  18.604  0.00  0.00    +0.000 HD
ENDBRANCH   6   7
BRANCH   1  14
ATOM     14  S   UNL     1       5.263   4.968  19.332  0.00  0.00    +0.000 S 
BRANCH  14  19
ATOM     15  F   UNL     1       6.762   4.144  13.605  0.00  0.00    +0.000 F 
ATOM     16  C   UNL     1       6.391   4.333  14.895  0.00  0.00    +0.000 A 
ATOM     17  C   UNL     1       7.360   4.584  15.868  0.00  0.00    +0.000 A 
ATOM     18  C   UNL     1       6.980   4.777  17.198  0.00  0.00    +0.000 A 
ATOM     19  C   UNL     1       5.630   4.721  17.575  0.00  0.00    +0.000 A 
ATOM     20  C   UNL     1       4.657   4.466  16.590  0.00  0.00    +0.000 A 
ATOM     21  C   UNL     1       5.041   4.276  15.255  0.00  0.00    +0.000 A 
ENDBRANCH  14  19
ENDBRANCH   1  14
TORSDOF 3
ENDMDL
MODEL 8
REMARK VINA RESULT:      -7.1      1.743      3.969
REMARK  Name = 
REMARK  3 active torsions:
REMARK  status: ('A' for Active; 'I' for Inactive)
REMARK    1  A    between atoms: C_5  and  S_6
REMARK    2  A    between atoms: S_6  and  C_7
REMARK    3  A    between atoms: C_12  and  N_13
REMARK                            x       y       z     vdW  Elec       q    Type
REMARK                         _______ _______ _______ _____ _____    ______ ____
ROOT
ATOM      1  C   UNL     1       4.419   5.531  18.052  0.00  0.00    +0.000 A 
ATOM      2  C   UNL     1       5.437   6.448  17.736  0.00  0.00    +0.000 A 
ATOM      3  C   UNL     1       6.240   6.274  16.611  0.00  0.00    +0.000 A 
ATOM      4  C   UNL     1       6.053   5.170  15.793  0.00  0.00    +0.000 A 
ATOM      5  C   UNL     1       5.060   4.238  16.089  0.00  0.00    +0.000 A 
ATOM      6  C   UNL     1       4.212   4.384  17.214  0.00  0.00    +0.000 A 
ENDROOT
BRANCH   6   7
ATOM      7  N   UNL     1       3.199   3.376  17.444  0.00  0.00    +0.000 N 
ATOM      8  C   UNL     1       3.544   1.993  17.755  0.00  0.00    +0.000 C 
ATOM      9  C   UNL     1       2.805   1.575  19.034  0.00  0.00    +0.000 C 
ATOM     10  N   UNL     1       1.359   1.785  18.876  0.00  0.00    +0.000 NA
ATOM     11  C   UNL     1       1.062   3.198  18.595  0.00  0.00    +0.000 C 
ATOM     12  C   UNL     1       1.771   3.619  17.305  0.00  0.00    +0.000 C 
ATOM     13  H   UNL     1       0.875   1.507  19.761  0.00  0.00    +0.000 HD
ENDBRANCH   6   7
BRANCH   1  14
ATOM     14  S   UNL     1       3.582   5.832  19.629  0.00  0.00    +0.000 S 
BRANCH  14  19
ATOM     15  F   UNL     1       0.176  10.652  18.687  0.00  0.00    +0.000 F 
ATOM     16  C   UNL     1       0.951   9.555  18.869  0.00  0.00    +0.000 A 
ATOM     17  C   UNL     1       1.057   8.980  20.136  0.00  0.00    +0.000 A 
ATOM     18  C   UNL     1       1.857   7.851  20.327  0.00  0.00    +0.000 A 
ATOM     19  C   UNL     1       2.562   7.282  19.256  0.00  0.00    +0.000 A 
ATOM     20  C   UNL     1       2.453   7.867  17.980  0.00  0.00    +0.000 A 
ATOM     21  C   UNL     1       1.647   8.998  17.791  0.00  0.00    +0.000 A 
ENDBRANCH  14  19
ENDBRANCH   1  14
TORSDOF 3
ENDMDL
MODEL 9
REMARK VINA RESULT:      -7.1      1.794      3.852
REMARK  Name = 
REMARK  3 active torsions:
REMARK  status: ('A' for Active; 'I' for Inactive)
REMARK    1  A    between atoms: C_5  and  S_6
REMARK    2  A    between atoms: S_6  and  C_7
REMARK    3  A    between atoms: C_12  and  N_13
REMARK                            x       y       z     vdW  Elec       q    Type
REMARK                         _______ _______ _______ _____ _____    ______ ____
ROOT
ATOM      1  C   UNL     1       4.204   5.697  18.051  0.00  0.00    +0.000 A 
ATOM      2  C   UNL     1       5.131   6.699  17.712  0.00  0.00    +0.000 A 
ATOM      3  C   UNL     1       5.905   6.603  16.558  0.00  0.00    +0.000 A 
ATOM      4  C   UNL     1       5.781   5.495  15.733  0.00  0.00    +0.000 A 
ATOM      5  C   UNL     1       4.879   4.481  16.052  0.00  0.00    +0.000 A 
ATOM      6  C   UNL     1       4.063   4.546  17.207  0.00  0.00    +0.000 A 
ENDROOT
BRANCH   6   7
ATOM      7  N   UNL     1       3.145   3.455  17.459  0.00  0.00    +0.000 N 
ATOM      8  C   UNL     1       3.611   2.089  17.677  0.00  0.00    +0.000 C 
ATOM      9  C   UNL     1       3.002   1.561  18.983  0.00  0.00    +0.000 C 
ATOM     10  N   UNL     1       1.537   1.669  18.940  0.00  0.00    +0.000 NA
ATOM     11  C   UNL     1       1.119   3.066  18.751  0.00  0.00    +0.000 C 
ATOM     12  C   UNL     1       1.697   3.595  17.435  0.00  0.00    +0.000 C 
ATOM     13  H   UNL     1       1.142   1.316  19.843  0.00  0.00    +0.000 HD
ENDBRANCH   6   7
BRANCH   1  14
ATOM     14  S   UNL     1       3.400   5.913  19.660  0.00  0.00    +0.000 S 
BRANCH  14  19
ATOM     15  F   UNL     1       0.124  10.775  18.497  0.00  0.00    +0.000 F 
ATOM     16  C   UNL     1       0.864   9.678  18.793  0.00  0.00    +0.000 A 
ATOM     17  C   UNL     1       1.563   9.017  17.781  0.00  0.00    +0.000 A 
ATOM     18  C   UNL     1       2.324   7.885  18.083  0.00  0.00    +0.000 A 
ATOM     19  C   UNL     1       2.397   7.398  19.396  0.00  0.00    +0.000 A 
ATOM     20  C   UNL     1       1.689   8.068  20.412  0.00  0.00    +0.000 A 
ATOM     21  C   UNL     1       0.928   9.205  20.107  0.00  0.00    +0.000 A 
ENDBRANCH  14  19
ENDBRANCH   1  14
TORSDOF 3
ENDMDL
