MODEL 1
REMARK VINA RESULT:      -7.1      0.000      0.000
REMARK  Name = 
REMARK  4 active torsions:
REMARK  status: ('A' for Active; 'I' for Inactive)
REMARK    1  A    between atoms: C_1  and  C_2
REMARK    2  A    between atoms: C_2  and  C_3
REMARK    3  A    between atoms: C_3  and  C_4
REMARK    4  A    between atoms: C_11  and  C_12
REMARK                            x       y       z     vdW  Elec       q    Type
REMARK                         _______ _______ _______ _____ _____    ______ ____
ROOT
ATOM      1  C   UNL     1       2.655   4.370  19.411  0.00  0.00    +0.000 A 
ATOM      2  N   UNL     1       1.858   4.069  20.472  0.00  0.00    +0.000 NA
ATOM      3  C   UNL     1       2.210   3.058  21.257  0.00  0.00    +0.000 A 
ATOM      4  N   UNL     1       1.399   2.763  22.330  0.00  0.00    +0.000 N 
ATOM      5  N   UNL     1       3.269   2.287  21.045  0.00  0.00    +0.000 NA
ATOM      6  C   UNL     1       4.066   2.606  20.011  0.00  0.00    +0.000 A 
ATOM      7  N   UNL     1       5.146   1.725  19.877  0.00  0.00    +0.000 N 
ATOM      8  C   UNL     1       3.843   3.675  19.125  0.00  0.00    +0.000 A 
ATOM      9  H   UNL     1       0.466   3.107  22.155  0.00  0.00    +0.000 HD
ATOM     10  H   UNL     1       1.493   1.783  22.565  0.00  0.00    +0.000 HD
ATOM     11  H   UNL     1       5.102   1.079  20.664  0.00  0.00    +0.000 HD
ATOM     12  H   UNL     1       6.033   2.217  19.838  0.00  0.00    +0.000 HD
ENDROOT
BRANCH   8  13
ATOM     13  C   UNL     1       4.773   4.001  17.999  0.00  0.00    +0.000 A 
ATOM     14  C   UNL     1       4.464   3.676  16.661  0.00  0.00    +0.000 A 
ATOM     15  C   UNL     1       5.324   3.987  15.599  0.00  0.00    +0.000 A 
ATOM     16  C   UNL     1       6.492   4.696  15.842  0.00  0.00    +0.000 A 
ATOM     17 CL   UNL     1       7.521   5.139  14.537  0.00  0.00    +0.000 Cl
ATOM     18  C   UNL     1       6.830   5.044  17.141  0.00  0.00    +0.000 A 
ATOM     19  C   UNL     1       6.003   4.657  18.205  0.00  0.00    +0.000 A 
ENDBRANCH   8  13
BRANCH   1  20
ATOM     20  C   UNL     1       2.098   5.519  18.598  0.00  0.00    +0.000 C 
BRANCH  20  22
ATOM     21  C   UNL     1       3.374   7.487  17.692  0.00  0.00    +0.000 C 
ATOM     22  C   UNL     1       2.703   6.886  18.919  0.00  0.00    +0.000 C 
ENDBRANCH  20  22
ENDBRANCH   1  20
TORSDOF 3
ENDMDL
MODEL 2
REMARK VINA RESULT:      -7.1      0.101      1.134
REMARK  Name = 
REMARK  4 active torsions:
REMARK  status: ('A' for Active; 'I' for Inactive)
REMARK    1  A    between atoms: C_1  and  C_2
REMARK    2  A    between atoms: C_2  and  C_3
REMARK    3  A    between atoms: C_3  and  C_4
REMARK    4  A    between atoms: C_11  and  C_12
REMARK                            x       y       z     vdW  Elec       q    Type
REMARK                         _______ _______ _______ _____ _____    ______ ____
ROOT
ATOM      1  C   UNL     1       2.581   4.412  19.451  0.00  0.00    +0.000 A 
ATOM      2  N   UNL     1       1.807   4.079  20.520  0.00  0.00    +0.000 NA
ATOM      3  C   UNL     1       2.188   3.060  21.281  0.00  0.00    +0.000 A 
ATOM      4  N   UNL     1       1.399   2.734  22.362  0.00  0.00    +0.000 N 
ATOM      5  N   UNL     1       3.255   2.309  21.037  0.00  0.00    +0.000 NA
ATOM      6  C   UNL     1       4.028   2.659  19.996  0.00  0.00    +0.000 A 
ATOM      7  N   UNL     1       5.120   1.797  19.828  0.00  0.00    +0.000 N 
ATOM      8  C   UNL     1       3.774   3.740  19.133  0.00  0.00    +0.000 A 
ATOM      9  H   UNL     1       0.459   3.067  22.208  0.00  0.00    +0.000 HD
ATOM     10  H   UNL     1       1.512   1.751  22.578  0.00  0.00    +0.000 HD
ATOM     11  H   UNL     1       5.098   1.137  20.603  0.00  0.00    +0.000 HD
ATOM     12  H   UNL     1       5.997   2.303  19.782  0.00  0.00    +0.000 HD
ENDROOT
BRANCH   8  13
ATOM     13  C   UNL     1       4.680   4.101  17.997  0.00  0.00    +0.000 A 
ATOM     14  C   UNL     1       5.908   4.762  18.207  0.00  0.00    +0.000 A 
ATOM     15  C   UNL     1       6.768   5.095  17.151  0.00  0.00    +0.000 A 
ATOM     16  C   UNL     1       6.449   4.712  15.855  0.00  0.00    +0.000 A 
ATOM     17 CL   UNL     1       7.528   5.058  14.563  0.00  0.00    +0.000 Cl
ATOM     18  C   UNL     1       5.255   4.053  15.605  0.00  0.00    +0.000 A 
ATOM     19  C   UNL     1       4.365   3.797  16.658  0.00  0.00    +0.000 A 
ENDBRANCH   8  13
BRANCH   1  20
ATOM     20  C   UNL     1       1.993   5.566  18.669  0.00  0.00    +0.000 C 
BRANCH  20  22
ATOM     21  C   UNL     1       3.271   7.536  17.769  0.00  0.00    +0.000 C 
ATOM     22  C   UNL     1       2.595   6.934  18.993  0.00  0.00    +0.000 C 
ENDBRANCH  20  22
ENDBRANCH   1  20
TORSDOF 3
ENDMDL
MODEL 3
REMARK VINA RESULT:      -6.7      3.691      5.741
REMARK  Name = 
REMARK  4 active torsions:
REMARK  status: ('A' for Active; 'I' for Inactive)
REMARK    1  A    between atoms: C_1  and  C_2
REMARK    2  A    between atoms: C_2  and  C_3
REMARK    3  A    between atoms: C_3  and  C_4
REMARK    4  A    between atoms: C_11  and  C_12
REMARK                            x       y       z     vdW  Elec       q    Type
REMARK                         _______ _______ _______ _____ _____    ______ ____
ROOT
ATOM      1  C   UNL     1       2.904   4.771  17.567  0.00  0.00    +0.000 A 
ATOM      2  N   UNL     1       3.658   3.786  17.007  0.00  0.00    +0.000 NA
ATOM      3  C   UNL     1       4.920   4.058  16.698  0.00  0.00    +0.000 A 
ATOM      4  N   UNL     1       5.676   3.054  16.134  0.00  0.00    +0.000 N 
ATOM      5  N   UNL     1       5.483   5.250  16.855  0.00  0.00    +0.000 NA
ATOM      6  C   UNL     1       4.741   6.210  17.432  0.00  0.00    +0.000 A 
ATOM      7  N   UNL     1       5.431   7.424  17.542  0.00  0.00    +0.000 N 
ATOM      8  C   UNL     1       3.408   6.052  17.852  0.00  0.00    +0.000 A 
ATOM      9  H   UNL     1       5.068   2.378  15.694  0.00  0.00    +0.000 HD
ATOM     10  H   UNL     1       6.405   3.461  15.563  0.00  0.00    +0.000 HD
ATOM     11  H   UNL     1       6.379   7.257  17.212  0.00  0.00    +0.000 HD
ATOM     12  H   UNL     1       5.415   7.783  18.491  0.00  0.00    +0.000 HD
ENDROOT
BRANCH   8  13
ATOM     13  C   UNL     1       2.631   7.148  18.510  0.00  0.00    +0.000 A 
ATOM     14  C   UNL     1       2.141   8.252  17.781  0.00  0.00    +0.000 A 
ATOM     15  C   UNL     1       1.402   9.279  18.385  0.00  0.00    +0.000 A 
ATOM     16  C   UNL     1       1.077   9.193  19.732  0.00  0.00    +0.000 A 
ATOM     17 CL   UNL     1       0.117  10.415  20.467  0.00  0.00    +0.000 Cl
ATOM     18  C   UNL     1       1.531   8.121  20.484  0.00  0.00    +0.000 A 
ATOM     19  C   UNL     1       2.336   7.141  19.888  0.00  0.00    +0.000 A 
ENDBRANCH   8  13
BRANCH   1  20
ATOM     20  C   UNL     1       1.485   4.313  17.826  0.00  0.00    +0.000 C 
BRANCH  20  22
ATOM     21  C   UNL     1       0.944   3.713  20.207  0.00  0.00    +0.000 C 
ATOM     22  C   UNL     1       1.351   3.178  18.842  0.00  0.00    +0.000 C 
ENDBRANCH  20  22
ENDBRANCH   1  20
TORSDOF 3
ENDMDL
MODEL 4
REMARK VINA RESULT:      -6.7      3.684      5.786
REMARK  Name = 
REMARK  4 active torsions:
REMARK  status: ('A' for Active; 'I' for Inactive)
REMARK    1  A    between atoms: C_1  and  C_2
REMARK    2  A    between atoms: C_2  and  C_3
REMARK    3  A    between atoms: C_3  and  C_4
REMARK    4  A    between atoms: C_11  and  C_12
REMARK                            x       y       z     vdW  Elec       q    Type
REMARK                         _______ _______ _______ _____ _____    ______ ____
ROOT
ATOM      1  C   UNL     1       2.904   4.745  17.554  0.00  0.00    +0.000 A 
ATOM      2  N   UNL     1       3.677   3.771  17.000  0.00  0.00    +0.000 NA
ATOM      3  C   UNL     1       4.933   4.064  16.689  0.00  0.00    +0.000 A 
ATOM      4  N   UNL     1       5.708   3.070  16.132  0.00  0.00    +0.000 N 
ATOM      5  N   UNL     1       5.474   5.267  16.838  0.00  0.00    +0.000 NA
ATOM      6  C   UNL     1       4.714   6.217  17.409  0.00  0.00    +0.000 A 
ATOM      7  N   UNL     1       5.381   7.444  17.511  0.00  0.00    +0.000 N 
ATOM      8  C   UNL     1       3.384   6.037  17.830  0.00  0.00    +0.000 A 
ATOM      9  H   UNL     1       5.112   2.381  15.697  0.00  0.00    +0.000 HD
ATOM     10  H   UNL     1       6.430   3.487  15.558  0.00  0.00    +0.000 HD
ATOM     11  H   UNL     1       6.332   7.293  17.182  0.00  0.00    +0.000 HD
ATOM     12  H   UNL     1       5.358   7.809  18.457  0.00  0.00    +0.000 HD
ENDROOT
BRANCH   8  13
ATOM     13  C   UNL     1       2.586   7.123  18.480  0.00  0.00    +0.000 A 
ATOM     14  C   UNL     1       2.299   7.110  19.861  0.00  0.00    +0.000 A 
ATOM     15  C   UNL     1       1.561   8.128  20.481  0.00  0.00    +0.000 A 
ATOM     16  C   UNL     1       1.146   9.227  19.741  0.00  0.00    +0.000 A 
ATOM     17 CL   UNL     1       0.297  10.511  20.507  0.00  0.00    +0.000 Cl
ATOM     18  C   UNL     1       1.415   9.285  18.383  0.00  0.00    +0.000 A 
ATOM     19  C   UNL     1       2.083   8.223  17.757  0.00  0.00    +0.000 A 
ENDBRANCH   8  13
BRANCH   1  20
ATOM     20  C   UNL     1       1.494   4.262  17.815  0.00  0.00    +0.000 C 
BRANCH  20  22
ATOM     21  C   UNL     1       0.943   3.700  20.204  0.00  0.00    +0.000 C 
ATOM     22  C   UNL     1       1.379   3.146  18.854  0.00  0.00    +0.000 C 
ENDBRANCH  20  22
ENDBRANCH   1  20
TORSDOF 3
ENDMDL
MODEL 5
REMARK VINA RESULT:      -6.6      2.787      4.809
REMARK  Name = 
REMARK  4 active torsions:
REMARK  status: ('A' for Active; 'I' for Inactive)
REMARK    1  A    between atoms: C_1  and  C_2
REMARK    2  A    between atoms: C_2  and  C_3
REMARK    3  A    between atoms: C_3  and  C_4
REMARK    4  A    between atoms: C_11  and  C_12
REMARK                            x       y       z     vdW  Elec       q    Type
REMARK                         _______ _______ _______ _____ _____    ______ ____
ROOT
ATOM      1  C   UNL     1       4.660   4.888  19.279  0.00  0.00    +0.000 A 
ATOM      2  N   UNL     1       5.200   3.644  19.400  0.00  0.00    +0.000 NA
ATOM      3  C   UNL     1       4.388   2.627  19.661  0.00  0.00    +0.000 A 
ATOM      4  N   UNL     1       4.943   1.373  19.778  0.00  0.00    +0.000 N 
ATOM      5  N   UNL     1       3.082   2.753  19.861  0.00  0.00    +0.000 NA
ATOM      6  C   UNL     1       2.551   3.978  19.714  0.00  0.00    +0.000 A 
ATOM      7  N   UNL     1       1.171   3.996  19.954  0.00  0.00    +0.000 N 
ATOM      8  C   UNL     1       3.282   5.137  19.395  0.00  0.00    +0.000 A 
ATOM      9  H   UNL     1       5.920   1.456  20.021  0.00  0.00    +0.000 HD
ATOM     10  H   UNL     1       4.364   0.802  20.381  0.00  0.00    +0.000 HD
ATOM     11  H   UNL     1       0.887   3.031  20.116  0.00  0.00    +0.000 HD
ATOM     12  H   UNL     1       0.660   4.420  19.187  0.00  0.00    +0.000 HD
ENDROOT
BRANCH   8  13
ATOM     13  C   UNL     1       2.639   6.478  19.222  0.00  0.00    +0.000 A 
ATOM     14  C   UNL     1       2.102   7.191  20.315  0.00  0.00    +0.000 A 
ATOM     15  C   UNL     1       1.508   8.452  20.165  0.00  0.00    +0.000 A 
ATOM     16  C   UNL     1       1.496   9.065  18.919  0.00  0.00    +0.000 A 
ATOM     17 CL   UNL     1       0.828  10.639  18.739  0.00  0.00    +0.000 Cl
ATOM     18  C   UNL     1       2.021   8.403  17.820  0.00  0.00    +0.000 A 
ATOM     19  C   UNL     1       2.540   7.109  17.966  0.00  0.00    +0.000 A 
ENDBRANCH   8  13
BRANCH   1  20
ATOM     20  C   UNL     1       5.719   5.937  19.018  0.00  0.00    +0.000 C 
BRANCH  20  22
ATOM     21  C   UNL     1       7.341   6.984  17.407  0.00  0.00    +0.000 C 
ATOM     22  C   UNL     1       6.102   6.112  17.548  0.00  0.00    +0.000 C 
ENDBRANCH  20  22
ENDBRANCH   1  20
TORSDOF 3
ENDMDL
MODEL 6
REMARK VINA RESULT:      -6.6      2.790      4.733
REMARK  Name = 
REMARK  4 active torsions:
REMARK  status: ('A' for Active; 'I' for Inactive)
REMARK    1  A    between atoms: C_1  and  C_2
REMARK    2  A    between atoms: C_2  and  C_3
REMARK    3  A    between atoms: C_3  and  C_4
REMARK    4  A    between atoms: C_11  and  C_12
REMARK                            x       y       z     vdW  Elec       q    Type
REMARK                         _______ _______ _______ _____ _____    ______ ____
ROOT
ATOM      1  C   UNL     1       4.733   4.876  19.286  0.00  0.00    +0.000 A 
ATOM      2  N   UNL     1       5.244   3.620  19.405  0.00  0.00    +0.000 NA
ATOM      3  C   UNL     1       4.405   2.617  19.633  0.00  0.00    +0.000 A 
ATOM      4  N   UNL     1       4.932   1.350  19.749  0.00  0.00    +0.000 N 
ATOM      5  N   UNL     1       3.097   2.767  19.802  0.00  0.00    +0.000 NA
ATOM      6  C   UNL     1       2.596   4.005  19.657  0.00  0.00    +0.000 A 
ATOM      7  N   UNL     1       1.211   4.048  19.862  0.00  0.00    +0.000 N 
ATOM      8  C   UNL     1       3.357   5.153  19.371  0.00  0.00    +0.000 A 
ATOM      9  H   UNL     1       5.904   1.411  20.018  0.00  0.00    +0.000 HD
ATOM     10  H   UNL     1       4.326   0.784  20.330  0.00  0.00    +0.000 HD
ATOM     11  H   UNL     1       0.903   3.088  20.005  0.00  0.00    +0.000 HD
ATOM     12  H   UNL     1       0.728   4.492  19.088  0.00  0.00    +0.000 HD
ENDROOT
BRANCH   8  13
ATOM     13  C   UNL     1       2.747   6.508  19.199  0.00  0.00    +0.000 A 
ATOM     14  C   UNL     1       2.732   7.163  17.949  0.00  0.00    +0.000 A 
ATOM     15  C   UNL     1       2.153   8.429  17.776  0.00  0.00    +0.000 A 
ATOM     16  C   UNL     1       1.512   9.045  18.842  0.00  0.00    +0.000 A 
ATOM     17 CL   UNL     1       0.743  10.567  18.623  0.00  0.00    +0.000 Cl
ATOM     18  C   UNL     1       1.496   8.432  20.085  0.00  0.00    +0.000 A 
ATOM     19  C   UNL     1       2.147   7.205  20.267  0.00  0.00    +0.000 A 
ENDBRANCH   8  13
BRANCH   1  20
ATOM     20  C   UNL     1       5.819   5.906  19.066  0.00  0.00    +0.000 C 
BRANCH  20  22
ATOM     21  C   UNL     1       7.367   7.111  17.491  0.00  0.00    +0.000 C 
ATOM     22  C   UNL     1       6.259   6.074  17.611  0.00  0.00    +0.000 C 
ENDBRANCH  20  22
ENDBRANCH   1  20
TORSDOF 3
ENDMDL
MODEL 7
REMARK VINA RESULT:      -6.5      1.300      1.551
REMARK  Name = 
REMARK  4 active torsions:
REMARK  status: ('A' for Active; 'I' for Inactive)
REMARK    1  A    between atoms: C_1  and  C_2
REMARK    2  A    between atoms: C_2  and  C_3
REMARK    3  A    between atoms: C_3  and  C_4
REMARK    4  A    between atoms: C_11  and  C_12
REMARK                            x       y       z     vdW  Elec       q    Type
REMARK                         _______ _______ _______ _____ _____    ______ ____
ROOT
ATOM      1  C   UNL     1       3.102   5.252  18.402  0.00  0.00    +0.000 A 
ATOM      2  N   UNL     1       2.190   5.051  19.392  0.00  0.00    +0.000 NA
ATOM      3  C   UNL     1       1.972   3.808  19.804  0.00  0.00    +0.000 A 
ATOM      4  N   UNL     1       1.049   3.616  20.808  0.00  0.00    +0.000 N 
ATOM      5  N   UNL     1       2.553   2.738  19.277  0.00  0.00    +0.000 NA
ATOM      6  C   UNL     1       3.472   2.946  18.319  0.00  0.00    +0.000 A 
ATOM      7  N   UNL     1       4.015   1.750  17.832  0.00  0.00    +0.000 N 
ATOM      8  C   UNL     1       3.838   4.207  17.816  0.00  0.00    +0.000 A 
ATOM      9  H   UNL     1       0.403   4.392  20.828  0.00  0.00    +0.000 HD
ATOM     10  H   UNL     1       0.654   2.687  20.730  0.00  0.00    +0.000 HD
ATOM     11  H   UNL     1       3.620   0.996  18.390  0.00  0.00    +0.000 HD
ATOM     12  H   UNL     1       5.029   1.756  17.862  0.00  0.00    +0.000 HD
ENDROOT
BRANCH   8  13
ATOM     13  C   UNL     1       4.883   4.387  16.761  0.00  0.00    +0.000 A 
ATOM     14  C   UNL     1       4.584   4.257  15.388  0.00  0.00    +0.000 A 
ATOM     15  C   UNL     1       5.554   4.434  14.391  0.00  0.00    +0.000 A 
ATOM     16  C   UNL     1       6.842   4.812  14.743  0.00  0.00    +0.000 A 
ATOM     17 CL   UNL     1       8.021   5.094  13.524  0.00  0.00    +0.000 Cl
ATOM     18  C   UNL     1       7.178   4.958  16.080  0.00  0.00    +0.000 A 
ATOM     19  C   UNL     1       6.221   4.701  17.072  0.00  0.00    +0.000 A 
ENDBRANCH   8  13
BRANCH   1  20
ATOM     20  C   UNL     1       3.207   6.714  18.023  0.00  0.00    +0.000 C 
BRANCH  20  22
ATOM     21  C   UNL     1       1.846   8.824  17.896  0.00  0.00    +0.000 C 
ATOM     22  C   UNL     1       2.244   7.641  18.766  0.00  0.00    +0.000 C 
ENDBRANCH  20  22
ENDBRANCH   1  20
TORSDOF 3
ENDMDL
MODEL 8
REMARK VINA RESULT:      -6.4      3.020      4.863
REMARK  Name = 
REMARK  4 active torsions:
REMARK  status: ('A' for Active; 'I' for Inactive)
REMARK    1  A    between atoms: C_1  and  C_2
REMARK    2  A    between atoms: C_2  and  C_3
REMARK    3  A    between atoms: C_3  and  C_4
REMARK    4  A    between atoms: C_11  and  C_12
REMARK                            x       y       z     vdW  Elec       q    Type
REMARK                         _______ _______ _______ _____ _____    ______ ____
ROOT
ATOM      1  C   UNL     1       2.695   4.160  20.052  0.00  0.00    +0.000 A 
ATOM      2  N   UNL     1       3.320   2.970  20.260  0.00  0.00    +0.000 NA
ATOM      3  C   UNL     1       4.591   2.853  19.893  0.00  0.00    +0.000 A 
ATOM      4  N   UNL     1       5.216   1.645  20.110  0.00  0.00    +0.000 N 
ATOM      5  N   UNL     1       5.280   3.812  19.288  0.00  0.00    +0.000 NA
ATOM      6  C   UNL     1       4.665   4.994  19.109  0.00  0.00    +0.000 A 
ATOM      7  N   UNL     1       5.480   5.928  18.458  0.00  0.00    +0.000 N 
ATOM      8  C   UNL     1       3.340   5.275  19.489  0.00  0.00    +0.000 A 
ATOM      9  H   UNL     1       4.524   0.912  20.170  0.00  0.00    +0.000 HD
ATOM     10  H   UNL     1       5.961   1.525  19.436  0.00  0.00    +0.000 HD
ATOM     11  H   UNL     1       6.393   5.492  18.339  0.00  0.00    +0.000 HD
ATOM     12  H   UNL     1       5.538   6.801  18.971  0.00  0.00    +0.000 HD
ENDROOT
BRANCH   8  13
ATOM     13  C   UNL     1       2.706   6.615  19.285  0.00  0.00    +0.000 A 
ATOM     14  C   UNL     1       2.642   7.222  18.013  0.00  0.00    +0.000 A 
ATOM     15  C   UNL     1       2.041   8.473  17.811  0.00  0.00    +0.000 A 
ATOM     16  C   UNL     1       1.426   9.122  18.873  0.00  0.00    +0.000 A 
ATOM     17 CL   UNL     1       0.630  10.625  18.622  0.00  0.00    +0.000 Cl
ATOM     18  C   UNL     1       1.458   8.557  20.139  0.00  0.00    +0.000 A 
ATOM     19  C   UNL     1       2.132   7.345  20.345  0.00  0.00    +0.000 A 
ENDBRANCH   8  13
BRANCH   1  20
ATOM     20  C   UNL     1       1.247   4.118  20.490  0.00  0.00    +0.000 C 
BRANCH  20  22
ATOM     21  C   UNL     1       0.607   2.507  18.668  0.00  0.00    +0.000 C 
ATOM     22  C   UNL     1       0.512   2.819  20.154  0.00  0.00    +0.000 C 
ENDBRANCH  20  22
ENDBRANCH   1  20
TORSDOF 3
ENDMDL
MODEL 9
REMARK VINA RESULT:      -6.4      3.567      5.747
REMARK  Name = 
REMARK  4 active torsions:
REMARK  status: ('A' for Active; 'I' for Inactive)
REMARK    1  A    between atoms: C_1  and  C_2
REMARK    2  A    between atoms: C_2  and  C_3
REMARK    3  A    between atoms: C_3  and  C_4
REMARK    4  A    between atoms: C_11  and  C_12
REMARK                            x       y       z     vdW  Elec       q    Type
REMARK                         _______ _______ _______ _____ _____    ______ ____
ROOT
ATOM      1  C   UNL     1       5.075   6.150  17.251  0.00  0.00    +0.000 A 
ATOM      2  N   UNL     1       5.804   5.188  16.624  0.00  0.00    +0.000 NA
ATOM      3  C   UNL     1       5.237   4.007  16.409  0.00  0.00    +0.000 A 
ATOM      4  N   UNL     1       5.982   3.041  15.770  0.00  0.00    +0.000 N 
ATOM      5  N   UNL     1       4.013   3.687  16.812  0.00  0.00    +0.000 NA
ATOM      6  C   UNL     1       3.290   4.649  17.407  0.00  0.00    +0.000 A 
ATOM      7  N   UNL     1       2.021   4.201  17.796  0.00  0.00    +0.000 N 
ATOM      8  C   UNL     1       3.744   5.957  17.659  0.00  0.00    +0.000 A 
ATOM      9  H   UNL     1       6.965   3.236  15.891  0.00  0.00    +0.000 HD
ATOM     10  H   UNL     1       5.655   2.124  16.048  0.00  0.00    +0.000 HD
ATOM     11  H   UNL     1       1.928   3.245  17.458  0.00  0.00    +0.000 HD
ATOM     12  H   UNL     1       1.284   4.803  17.445  0.00  0.00    +0.000 HD
ENDROOT
BRANCH   8  13
ATOM     13  C   UNL     1       2.890   7.000  18.309  0.00  0.00    +0.000 A 
ATOM     14  C   UNL     1       2.521   6.918  19.668  0.00  0.00    +0.000 A 
ATOM     15  C   UNL     1       1.730   7.896  20.288  0.00  0.00    +0.000 A 
ATOM     16  C   UNL     1       1.341   9.022  19.575  0.00  0.00    +0.000 A 
ATOM     17 CL   UNL     1       0.426  10.257  20.345  0.00  0.00    +0.000 Cl
ATOM     18  C   UNL     1       1.689   9.147  18.239  0.00  0.00    +0.000 A 
ATOM     19  C   UNL     1       2.412   8.125  17.607  0.00  0.00    +0.000 A 
ENDBRANCH   8  13
BRANCH   1  20
ATOM     20  C   UNL     1       5.875   7.419  17.452  0.00  0.00    +0.000 C 
BRANCH  20  22
ATOM     21  C   UNL     1       8.096   8.522  17.867  0.00  0.00    +0.000 C 
ATOM     22  C   UNL     1       7.390   7.221  17.516  0.00  0.00    +0.000 C 
ENDBRANCH  20  22
ENDBRANCH   1  20
TORSDOF 3
ENDMDL
