MODEL 1
REMARK VINA RESULT:      -6.0      0.000      0.000
REMARK  Name = 
REMARK  10 active torsions:
REMARK  status: ('A' for Active; 'I' for Inactive)
REMARK    1  A    between atoms: C_1  and  N_2
REMARK    2  A    between atoms: C_4  and  C_5
REMARK    3  A    between atoms: C_8  and  C_9
REMARK    4  A    between atoms: C_9  and  C_21
REMARK    5  A    between atoms: C_10  and  C_11
REMARK    6  A    between atoms: C_10  and  C_15
REMARK    7  A    between atoms: C_11  and  C_12
REMARK    8  A    between atoms: C_12  and  C_13
REMARK    9  A    between atoms: C_13  and  O_14
REMARK   10  A    between atoms: C_24  and  O_25
REMARK                            x       y       z     vdW  Elec       q    Type
REMARK                         _______ _______ _______ _____ _____    ______ ____
ROOT
ATOM      1  C   UNL     1      -0.177  11.902  19.662  0.00  0.00    +0.000 C 
ATOM      2  C   UNL     1       0.600  13.026  19.729  0.00  0.00    +0.000 C 
ENDROOT
BRANCH   1   6
ATOM      3  C   UNL     1      -4.457  12.144  19.078  0.00  0.00    +0.000 A 
ATOM      4  C   UNL     1      -3.606  11.655  18.074  0.00  0.00    +0.000 A 
ATOM      5  C   UNL     1      -2.225  11.572  18.281  0.00  0.00    +0.000 A 
ATOM      6  C   UNL     1      -1.657  11.984  19.494  0.00  0.00    +0.000 A 
ATOM      7  C   UNL     1      -2.496  12.460  20.514  0.00  0.00    +0.000 A 
ATOM      8  C   UNL     1      -3.883  12.536  20.311  0.00  0.00    +0.000 A 
BRANCH   3  12
ATOM      9  C   UNL     1      -7.667  14.479  16.972  0.00  0.00    +0.000 C 
ATOM     10  N   UNL     1      -6.429  13.914  17.531  0.00  0.00    +0.000 NA
ATOM     11  C   UNL     1      -6.503  13.643  18.975  0.00  0.00    +0.000 C 
ATOM     12  C   UNL     1      -5.956  12.233  18.787  0.00  0.00    +0.000 C 
ATOM     13  C   UNL     1      -6.282  12.467  17.312  0.00  0.00    +0.000 C 
ENDBRANCH   3  12
ENDBRANCH   1   6
BRANCH   2  14
ATOM     14  C   UNL     1       0.021  14.387  19.740  0.00  0.00    +0.000 A 
ATOM     15  C   UNL     1      -0.241  15.014  20.968  0.00  0.00    +0.000 A 
ATOM     16  C   UNL     1      -0.704  16.332  21.002  0.00  0.00    +0.000 A 
ATOM     17  C   UNL     1      -0.910  17.031  19.809  0.00  0.00    +0.000 A 
ATOM     18  C   UNL     1      -0.657  16.410  18.582  0.00  0.00    +0.000 A 
ATOM     19  C   UNL     1      -0.189  15.090  18.544  0.00  0.00    +0.000 A 
ENDBRANCH   2  14
BRANCH   1  20
ATOM     20  C   UNL     1       0.447  10.564  19.767  0.00  0.00    +0.000 A 
ATOM     21  C   UNL     1       0.499   9.938  21.022  0.00  0.00    +0.000 A 
ATOM     22  C   UNL     1       1.145   8.709  21.175  0.00  0.00    +0.000 A 
ATOM     23  C   UNL     1       1.748   8.091  20.072  0.00  0.00    +0.000 A 
ATOM     24  C   UNL     1       1.684   8.701  18.811  0.00  0.00    +0.000 A 
ATOM     25  C   UNL     1       1.036   9.938  18.657  0.00  0.00    +0.000 A 
BRANCH  23  26
ATOM     26  O   UNL     1       2.398   6.917  20.212  0.00  0.00    +0.000 OA
ATOM     27  H   UNL     1       3.339   6.822  20.005  0.00  0.00    +0.000 HD
ENDBRANCH  23  26
ENDBRANCH   1  20
BRANCH   2  28
ATOM     28  C   UNL     1       2.124  12.972  19.746  0.00  0.00    +0.000 C 
BRANCH  28  29
ATOM     29  C   UNL     1       2.764  13.170  18.368  0.00  0.00    +0.000 C 
BRANCH  29  30
ATOM     30  C   UNL     1       3.584  14.471  18.317  0.00  0.00    +0.000 C 
BRANCH  30  31
ATOM     31  O   UNL     1       4.821  14.276  17.682  0.00  0.00    +0.000 OA
ATOM     32  H   UNL     1       4.743  14.670  16.776  0.00  0.00    +0.000 HD
ENDBRANCH  30  31
ENDBRANCH  29  30
ENDBRANCH  28  29
ENDBRANCH   2  28
TORSDOF 9
ENDMDL
MODEL 2
REMARK VINA RESULT:      -5.9      3.526      7.268
REMARK  Name = 
REMARK  10 active torsions:
REMARK  status: ('A' for Active; 'I' for Inactive)
REMARK    1  A    between atoms: C_1  and  N_2
REMARK    2  A    between atoms: C_4  and  C_5
REMARK    3  A    between atoms: C_8  and  C_9
REMARK    4  A    between atoms: C_9  and  C_21
REMARK    5  A    between atoms: C_10  and  C_11
REMARK    6  A    between atoms: C_10  and  C_15
REMARK    7  A    between atoms: C_11  and  C_12
REMARK    8  A    between atoms: C_12  and  C_13
REMARK    9  A    between atoms: C_13  and  O_14
REMARK   10  A    between atoms: C_24  and  O_25
REMARK                            x       y       z     vdW  Elec       q    Type
REMARK                         _______ _______ _______ _____ _____    ______ ____
ROOT
ATOM      1  C   UNL     1       1.085  11.991  18.924  0.00  0.00    +0.000 C 
ATOM      2  C   UNL     1      -0.152  12.468  18.590  0.00  0.00    +0.000 C 
ENDROOT
BRANCH   1   6
ATOM      3  C   UNL     1       1.964   7.757  18.799  0.00  0.00    +0.000 A 
ATOM      4  C   UNL     1       2.294   8.606  17.731  0.00  0.00    +0.000 A 
ATOM      5  C   UNL     1       2.015   9.976  17.791  0.00  0.00    +0.000 A 
ATOM      6  C   UNL     1       1.388  10.530  18.915  0.00  0.00    +0.000 A 
ATOM      7  C   UNL     1       1.065   9.697  19.997  0.00  0.00    +0.000 A 
ATOM      8  C   UNL     1       1.353   8.324  19.943  0.00  0.00    +0.000 A 
BRANCH   3  12
ATOM      9  C   UNL     1       5.164   4.619  19.115  0.00  0.00    +0.000 C 
ATOM     10  N   UNL     1       4.335   5.834  19.104  0.00  0.00    +0.000 NA
ATOM     11  C   UNL     1       3.546   6.000  17.874  0.00  0.00    +0.000 C 
ATOM     12  C   UNL     1       2.273   6.264  18.669  0.00  0.00    +0.000 C 
ATOM     13  C   UNL     1       3.071   5.700  19.844  0.00  0.00    +0.000 C 
ENDBRANCH   3  12
ENDBRANCH   1   6
BRANCH   2  14
ATOM     14  C   UNL     1      -1.292  11.572  18.296  0.00  0.00    +0.000 A 
ATOM     15  C   UNL     1      -2.523  11.794  18.932  0.00  0.00    +0.000 A 
ATOM     16  C   UNL     1      -3.637  11.015  18.603  0.00  0.00    +0.000 A 
ATOM     17  C   UNL     1      -3.526  10.010  17.639  0.00  0.00    +0.000 A 
ATOM     18  C   UNL     1      -2.300   9.780  17.006  0.00  0.00    +0.000 A 
ATOM     19  C   UNL     1      -1.183  10.561  17.330  0.00  0.00    +0.000 A 
ENDBRANCH   2  14
BRANCH   1  20
ATOM     20  C   UNL     1       2.160  12.931  19.316  0.00  0.00    +0.000 A 
ATOM     21  C   UNL     1       2.315  13.250  20.674  0.00  0.00    +0.000 A 
ATOM     22  C   UNL     1       3.269  14.190  21.076  0.00  0.00    +0.000 A 
ATOM     23  C   UNL     1       4.078  14.820  20.122  0.00  0.00    +0.000 A 
ATOM     24  C   UNL     1       3.941  14.492  18.766  0.00  0.00    +0.000 A 
ATOM     25  C   UNL     1       2.981  13.549  18.361  0.00  0.00    +0.000 A 
BRANCH  23  26
ATOM     26  O   UNL     1       4.984  15.748  20.495  0.00  0.00    +0.000 OA
ATOM     27  H   UNL     1       5.583  15.611  21.244  0.00  0.00    +0.000 HD
ENDBRANCH  23  26
ENDBRANCH   1  20
BRANCH   2  28
ATOM     28  C   UNL     1      -0.447  13.957  18.442  0.00  0.00    +0.000 C 
BRANCH  28  29
ATOM     29  C   UNL     1      -0.827  14.645  19.758  0.00  0.00    +0.000 C 
BRANCH  29  30
ATOM     30  C   UNL     1      -0.317  16.095  19.796  0.00  0.00    +0.000 C 
BRANCH  30  31
ATOM     31  O   UNL     1       0.843  16.253  19.021  0.00  0.00    +0.000 OA
ATOM     32  H   UNL     1       1.582  16.456  19.650  0.00  0.00    +0.000 HD
ENDBRANCH  30  31
ENDBRANCH  29  30
ENDBRANCH  28  29
ENDBRANCH   2  28
TORSDOF 9
ENDMDL
MODEL 3
REMARK VINA RESULT:      -5.9      5.056      9.593
REMARK  Name = 
REMARK  10 active torsions:
REMARK  status: ('A' for Active; 'I' for Inactive)
REMARK    1  A    between atoms: C_1  and  N_2
REMARK    2  A    between atoms: C_4  and  C_5
REMARK    3  A    between atoms: C_8  and  C_9
REMARK    4  A    between atoms: C_9  and  C_21
REMARK    5  A    between atoms: C_10  and  C_11
REMARK    6  A    between atoms: C_10  and  C_15
REMARK    7  A    between atoms: C_11  and  C_12
REMARK    8  A    between atoms: C_12  and  C_13
REMARK    9  A    between atoms: C_13  and  O_14
REMARK   10  A    between atoms: C_24  and  O_25
REMARK                            x       y       z     vdW  Elec       q    Type
REMARK                         _______ _______ _______ _____ _____    ______ ____
ROOT
ATOM      1  C   UNL     1       4.020   5.219  17.877  0.00  0.00    +0.000 C 
ATOM      2  C   UNL     1       3.776   3.975  18.390  0.00  0.00    +0.000 C 
ENDROOT
BRANCH   1   6
ATOM      3  C   UNL     1       1.819   8.737  19.098  0.00  0.00    +0.000 A 
ATOM      4  C   UNL     1       2.338   8.612  17.801  0.00  0.00    +0.000 A 
ATOM      5  C   UNL     1       3.038   7.462  17.416  0.00  0.00    +0.000 A 
ATOM      6  C   UNL     1       3.245   6.414  18.322  0.00  0.00    +0.000 A 
ATOM      7  C   UNL     1       2.719   6.518  19.619  0.00  0.00    +0.000 A 
ATOM      8  C   UNL     1       2.008   7.666  20.004  0.00  0.00    +0.000 A 
BRANCH   3  12
ATOM      9  C   UNL     1      -2.004  11.055  18.641  0.00  0.00    +0.000 C 
ATOM     10  N   UNL     1      -0.898  10.085  18.630  0.00  0.00    +0.000 NA
ATOM     11  C   UNL     1       0.401  10.674  18.270  0.00  0.00    +0.000 C 
ATOM     12  C   UNL     1       1.081  10.025  19.470  0.00  0.00    +0.000 C 
ATOM     13  C   UNL     1      -0.347   9.794  19.962  0.00  0.00    +0.000 C 
ENDBRANCH   3  12
ENDBRANCH   1   6
BRANCH   2  14
ATOM     14  C   UNL     1       2.672   3.714  19.340  0.00  0.00    +0.000 A 
ATOM     15  C   UNL     1       1.385   3.458  18.844  0.00  0.00    +0.000 A 
ATOM     16  C   UNL     1       0.347   3.121  19.718  0.00  0.00    +0.000 A 
ATOM     17  C   UNL     1       0.590   3.042  21.092  0.00  0.00    +0.000 A 
ATOM     18  C   UNL     1       1.869   3.302  21.593  0.00  0.00    +0.000 A 
ATOM     19  C   UNL     1       2.912   3.635  20.719  0.00  0.00    +0.000 A 
ENDBRANCH   2  14
BRANCH   1  20
ATOM     20  C   UNL     1       5.067   5.403  16.846  0.00  0.00    +0.000 A 
ATOM     21  C   UNL     1       4.856   4.867  15.566  0.00  0.00    +0.000 A 
ATOM     22  C   UNL     1       5.851   4.954  14.588  0.00  0.00    +0.000 A 
ATOM     23  C   UNL     1       7.069   5.580  14.882  0.00  0.00    +0.000 A 
ATOM     24  C   UNL     1       7.279   6.134  16.153  0.00  0.00    +0.000 A 
ATOM     25  C   UNL     1       6.280   6.045  17.136  0.00  0.00    +0.000 A 
BRANCH  23  26
ATOM     26  O   UNL     1       8.047   5.648  13.955  0.00  0.00    +0.000 OA
ATOM     27  H   UNL     1       8.265   4.898  13.381  0.00  0.00    +0.000 HD
ENDBRANCH  23  26
ENDBRANCH   1  20
BRANCH   2  28
ATOM     28  C   UNL     1       4.650   2.767  18.069  0.00  0.00    +0.000 C 
BRANCH  28  29
ATOM     29  C   UNL     1       3.909   1.428  18.152  0.00  0.00    +0.000 C 
BRANCH  29  30
ATOM     30  C   UNL     1       4.406   0.590  19.342  0.00  0.00    +0.000 C 
BRANCH  30  31
ATOM     31  O   UNL     1       5.319   1.306  20.131  0.00  0.00    +0.000 OA
ATOM     32  H   UNL     1       6.094   1.519  19.550  0.00  0.00    +0.000 HD
ENDBRANCH  30  31
ENDBRANCH  29  30
ENDBRANCH  28  29
ENDBRANCH   2  28
TORSDOF 9
ENDMDL
MODEL 4
REMARK VINA RESULT:      -5.9      4.079      7.995
REMARK  Name = 
REMARK  10 active torsions:
REMARK  status: ('A' for Active; 'I' for Inactive)
REMARK    1  A    between atoms: C_1  and  N_2
REMARK    2  A    between atoms: C_4  and  C_5
REMARK    3  A    between atoms: C_8  and  C_9
REMARK    4  A    between atoms: C_9  and  C_21
REMARK    5  A    between atoms: C_10  and  C_11
REMARK    6  A    between atoms: C_10  and  C_15
REMARK    7  A    between atoms: C_11  and  C_12
REMARK    8  A    between atoms: C_12  and  C_13
REMARK    9  A    between atoms: C_13  and  O_14
REMARK   10  A    between atoms: C_24  and  O_25
REMARK                            x       y       z     vdW  Elec       q    Type
REMARK                         _______ _______ _______ _____ _____    ______ ____
ROOT
ATOM      1  C   UNL     1      -3.694  12.606  19.905  0.00  0.00    +0.000 C 
ATOM      2  C   UNL     1      -4.480  12.015  18.956  0.00  0.00    +0.000 C 
ENDROOT
BRANCH   1   6
ATOM      3  C   UNL     1       0.618  12.527  19.559  0.00  0.00    +0.000 A 
ATOM      4  C   UNL     1      -0.177  13.250  18.655  0.00  0.00    +0.000 A 
ATOM      5  C   UNL     1      -1.570  13.276  18.787  0.00  0.00    +0.000 A 
ATOM      6  C   UNL     1      -2.205  12.572  19.819  0.00  0.00    +0.000 A 
ATOM      7  C   UNL     1      -1.423  11.858  20.740  0.00  0.00    +0.000 A 
ATOM      8  C   UNL     1      -0.024  11.838  20.615  0.00  0.00    +0.000 A 
BRANCH   3  12
ATOM      9  C   UNL     1       4.155  14.893  18.113  0.00  0.00    +0.000 C 
ATOM     10  N   UNL     1       2.842  14.371  18.524  0.00  0.00    +0.000 NA
ATOM     11  C   UNL     1       2.539  13.038  17.979  0.00  0.00    +0.000 C 
ATOM     12  C   UNL     1       2.134  12.517  19.353  0.00  0.00    +0.000 C 
ATOM     13  C   UNL     1       2.831  13.775  19.868  0.00  0.00    +0.000 C 
ENDBRANCH   3  12
ENDBRANCH   1   6
BRANCH   2  14
ATOM     14  C   UNL     1      -3.914  11.222  17.842  0.00  0.00    +0.000 A 
ATOM     15  C   UNL     1      -4.108  11.656  16.522  0.00  0.00    +0.000 A 
ATOM     16  C   UNL     1      -3.508  10.972  15.460  0.00  0.00    +0.000 A 
ATOM     17  C   UNL     1      -2.713   9.851  15.712  0.00  0.00    +0.000 A 
ATOM     18  C   UNL     1      -2.522   9.410  17.025  0.00  0.00    +0.000 A 
ATOM     19  C   UNL     1      -3.118  10.095  18.091  0.00  0.00    +0.000 A 
ENDBRANCH   2  14
BRANCH   1  20
ATOM     20  C   UNL     1      -4.317  13.293  21.059  0.00  0.00    +0.000 A 
ATOM     21  C   UNL     1      -4.661  12.537  22.191  0.00  0.00    +0.000 A 
ATOM     22  C   UNL     1      -5.318  13.135  23.269  0.00  0.00    +0.000 A 
ATOM     23  C   UNL     1      -5.638  14.499  23.228  0.00  0.00    +0.000 A 
ATOM     24  C   UNL     1      -5.280  15.264  22.109  0.00  0.00    +0.000 A 
ATOM     25  C   UNL     1      -4.621  14.663  21.023  0.00  0.00    +0.000 A 
BRANCH  23  26
ATOM     26  O   UNL     1      -6.296  15.081  24.251  0.00  0.00    +0.000 OA
ATOM     27  H   UNL     1      -5.835  15.586  24.938  0.00  0.00    +0.000 HD
ENDBRANCH  23  26
ENDBRANCH   1  20
BRANCH   2  28
ATOM     28  C   UNL     1      -5.998  12.164  18.935  0.00  0.00    +0.000 C 
BRANCH  28  29
ATOM     29  C   UNL     1      -6.737  10.896  18.493  0.00  0.00    +0.000 C 
BRANCH  29  30
ATOM     30  C   UNL     1      -6.902   9.911  19.663  0.00  0.00    +0.000 C 
BRANCH  30  31
ATOM     31  O   UNL     1      -7.715   8.823  19.309  0.00  0.00    +0.000 OA
ATOM     32  H   UNL     1      -8.298   9.130  18.568  0.00  0.00    +0.000 HD
ENDBRANCH  30  31
ENDBRANCH  29  30
ENDBRANCH  28  29
ENDBRANCH   2  28
TORSDOF 9
ENDMDL
MODEL 5
REMARK VINA RESULT:      -5.8      4.031      8.027
REMARK  Name = 
REMARK  10 active torsions:
REMARK  status: ('A' for Active; 'I' for Inactive)
REMARK    1  A    between atoms: C_1  and  N_2
REMARK    2  A    between atoms: C_4  and  C_5
REMARK    3  A    between atoms: C_8  and  C_9
REMARK    4  A    between atoms: C_9  and  C_21
REMARK    5  A    between atoms: C_10  and  C_11
REMARK    6  A    between atoms: C_10  and  C_15
REMARK    7  A    between atoms: C_11  and  C_12
REMARK    8  A    between atoms: C_12  and  C_13
REMARK    9  A    between atoms: C_13  and  O_14
REMARK   10  A    between atoms: C_24  and  O_25
REMARK                            x       y       z     vdW  Elec       q    Type
REMARK                         _______ _______ _______ _____ _____    ______ ____
ROOT
ATOM      1  C   UNL     1      -3.529  12.724  20.056  0.00  0.00    +0.000 C 
ATOM      2  C   UNL     1      -4.344  12.078  19.167  0.00  0.00    +0.000 C 
ENDROOT
BRANCH   1   6
ATOM      3  C   UNL     1       0.776  12.790  19.629  0.00  0.00    +0.000 A 
ATOM      4  C   UNL     1       0.146  11.965  20.573  0.00  0.00    +0.000 A 
ATOM      5  C   UNL     1      -1.249  11.945  20.691  0.00  0.00    +0.000 A 
ATOM      6  C   UNL     1      -2.048  12.758  19.876  0.00  0.00    +0.000 A 
ATOM      7  C   UNL     1      -1.434  13.577  18.917  0.00  0.00    +0.000 A 
ATOM      8  C   UNL     1      -0.035  13.591  18.790  0.00  0.00    +0.000 A 
BRANCH   3  12
ATOM      9  C   UNL     1       4.393  14.918  18.024  0.00  0.00    +0.000 C 
ATOM     10  N   UNL     1       3.057  14.450  18.422  0.00  0.00    +0.000 NA
ATOM     11  C   UNL     1       2.823  13.025  18.146  0.00  0.00    +0.000 C 
ATOM     12  C   UNL     1       2.304  12.787  19.559  0.00  0.00    +0.000 C 
ATOM     13  C   UNL     1       2.934  14.147  19.856  0.00  0.00    +0.000 C 
ENDBRANCH   3  12
ENDBRANCH   1   6
BRANCH   2  14
ATOM     14  C   UNL     1      -3.811  11.293  18.032  0.00  0.00    +0.000 A 
ATOM     15  C   UNL     1      -4.246  11.583  16.730  0.00  0.00    +0.000 A 
ATOM     16  C   UNL     1      -3.690  10.914  15.636  0.00  0.00    +0.000 A 
ATOM     17  C   UNL     1      -2.699   9.949  15.836  0.00  0.00    +0.000 A 
ATOM     18  C   UNL     1      -2.266   9.651  17.132  0.00  0.00    +0.000 A 
ATOM     19  C   UNL     1      -2.818  10.323  18.231  0.00  0.00    +0.000 A 
ENDBRANCH   2  14
BRANCH   1  20
ATOM     20  C   UNL     1      -4.111  13.403  21.236  0.00  0.00    +0.000 A 
ATOM     21  C   UNL     1      -4.410  14.771  21.149  0.00  0.00    +0.000 A 
ATOM     22  C   UNL     1      -4.891  15.463  22.264  0.00  0.00    +0.000 A 
ATOM     23  C   UNL     1      -5.078  14.792  23.479  0.00  0.00    +0.000 A 
ATOM     24  C   UNL     1      -4.798  13.421  23.568  0.00  0.00    +0.000 A 
ATOM     25  C   UNL     1      -4.313  12.725  22.448  0.00  0.00    +0.000 A 
BRANCH  23  26
ATOM     26  O   UNL     1      -5.516  15.455  24.569  0.00  0.00    +0.000 OA
ATOM     27  H   UNL     1      -4.999  16.160  24.985  0.00  0.00    +0.000 HD
ENDBRANCH  23  26
ENDBRANCH   1  20
BRANCH   2  28
ATOM     28  C   UNL     1      -5.865  12.156  19.240  0.00  0.00    +0.000 C 
BRANCH  28  29
ATOM     29  C   UNL     1      -6.508  10.985  19.991  0.00  0.00    +0.000 C 
BRANCH  29  30
ATOM     30  C   UNL     1      -6.877   9.843  19.030  0.00  0.00    +0.000 C 
BRANCH  30  31
ATOM     31  O   UNL     1      -7.776   8.942  19.621  0.00  0.00    +0.000 OA
ATOM     32  H   UNL     1      -8.056   9.341  20.485  0.00  0.00    +0.000 HD
ENDBRANCH  30  31
ENDBRANCH  29  30
ENDBRANCH  28  29
ENDBRANCH   2  28
TORSDOF 9
ENDMDL
MODEL 6
REMARK VINA RESULT:      -5.8      3.496      6.937
REMARK  Name = 
REMARK  10 active torsions:
REMARK  status: ('A' for Active; 'I' for Inactive)
REMARK    1  A    between atoms: C_1  and  N_2
REMARK    2  A    between atoms: C_4  and  C_5
REMARK    3  A    between atoms: C_8  and  C_9
REMARK    4  A    between atoms: C_9  and  C_21
REMARK    5  A    between atoms: C_10  and  C_11
REMARK    6  A    between atoms: C_10  and  C_15
REMARK    7  A    between atoms: C_11  and  C_12
REMARK    8  A    between atoms: C_12  and  C_13
REMARK    9  A    between atoms: C_13  and  O_14
REMARK   10  A    between atoms: C_24  and  O_25
REMARK                            x       y       z     vdW  Elec       q    Type
REMARK                         _______ _______ _______ _____ _____    ______ ____
ROOT
ATOM      1  C   UNL     1      -0.508  11.853  18.765  0.00  0.00    +0.000 C 
ATOM      2  C   UNL     1      -0.021  13.118  18.941  0.00  0.00    +0.000 C 
ENDROOT
BRANCH   1   6
ATOM      3  C   UNL     1       1.973   8.347  19.286  0.00  0.00    +0.000 A 
ATOM      4  C   UNL     1       1.973   9.073  18.086  0.00  0.00    +0.000 A 
ATOM      5  C   UNL     1       1.174  10.213  17.935  0.00  0.00    +0.000 A 
ATOM      6  C   UNL     1       0.346  10.649  18.978  0.00  0.00    +0.000 A 
ATOM      7  C   UNL     1       0.346   9.943  20.191  0.00  0.00    +0.000 A 
ATOM      8  C   UNL     1       1.154   8.804  20.347  0.00  0.00    +0.000 A 
BRANCH   3  12
ATOM      9  C   UNL     1       2.560   4.135  17.834  0.00  0.00    +0.000 C 
ATOM     10  N   UNL     1       2.137   5.516  18.114  0.00  0.00    +0.000 NA
ATOM     11  C   UNL     1       2.030   5.823  19.549  0.00  0.00    +0.000 C 
ATOM     12  C   UNL     1       2.850   7.098  19.386  0.00  0.00    +0.000 C 
ATOM     13  C   UNL     1       3.225   6.502  18.030  0.00  0.00    +0.000 C 
ENDBRANCH   3  12
ENDBRANCH   1   6
BRANCH   2  14
ATOM     14  C   UNL     1       1.401  13.381  19.257  0.00  0.00    +0.000 A 
ATOM     15  C   UNL     1       2.285  13.715  18.220  0.00  0.00    +0.000 A 
ATOM     16  C   UNL     1       3.611  14.053  18.505  0.00  0.00    +0.000 A 
ATOM     17  C   UNL     1       4.061  14.058  19.828  0.00  0.00    +0.000 A 
ATOM     18  C   UNL     1       3.186  13.720  20.866  0.00  0.00    +0.000 A 
ATOM     19  C   UNL     1       1.856  13.384  20.583  0.00  0.00    +0.000 A 
ENDBRANCH   2  14
BRANCH   1  20
ATOM     20  C   UNL     1      -1.913  11.653  18.341  0.00  0.00    +0.000 A 
ATOM     21  C   UNL     1      -2.172  11.277  17.014  0.00  0.00    +0.000 A 
ATOM     22  C   UNL     1      -3.487  11.151  16.557  0.00  0.00    +0.000 A 
ATOM     23  C   UNL     1      -4.558  11.401  17.424  0.00  0.00    +0.000 A 
ATOM     24  C   UNL     1      -4.307  11.759  18.756  0.00  0.00    +0.000 A 
ATOM     25  C   UNL     1      -2.985  11.888  19.216  0.00  0.00    +0.000 A 
BRANCH  23  26
ATOM     26  O   UNL     1      -5.831  11.309  16.988  0.00  0.00    +0.000 OA
ATOM     27  H   UNL     1      -6.360  10.507  17.109  0.00  0.00    +0.000 HD
ENDBRANCH  23  26
ENDBRANCH   1  20
BRANCH   2  28
ATOM     28  C   UNL     1      -0.908  14.357  18.879  0.00  0.00    +0.000 C 
BRANCH  28  29
ATOM     29  C   UNL     1      -1.224  14.960  20.253  0.00  0.00    +0.000 C 
BRANCH  29  30
ATOM     30  C   UNL     1      -1.318  16.493  20.180  0.00  0.00    +0.000 C 
BRANCH  30  31
ATOM     31  O   UNL     1      -2.455  16.907  19.470  0.00  0.00    +0.000 OA
ATOM     32  H   UNL     1      -2.162  17.084  18.539  0.00  0.00    +0.000 HD
ENDBRANCH  30  31
ENDBRANCH  29  30
ENDBRANCH  28  29
ENDBRANCH   2  28
TORSDOF 9
ENDMDL
MODEL 7
REMARK VINA RESULT:      -5.8      3.474      7.234
REMARK  Name = 
REMARK  10 active torsions:
REMARK  status: ('A' for Active; 'I' for Inactive)
REMARK    1  A    between atoms: C_1  and  N_2
REMARK    2  A    between atoms: C_4  and  C_5
REMARK    3  A    between atoms: C_8  and  C_9
REMARK    4  A    between atoms: C_9  and  C_21
REMARK    5  A    between atoms: C_10  and  C_11
REMARK    6  A    between atoms: C_10  and  C_15
REMARK    7  A    between atoms: C_11  and  C_12
REMARK    8  A    between atoms: C_12  and  C_13
REMARK    9  A    between atoms: C_13  and  O_14
REMARK   10  A    between atoms: C_24  and  O_25
REMARK                            x       y       z     vdW  Elec       q    Type
REMARK                         _______ _______ _______ _____ _____    ______ ____
ROOT
ATOM      1  C   UNL     1       1.091  11.951  18.916  0.00  0.00    +0.000 C 
ATOM      2  C   UNL     1      -0.139  12.417  18.541  0.00  0.00    +0.000 C 
ENDROOT
BRANCH   1   6
ATOM      3  C   UNL     1       1.948   7.721  19.206  0.00  0.00    +0.000 A 
ATOM      4  C   UNL     1       1.328   8.416  20.254  0.00  0.00    +0.000 A 
ATOM      5  C   UNL     1       1.045   9.782  20.142  0.00  0.00    +0.000 A 
ATOM      6  C   UNL     1       1.386  10.490  18.982  0.00  0.00    +0.000 A 
ATOM      7  C   UNL     1       1.993   9.806  17.918  0.00  0.00    +0.000 A 
ATOM      8  C   UNL     1       2.269   8.433  18.025  0.00  0.00    +0.000 A 
BRANCH   3  12
ATOM      9  C   UNL     1       4.249   4.203  17.615  0.00  0.00    +0.000 C 
ATOM     10  N   UNL     1       3.640   5.508  17.918  0.00  0.00    +0.000 NA
ATOM     11  C   UNL     1       2.180   5.454  18.085  0.00  0.00    +0.000 C 
ATOM     12  C   UNL     1       2.252   6.233  19.393  0.00  0.00    +0.000 C 
ATOM     13  C   UNL     1       3.742   5.899  19.332  0.00  0.00    +0.000 C 
ENDBRANCH   3  12
ENDBRANCH   1   6
BRANCH   2  14
ATOM     14  C   UNL     1      -1.279  11.513  18.273  0.00  0.00    +0.000 A 
ATOM     15  C   UNL     1      -2.508  11.749  18.907  0.00  0.00    +0.000 A 
ATOM     16  C   UNL     1      -3.622  10.961  18.602  0.00  0.00    +0.000 A 
ATOM     17  C   UNL     1      -3.514   9.933  17.662  0.00  0.00    +0.000 A 
ATOM     18  C   UNL     1      -2.290   9.689  17.031  0.00  0.00    +0.000 A 
ATOM     19  C   UNL     1      -1.173  10.479  17.332  0.00  0.00    +0.000 A 
ENDBRANCH   2  14
BRANCH   1  20
ATOM     20  C   UNL     1       2.164  12.904  19.279  0.00  0.00    +0.000 A 
ATOM     21  C   UNL     1       2.342  13.238  20.631  0.00  0.00    +0.000 A 
ATOM     22  C   UNL     1       3.295  14.189  21.006  0.00  0.00    +0.000 A 
ATOM     23  C   UNL     1       4.081  14.817  20.031  0.00  0.00    +0.000 A 
ATOM     24  C   UNL     1       3.921  14.475  18.681  0.00  0.00    +0.000 A 
ATOM     25  C   UNL     1       2.962  13.520  18.303  0.00  0.00    +0.000 A 
BRANCH  23  26
ATOM     26  O   UNL     1       4.985  15.756  20.378  0.00  0.00    +0.000 OA
ATOM     27  H   UNL     1       4.890  16.684  20.116  0.00  0.00    +0.000 HD
ENDBRANCH  23  26
ENDBRANCH   1  20
BRANCH   2  28
ATOM     28  C   UNL     1      -0.424  13.898  18.317  0.00  0.00    +0.000 C 
BRANCH  28  29
ATOM     29  C   UNL     1      -0.744  14.667  19.604  0.00  0.00    +0.000 C 
BRANCH  29  30
ATOM     30  C   UNL     1      -0.421  16.163  19.454  0.00  0.00    +0.000 C 
BRANCH  30  31
ATOM     31  O   UNL     1       0.963  16.388  19.391  0.00  0.00    +0.000 OA
ATOM     32  H   UNL     1       1.274  16.522  20.323  0.00  0.00    +0.000 HD
ENDBRANCH  30  31
ENDBRANCH  29  30
ENDBRANCH  28  29
ENDBRANCH   2  28
TORSDOF 9
ENDMDL
MODEL 8
REMARK VINA RESULT:      -5.7      3.356      6.282
REMARK  Name = 
REMARK  10 active torsions:
REMARK  status: ('A' for Active; 'I' for Inactive)
REMARK    1  A    between atoms: C_1  and  N_2
REMARK    2  A    between atoms: C_4  and  C_5
REMARK    3  A    between atoms: C_8  and  C_9
REMARK    4  A    between atoms: C_9  and  C_21
REMARK    5  A    between atoms: C_10  and  C_11
REMARK    6  A    between atoms: C_10  and  C_15
REMARK    7  A    between atoms: C_11  and  C_12
REMARK    8  A    between atoms: C_12  and  C_13
REMARK    9  A    between atoms: C_13  and  O_14
REMARK   10  A    between atoms: C_24  and  O_25
REMARK                            x       y       z     vdW  Elec       q    Type
REMARK                         _______ _______ _______ _____ _____    ______ ____
ROOT
ATOM      1  C   UNL     1      -2.934  12.327  19.904  0.00  0.00    +0.000 C 
ATOM      2  C   UNL     1      -4.039  11.943  19.195  0.00  0.00    +0.000 C 
ENDROOT
BRANCH   1   6
ATOM      3  C   UNL     1      -3.207  14.835  23.418  0.00  0.00    +0.000 A 
ATOM      4  C   UNL     1      -3.002  15.381  22.142  0.00  0.00    +0.000 A 
ATOM      5  C   UNL     1      -2.928  14.559  21.013  0.00  0.00    +0.000 A 
ATOM      6  C   UNL     1      -3.046  13.167  21.132  0.00  0.00    +0.000 A 
ATOM      7  C   UNL     1      -3.266  12.607  22.399  0.00  0.00    +0.000 A 
ATOM      8  C   UNL     1      -3.350  13.432  23.532  0.00  0.00    +0.000 A 
BRANCH   3  12
ATOM      9  C   UNL     1      -0.818  16.721  26.724  0.00  0.00    +0.000 C 
ATOM     10  N   UNL     1      -1.334  15.985  25.559  0.00  0.00    +0.000 NA
ATOM     11  C   UNL     1      -2.550  15.208  25.842  0.00  0.00    +0.000 C 
ATOM     12  C   UNL     1      -3.258  15.781  24.620  0.00  0.00    +0.000 C 
ATOM     13  C   UNL     1      -2.129  16.810  24.638  0.00  0.00    +0.000 C 
ENDBRANCH   3  12
ENDBRANCH   1   6
BRANCH   2  14
ATOM     14  C   UNL     1      -5.400  12.413  19.536  0.00  0.00    +0.000 A 
ATOM     15  C   UNL     1      -6.211  11.624  20.365  0.00  0.00    +0.000 A 
ATOM     16  C   UNL     1      -7.466  12.089  20.772  0.00  0.00    +0.000 A 
ATOM     17  C   UNL     1      -7.916  13.343  20.350  0.00  0.00    +0.000 A 
ATOM     18  C   UNL     1      -7.114  14.131  19.518  0.00  0.00    +0.000 A 
ATOM     19  C   UNL     1      -5.855  13.670  19.112  0.00  0.00    +0.000 A 
ENDBRANCH   2  14
BRANCH   1  20
ATOM     20  C   UNL     1      -1.585  11.917  19.452  0.00  0.00    +0.000 A 
ATOM     21  C   UNL     1      -0.808  12.833  18.727  0.00  0.00    +0.000 A 
ATOM     22  C   UNL     1       0.440  12.459  18.219  0.00  0.00    +0.000 A 
ATOM     23  C   UNL     1       0.923  11.161  18.432  0.00  0.00    +0.000 A 
ATOM     24  C   UNL     1       0.160  10.247  19.172  0.00  0.00    +0.000 A 
ATOM     25  C   UNL     1      -1.095  10.622  19.681  0.00  0.00    +0.000 A 
BRANCH  23  26
ATOM     26  O   UNL     1       2.113  10.780  17.925  0.00  0.00    +0.000 OA
ATOM     27  H   UNL     1       2.235  10.592  16.982  0.00  0.00    +0.000 HD
ENDBRANCH  23  26
ENDBRANCH   1  20
BRANCH   2  28
ATOM     28  C   UNL     1      -3.968  10.962  18.029  0.00  0.00    +0.000 C 
BRANCH  28  29
ATOM     29  C   UNL     1      -4.239  11.605  16.664  0.00  0.00    +0.000 C 
BRANCH  29  30
ATOM     30  C   UNL     1      -3.245  11.100  15.605  0.00  0.00    +0.000 C 
BRANCH  30  31
ATOM     31  O   UNL     1      -2.073  10.601  16.194  0.00  0.00    +0.000 OA
ATOM     32  H   UNL     1      -1.709   9.917  15.574  0.00  0.00    +0.000 HD
ENDBRANCH  30  31
ENDBRANCH  29  30
ENDBRANCH  28  29
ENDBRANCH   2  28
TORSDOF 9
ENDMDL
MODEL 9
REMARK VINA RESULT:      -5.6      3.445      7.192
REMARK  Name = 
REMARK  10 active torsions:
REMARK  status: ('A' for Active; 'I' for Inactive)
REMARK    1  A    between atoms: C_1  and  N_2
REMARK    2  A    between atoms: C_4  and  C_5
REMARK    3  A    between atoms: C_8  and  C_9
REMARK    4  A    between atoms: C_9  and  C_21
REMARK    5  A    between atoms: C_10  and  C_11
REMARK    6  A    between atoms: C_10  and  C_15
REMARK    7  A    between atoms: C_11  and  C_12
REMARK    8  A    between atoms: C_12  and  C_13
REMARK    9  A    between atoms: C_13  and  O_14
REMARK   10  A    between atoms: C_24  and  O_25
REMARK                            x       y       z     vdW  Elec       q    Type
REMARK                         _______ _______ _______ _____ _____    ______ ____
ROOT
ATOM      1  C   UNL     1       1.055  12.023  18.980  0.00  0.00    +0.000 C 
ATOM      2  C   UNL     1      -0.163  12.469  18.547  0.00  0.00    +0.000 C 
ENDROOT
BRANCH   1   6
ATOM      3  C   UNL     1       1.910   7.794  19.293  0.00  0.00    +0.000 A 
ATOM      4  C   UNL     1       2.255   8.529  18.149  0.00  0.00    +0.000 A 
ATOM      5  C   UNL     1       1.983   9.899  18.066  0.00  0.00    +0.000 A 
ATOM      6  C   UNL     1       1.350  10.568  19.122  0.00  0.00    +0.000 A 
ATOM      7  C   UNL     1       1.012   9.851  20.280  0.00  0.00    +0.000 A 
ATOM      8  C   UNL     1       1.293   8.477  20.368  0.00  0.00    +0.000 A 
BRANCH   3  12
ATOM      9  C   UNL     1       4.394   4.507  17.501  0.00  0.00    +0.000 C 
ATOM     10  N   UNL     1       3.744   5.762  17.906  0.00  0.00    +0.000 NA
ATOM     11  C   UNL     1       2.275   5.689  17.921  0.00  0.00    +0.000 C 
ATOM     12  C   UNL     1       2.211   6.294  19.319  0.00  0.00    +0.000 C 
ATOM     13  C   UNL     1       3.704   5.970  19.362  0.00  0.00    +0.000 C 
ENDBRANCH   3  12
ENDBRANCH   1   6
BRANCH   2  14
ATOM     14  C   UNL     1      -1.294  11.552  18.287  0.00  0.00    +0.000 A 
ATOM     15  C   UNL     1      -2.524  11.778  18.923  0.00  0.00    +0.000 A 
ATOM     16  C   UNL     1      -3.630  10.977  18.624  0.00  0.00    +0.000 A 
ATOM     17  C   UNL     1      -3.512   9.944  17.691  0.00  0.00    +0.000 A 
ATOM     18  C   UNL     1      -2.287   9.709  17.058  0.00  0.00    +0.000 A 
ATOM     19  C   UNL     1      -1.178  10.512  17.352  0.00  0.00    +0.000 A 
ENDBRANCH   2  14
BRANCH   1  20
ATOM     20  C   UNL     1       2.117  12.994  19.331  0.00  0.00    +0.000 A 
ATOM     21  C   UNL     1       2.931  13.505  18.308  0.00  0.00    +0.000 A 
ATOM     22  C   UNL     1       3.990  14.365  18.609  0.00  0.00    +0.000 A 
ATOM     23  C   UNL     1       4.247  14.725  19.938  0.00  0.00    +0.000 A 
ATOM     24  C   UNL     1       3.426  14.233  20.963  0.00  0.00    +0.000 A 
ATOM     25  C   UNL     1       2.362  13.366  20.662  0.00  0.00    +0.000 A 
BRANCH  23  26
ATOM     26  O   UNL     1       5.282  15.534  20.244  0.00  0.00    +0.000 OA
ATOM     27  H   UNL     1       6.203  15.264  20.108  0.00  0.00    +0.000 HD
ENDBRANCH  23  26
ENDBRANCH   1  20
BRANCH   2  28
ATOM     28  C   UNL     1      -0.442  13.938  18.247  0.00  0.00    +0.000 C 
BRANCH  28  29
ATOM     29  C   UNL     1      -0.765  14.773  19.491  0.00  0.00    +0.000 C 
BRANCH  29  30
ATOM     30  C   UNL     1      -0.259  16.217  19.340  0.00  0.00    +0.000 C 
BRANCH  30  31
ATOM     31  O   UNL     1       0.907  16.275  18.561  0.00  0.00    +0.000 OA
ATOM     32  H   UNL     1       0.828  17.078  17.986  0.00  0.00    +0.000 HD
ENDBRANCH  30  31
ENDBRANCH  29  30
ENDBRANCH  28  29
ENDBRANCH   2  28
TORSDOF 9
ENDMDL
