MODEL 1
REMARK VINA RESULT:      -8.6      0.000      0.000
REMARK  Name = 
REMARK  7 active torsions:
REMARK  status: ('A' for Active; 'I' for Inactive)
REMARK    1  A    between atoms: C_1  and  C_2
REMARK    2  A    between atoms: C_5  and  S_6
REMARK    3  A    between atoms: S_6  and  N_9
REMARK    4  A    between atoms: N_9  and  C_10
REMARK    5  A    between atoms: C_13  and  C_14
REMARK    6  A    between atoms: C_16  and  C_17
REMARK    7  A    between atoms: N_22  and  C_23
REMARK                            x       y       z     vdW  Elec       q    Type
REMARK                         _______ _______ _______ _____ _____    ______ ____
ROOT
ATOM      1  C   UNL     1       2.456   7.478  19.429  0.00  0.00    +0.000 A 
ATOM      2  C   UNL     1       1.656   7.901  20.487  0.00  0.00    +0.000 A 
ATOM      3  C   UNL     1       0.680   8.883  20.282  0.00  0.00    +0.000 A 
ATOM      4  C   UNL     1       0.486   9.445  19.011  0.00  0.00    +0.000 A 
ATOM      5  C   UNL     1       1.357   9.058  17.979  0.00  0.00    +0.000 A 
ATOM      6  C   UNL     1       2.315   8.061  18.175  0.00  0.00    +0.000 A 
ENDROOT
BRANCH   4   7
ATOM      7  C   UNL     1      -0.597  10.412  18.778  0.00  0.00    +0.000 A 
ATOM      8  C   UNL     1      -1.897  10.169  18.364  0.00  0.00    +0.000 A 
ATOM      9  C   UNL     1      -2.591  11.398  18.466  0.00  0.00    +0.000 A 
ATOM     10  N   UNL     1      -1.780  12.356  18.949  0.00  0.00    +0.000 NA
ATOM     11  N   UNL     1      -0.544  11.794  18.988  0.00  0.00    +0.000 N 
BRANCH  11  12
ATOM     12  C   UNL     1       0.582  12.627  19.243  0.00  0.00    +0.000 A 
ATOM     13  C   UNL     1       0.827  13.053  20.558  0.00  0.00    +0.000 A 
ATOM     14  C   UNL     1       1.991  13.767  20.852  0.00  0.00    +0.000 A 
ATOM     15  C   UNL     1       2.885  14.090  19.835  0.00  0.00    +0.000 A 
ATOM     16 CL   UNL     1       4.320  14.955  20.216  0.00  0.00    +0.000 Cl
ATOM     17  C   UNL     1       2.618  13.724  18.517  0.00  0.00    +0.000 A 
ATOM     18  C   UNL     1       1.460  13.002  18.217  0.00  0.00    +0.000 A 
ENDBRANCH  11  12
BRANCH   9  19
ATOM     19  C   UNL     1      -4.039  11.645  18.133  0.00  0.00    +0.000 C 
ATOM     20  F   UNL     1      -4.791  10.521  18.299  0.00  0.00    +0.000 F 
ATOM     21  F   UNL     1      -4.602  12.602  18.916  0.00  0.00    +0.000 F 
ATOM     22  F   UNL     1      -4.212  12.031  16.841  0.00  0.00    +0.000 F 
ENDBRANCH   9  19
ENDBRANCH   4   7
BRANCH   1  23
ATOM     23  N   UNL     1       3.406   6.449  19.636  0.00  0.00    +0.000 N 
ATOM     24  H   UNL     1       4.387   6.704  19.728  0.00  0.00    +0.000 HD
BRANCH  23  25
ATOM     25  S   UNL     1       3.169   4.936  18.932  0.00  0.00    +0.000 S 
ATOM     26  O   UNL     1       1.822   4.879  18.398  0.00  0.00    +0.000 OA
ATOM     27  O   UNL     1       3.643   3.964  19.892  0.00  0.00    +0.000 OA
BRANCH  25  32
ATOM     28  C   UNL     1       6.986   4.815  14.201  0.00  0.00    +0.000 C 
ATOM     29  C   UNL     1       6.058   4.836  15.381  0.00  0.00    +0.000 A 
ATOM     30  C   UNL     1       5.345   3.689  15.751  0.00  0.00    +0.000 A 
ATOM     31  C   UNL     1       4.461   3.723  16.832  0.00  0.00    +0.000 A 
ATOM     32  C   UNL     1       4.312   4.904  17.568  0.00  0.00    +0.000 A 
ATOM     33  C   UNL     1       5.012   6.058  17.206  0.00  0.00    +0.000 A 
ATOM     34  C   UNL     1       5.877   6.021  16.110  0.00  0.00    +0.000 A 
ENDBRANCH  25  32
ENDBRANCH  23  25
ENDBRANCH   1  23
TORSDOF 6
ENDMDL
MODEL 2
REMARK VINA RESULT:      -8.6      5.665      9.989
REMARK  Name = 
REMARK  7 active torsions:
REMARK  status: ('A' for Active; 'I' for Inactive)
REMARK    1  A    between atoms: C_1  and  C_2
REMARK    2  A    between atoms: C_5  and  S_6
REMARK    3  A    between atoms: S_6  and  N_9
REMARK    4  A    between atoms: N_9  and  C_10
REMARK    5  A    between atoms: C_13  and  C_14
REMARK    6  A    between atoms: C_16  and  C_17
REMARK    7  A    between atoms: N_22  and  C_23
REMARK                            x       y       z     vdW  Elec       q    Type
REMARK                         _______ _______ _______ _____ _____    ______ ____
ROOT
ATOM      1  C   UNL     1       1.370   9.000  19.401  0.00  0.00    +0.000 A 
ATOM      2  C   UNL     1       1.750   9.123  18.067  0.00  0.00    +0.000 A 
ATOM      3  C   UNL     1       2.578   8.158  17.481  0.00  0.00    +0.000 A 
ATOM      4  C   UNL     1       3.025   7.054  18.221  0.00  0.00    +0.000 A 
ATOM      5  C   UNL     1       2.692   6.994  19.584  0.00  0.00    +0.000 A 
ATOM      6  C   UNL     1       1.846   7.942  20.165  0.00  0.00    +0.000 A 
ENDROOT
BRANCH   4   7
ATOM      7  C   UNL     1       3.822   5.996  17.581  0.00  0.00    +0.000 A 
ATOM      8  C   UNL     1       4.650   6.091  16.474  0.00  0.00    +0.000 A 
ATOM      9  C   UNL     1       5.325   4.852  16.366  0.00  0.00    +0.000 A 
ATOM     10  N   UNL     1       4.967   4.034  17.371  0.00  0.00    +0.000 NA
ATOM     11  N   UNL     1       3.949   4.671  18.007  0.00  0.00    +0.000 N 
BRANCH  11  12
ATOM     12  C   UNL     1       3.197   3.958  18.985  0.00  0.00    +0.000 A 
ATOM     13  C   UNL     1       3.874   3.358  20.056  0.00  0.00    +0.000 A 
ATOM     14  C   UNL     1       3.150   2.762  21.091  0.00  0.00    +0.000 A 
ATOM     15  C   UNL     1       1.758   2.728  21.035  0.00  0.00    +0.000 A 
ATOM     16 CL   UNL     1       0.880   2.004  22.324  0.00  0.00    +0.000 Cl
ATOM     17  C   UNL     1       1.081   3.267  19.944  0.00  0.00    +0.000 A 
ATOM     18  C   UNL     1       1.800   3.874  18.910  0.00  0.00    +0.000 A 
ENDBRANCH  11  12
BRANCH   9  19
ATOM     19  C   UNL     1       6.340   4.467  15.322  0.00  0.00    +0.000 C 
ATOM     20  F   UNL     1       6.362   5.358  14.291  0.00  0.00    +0.000 F 
ATOM     21  F   UNL     1       7.606   4.416  15.812  0.00  0.00    +0.000 F 
ATOM     22  F   UNL     1       6.074   3.253  14.768  0.00  0.00    +0.000 F 
ENDBRANCH   9  19
ENDBRANCH   4   7
BRANCH   1  23
ATOM     23  N   UNL     1       0.493   9.955  19.970  0.00  0.00    +0.000 N 
ATOM     24  H   UNL     1       0.519  10.910  19.619  0.00  0.00    +0.000 HD
BRANCH  23  25
ATOM     25  S   UNL     1       0.088   9.851  21.604  0.00  0.00    +0.000 S 
ATOM     26  O   UNL     1       1.263  10.163  22.394  0.00  0.00    +0.000 OA
ATOM     27  O   UNL     1      -0.622   8.602  21.766  0.00  0.00    +0.000 OA
BRANCH  25  32
ATOM     28  C   UNL     1      -4.063  14.229  22.357  0.00  0.00    +0.000 C 
ATOM     29  C   UNL     1      -3.023  13.163  22.172  0.00  0.00    +0.000 A 
ATOM     30  C   UNL     1      -2.468  12.916  20.910  0.00  0.00    +0.000 A 
ATOM     31  C   UNL     1      -1.522  11.902  20.739  0.00  0.00    +0.000 A 
ATOM     32  C   UNL     1      -1.105  11.151  21.842  0.00  0.00    +0.000 A 
ATOM     33  C   UNL     1      -1.654  11.382  23.106  0.00  0.00    +0.000 A 
ATOM     34  C   UNL     1      -2.616  12.382  23.265  0.00  0.00    +0.000 A 
ENDBRANCH  25  32
ENDBRANCH  23  25
ENDBRANCH   1  23
TORSDOF 6
ENDMDL
MODEL 3
REMARK VINA RESULT:      -8.5      5.727      9.980
REMARK  Name = 
REMARK  7 active torsions:
REMARK  status: ('A' for Active; 'I' for Inactive)
REMARK    1  A    between atoms: C_1  and  C_2
REMARK    2  A    between atoms: C_5  and  S_6
REMARK    3  A    between atoms: S_6  and  N_9
REMARK    4  A    between atoms: N_9  and  C_10
REMARK    5  A    between atoms: C_13  and  C_14
REMARK    6  A    between atoms: C_16  and  C_17
REMARK    7  A    between atoms: N_22  and  C_23
REMARK                            x       y       z     vdW  Elec       q    Type
REMARK                         _______ _______ _______ _____ _____    ______ ____
ROOT
ATOM      1  C   UNL     1       1.506   9.186  19.520  0.00  0.00    +0.000 A 
ATOM      2  C   UNL     1       1.786   8.016  20.221  0.00  0.00    +0.000 A 
ATOM      3  C   UNL     1       2.485   6.974  19.599  0.00  0.00    +0.000 A 
ATOM      4  C   UNL     1       2.921   7.098  18.272  0.00  0.00    +0.000 A 
ATOM      5  C   UNL     1       2.559   8.254  17.563  0.00  0.00    +0.000 A 
ATOM      6  C   UNL     1       1.883   9.305  18.188  0.00  0.00    +0.000 A 
ENDROOT
BRANCH   4   7
ATOM      7  C   UNL     1       3.730   6.039  17.649  0.00  0.00    +0.000 A 
ATOM      8  C   UNL     1       4.564   6.126  16.546  0.00  0.00    +0.000 A 
ATOM      9  C   UNL     1       5.250   4.892  16.458  0.00  0.00    +0.000 A 
ATOM     10  N   UNL     1       4.891   4.082  17.470  0.00  0.00    +0.000 NA
ATOM     11  N   UNL     1       3.864   4.719  18.092  0.00  0.00    +0.000 N 
BRANCH  11  12
ATOM     12  C   UNL     1       3.112   4.013  19.073  0.00  0.00    +0.000 A 
ATOM     13  C   UNL     1       3.786   3.435  20.159  0.00  0.00    +0.000 A 
ATOM     14  C   UNL     1       3.059   2.846  21.195  0.00  0.00    +0.000 A 
ATOM     15  C   UNL     1       1.669   2.796  21.129  0.00  0.00    +0.000 A 
ATOM     16 CL   UNL     1       0.787   2.081  22.420  0.00  0.00    +0.000 Cl
ATOM     17  C   UNL     1       0.996   3.313  20.025  0.00  0.00    +0.000 A 
ATOM     18  C   UNL     1       1.716   3.912  18.988  0.00  0.00    +0.000 A 
ENDBRANCH  11  12
BRANCH   9  19
ATOM     19  C   UNL     1       6.274   4.502  15.424  0.00  0.00    +0.000 C 
ATOM     20  F   UNL     1       6.261   5.352  14.359  0.00  0.00    +0.000 F 
ATOM     21  F   UNL     1       7.543   4.515  15.910  0.00  0.00    +0.000 F 
ATOM     22  F   UNL     1       6.050   3.259  14.921  0.00  0.00    +0.000 F 
ENDBRANCH   9  19
ENDBRANCH   4   7
BRANCH   1  23
ATOM     23  N   UNL     1       0.842  10.252  20.173  0.00  0.00    +0.000 N 
ATOM     24  H   UNL     1       0.768  10.231  21.188  0.00  0.00    +0.000 HD
BRANCH  23  25
ATOM     25  S   UNL     1      -0.460  11.014  19.420  0.00  0.00    +0.000 S 
ATOM     26  O   UNL     1      -1.223  10.019  18.693  0.00  0.00    +0.000 OA
ATOM     27  O   UNL     1       0.082  12.182  18.760  0.00  0.00    +0.000 OA
BRANCH  25  32
ATOM     28  C   UNL     1      -3.783  13.109  24.060  0.00  0.00    +0.000 C 
ATOM     29  C   UNL     1      -2.973  12.573  22.915  0.00  0.00    +0.000 A 
ATOM     30  C   UNL     1      -1.871  11.741  23.147  0.00  0.00    +0.000 A 
ATOM     31  C   UNL     1      -1.104  11.270  22.079  0.00  0.00    +0.000 A 
ATOM     32  C   UNL     1      -1.458  11.608  20.769  0.00  0.00    +0.000 A 
ATOM     33  C   UNL     1      -2.551  12.443  20.523  0.00  0.00    +0.000 A 
ATOM     34  C   UNL     1      -3.300  12.929  21.598  0.00  0.00    +0.000 A 
ENDBRANCH  25  32
ENDBRANCH  23  25
ENDBRANCH   1  23
TORSDOF 6
ENDMDL
MODEL 4
REMARK VINA RESULT:      -8.5      0.493      1.179
REMARK  Name = 
REMARK  7 active torsions:
REMARK  status: ('A' for Active; 'I' for Inactive)
REMARK    1  A    between atoms: C_1  and  C_2
REMARK    2  A    between atoms: C_5  and  S_6
REMARK    3  A    between atoms: S_6  and  N_9
REMARK    4  A    between atoms: N_9  and  C_10
REMARK    5  A    between atoms: C_13  and  C_14
REMARK    6  A    between atoms: C_16  and  C_17
REMARK    7  A    between atoms: N_22  and  C_23
REMARK                            x       y       z     vdW  Elec       q    Type
REMARK                         _______ _______ _______ _____ _____    ______ ____
ROOT
ATOM      1  C   UNL     1       2.303   7.705  19.309  0.00  0.00    +0.000 A 
ATOM      2  C   UNL     1       1.500   8.082  20.382  0.00  0.00    +0.000 A 
ATOM      3  C   UNL     1       0.485   9.029  20.201  0.00  0.00    +0.000 A 
ATOM      4  C   UNL     1       0.255   9.599  18.941  0.00  0.00    +0.000 A 
ATOM      5  C   UNL     1       1.128   9.261  17.894  0.00  0.00    +0.000 A 
ATOM      6  C   UNL     1       2.125   8.299  18.066  0.00  0.00    +0.000 A 
ENDROOT
BRANCH   4   7
ATOM      7  C   UNL     1      -0.868  10.527  18.733  0.00  0.00    +0.000 A 
ATOM      8  C   UNL     1      -2.122  10.260  18.209  0.00  0.00    +0.000 A 
ATOM      9  C   UNL     1      -2.893  11.434  18.387  0.00  0.00    +0.000 A 
ATOM     10  N   UNL     1      -2.173  12.377  19.018  0.00  0.00    +0.000 NA
ATOM     11  N   UNL     1      -0.910  11.880  19.084  0.00  0.00    +0.000 N 
BRANCH  11  12
ATOM     12  C   UNL     1       0.146  12.741  19.499  0.00  0.00    +0.000 A 
ATOM     13  C   UNL     1       1.032  13.242  18.533  0.00  0.00    +0.000 A 
ATOM     14  C   UNL     1       1.997  14.183  18.896  0.00  0.00    +0.000 A 
ATOM     15  C   UNL     1       2.106  14.592  20.223  0.00  0.00    +0.000 A 
ATOM     16 CL   UNL     1       3.289  15.764  20.651  0.00  0.00    +0.000 Cl
ATOM     17  C   UNL     1       1.270  14.053  21.199  0.00  0.00    +0.000 A 
ATOM     18  C   UNL     1       0.296  13.117  20.841  0.00  0.00    +0.000 A 
ENDBRANCH  11  12
BRANCH   9  19
ATOM     19  C   UNL     1      -4.330  11.637  17.982  0.00  0.00    +0.000 C 
ATOM     20  F   UNL     1      -4.434  12.046  16.686  0.00  0.00    +0.000 F 
ATOM     21  F   UNL     1      -5.071  10.503  18.088  0.00  0.00    +0.000 F 
ATOM     22  F   UNL     1      -4.946  12.590  18.731  0.00  0.00    +0.000 F 
ENDBRANCH   9  19
ENDBRANCH   4   7
BRANCH   1  23
ATOM     23  N   UNL     1       3.295   6.711  19.492  0.00  0.00    +0.000 N 
ATOM     24  H   UNL     1       4.272   6.996  19.511  0.00  0.00    +0.000 HD
BRANCH  23  25
ATOM     25  S   UNL     1       3.058   5.166  18.859  0.00  0.00    +0.000 S 
ATOM     26  O   UNL     1       1.709   5.080  18.336  0.00  0.00    +0.000 OA
ATOM     27  O   UNL     1       3.540   4.241  19.861  0.00  0.00    +0.000 OA
BRANCH  25  32
ATOM     28  C   UNL     1       6.854   4.807  14.124  0.00  0.00    +0.000 C 
ATOM     29  C   UNL     1       5.933   4.893  15.306  0.00  0.00    +0.000 A 
ATOM     30  C   UNL     1       5.483   3.733  15.948  0.00  0.00    +0.000 A 
ATOM     31  C   UNL     1       4.603   3.819  17.030  0.00  0.00    +0.000 A 
ATOM     32  C   UNL     1       4.194   5.074  17.491  0.00  0.00    +0.000 A 
ATOM     33  C   UNL     1       4.629   6.240  16.857  0.00  0.00    +0.000 A 
ATOM     34  C   UNL     1       5.491   6.145  15.762  0.00  0.00    +0.000 A 
ENDBRANCH  25  32
ENDBRANCH  23  25
ENDBRANCH   1  23
TORSDOF 6
ENDMDL
MODEL 5
REMARK VINA RESULT:      -8.4      5.732     10.027
REMARK  Name = 
REMARK  7 active torsions:
REMARK  status: ('A' for Active; 'I' for Inactive)
REMARK    1  A    between atoms: C_1  and  C_2
REMARK    2  A    between atoms: C_5  and  S_6
REMARK    3  A    between atoms: S_6  and  N_9
REMARK    4  A    between atoms: N_9  and  C_10
REMARK    5  A    between atoms: C_13  and  C_14
REMARK    6  A    between atoms: C_16  and  C_17
REMARK    7  A    between atoms: N_22  and  C_23
REMARK                            x       y       z     vdW  Elec       q    Type
REMARK                         _______ _______ _______ _____ _____    ______ ____
ROOT
ATOM      1  C   UNL     1       1.111   9.036  19.536  0.00  0.00    +0.000 A 
ATOM      2  C   UNL     1       1.514   9.171  18.211  0.00  0.00    +0.000 A 
ATOM      3  C   UNL     1       2.379   8.229  17.640  0.00  0.00    +0.000 A 
ATOM      4  C   UNL     1       2.842   7.138  18.389  0.00  0.00    +0.000 A 
ATOM      5  C   UNL     1       2.484   7.067  19.745  0.00  0.00    +0.000 A 
ATOM      6  C   UNL     1       1.601   7.991  20.309  0.00  0.00    +0.000 A 
ENDROOT
BRANCH   4   7
ATOM      7  C   UNL     1       3.680   6.103  17.763  0.00  0.00    +0.000 A 
ATOM      8  C   UNL     1       4.522   6.220  16.669  0.00  0.00    +0.000 A 
ATOM      9  C   UNL     1       5.236   5.002  16.575  0.00  0.00    +0.000 A 
ATOM     10  N   UNL     1       4.887   4.175  17.577  0.00  0.00    +0.000 NA
ATOM     11  N   UNL     1       3.840   4.783  18.194  0.00  0.00    +0.000 N 
BRANCH  11  12
ATOM     12  C   UNL     1       3.095   4.050  19.162  0.00  0.00    +0.000 A 
ATOM     13  C   UNL     1       3.774   3.463  20.239  0.00  0.00    +0.000 A 
ATOM     14  C   UNL     1       3.053   2.847  21.264  0.00  0.00    +0.000 A 
ATOM     15  C   UNL     1       1.664   2.780  21.194  0.00  0.00    +0.000 A 
ATOM     16 CL   UNL     1       0.789   2.032  22.471  0.00  0.00    +0.000 Cl
ATOM     17  C   UNL     1       0.986   3.306  20.096  0.00  0.00    +0.000 A 
ATOM     18  C   UNL     1       1.701   3.933  19.072  0.00  0.00    +0.000 A 
ENDBRANCH  11  12
BRANCH   9  19
ATOM     19  C   UNL     1       6.278   4.646  15.547  0.00  0.00    +0.000 C 
ATOM     20  F   UNL     1       7.529   4.617  16.089  0.00  0.00    +0.000 F 
ATOM     21  F   UNL     1       6.073   3.422  14.993  0.00  0.00    +0.000 F 
ATOM     22  F   UNL     1       6.326   5.544  14.528  0.00  0.00    +0.000 F 
ENDBRANCH   9  19
ENDBRANCH   4   7
BRANCH   1  23
ATOM     23  N   UNL     1       0.197   9.966  20.089  0.00  0.00    +0.000 N 
ATOM     24  H   UNL     1      -0.463  10.428  19.467  0.00  0.00    +0.000 HD
BRANCH  23  25
ATOM     25  S   UNL     1       0.660  10.917  21.402  0.00  0.00    +0.000 S 
ATOM     26  O   UNL     1       1.650  11.877  20.954  0.00  0.00    +0.000 OA
ATOM     27  O   UNL     1       0.933  10.001  22.488  0.00  0.00    +0.000 OA
BRANCH  25  32
ATOM     28  C   UNL     1      -4.339  13.982  23.005  0.00  0.00    +0.000 C 
ATOM     29  C   UNL     1      -3.117  13.211  22.599  0.00  0.00    +0.000 A 
ATOM     30  C   UNL     1      -2.715  12.077  23.317  0.00  0.00    +0.000 A 
ATOM     31  C   UNL     1      -1.560  11.381  22.951  0.00  0.00    +0.000 A 
ATOM     32  C   UNL     1      -0.819  11.804  21.843  0.00  0.00    +0.000 A 
ATOM     33  C   UNL     1      -1.204  12.937  21.122  0.00  0.00    +0.000 A 
ATOM     34  C   UNL     1      -2.347  13.640  21.507  0.00  0.00    +0.000 A 
ENDBRANCH  25  32
ENDBRANCH  23  25
ENDBRANCH   1  23
TORSDOF 6
ENDMDL
MODEL 6
REMARK VINA RESULT:      -8.4      5.655      9.944
REMARK  Name = 
REMARK  7 active torsions:
REMARK  status: ('A' for Active; 'I' for Inactive)
REMARK    1  A    between atoms: C_1  and  C_2
REMARK    2  A    between atoms: C_5  and  S_6
REMARK    3  A    between atoms: S_6  and  N_9
REMARK    4  A    between atoms: N_9  and  C_10
REMARK    5  A    between atoms: C_13  and  C_14
REMARK    6  A    between atoms: C_16  and  C_17
REMARK    7  A    between atoms: N_22  and  C_23
REMARK                            x       y       z     vdW  Elec       q    Type
REMARK                         _______ _______ _______ _____ _____    ______ ____
ROOT
ATOM      1  C   UNL     1       1.500   9.078  19.467  0.00  0.00    +0.000 A 
ATOM      2  C   UNL     1       1.862   7.944  20.189  0.00  0.00    +0.000 A 
ATOM      3  C   UNL     1       2.578   6.914  19.567  0.00  0.00    +0.000 A 
ATOM      4  C   UNL     1       2.949   7.014  18.218  0.00  0.00    +0.000 A 
ATOM      5  C   UNL     1       2.505   8.131  17.492  0.00  0.00    +0.000 A 
ATOM      6  C   UNL     1       1.812   9.171  18.116  0.00  0.00    +0.000 A 
ENDROOT
BRANCH   4   7
ATOM      7  C   UNL     1       3.776   5.972  17.591  0.00  0.00    +0.000 A 
ATOM      8  C   UNL     1       4.610   6.079  16.490  0.00  0.00    +0.000 A 
ATOM      9  C   UNL     1       5.316   4.856  16.396  0.00  0.00    +0.000 A 
ATOM     10  N   UNL     1       4.969   4.036  17.404  0.00  0.00    +0.000 NA
ATOM     11  N   UNL     1       3.931   4.652  18.027  0.00  0.00    +0.000 N 
BRANCH  11  12
ATOM     12  C   UNL     1       3.189   3.929  19.004  0.00  0.00    +0.000 A 
ATOM     13  C   UNL     1       3.872   3.353  20.085  0.00  0.00    +0.000 A 
ATOM     14  C   UNL     1       3.154   2.746  21.118  0.00  0.00    +0.000 A 
ATOM     15  C   UNL     1       1.765   2.678  21.052  0.00  0.00    +0.000 A 
ATOM     16 CL   UNL     1       0.894   1.942  22.339  0.00  0.00    +0.000 Cl
ATOM     17  C   UNL     1       1.084   3.193  19.951  0.00  0.00    +0.000 A 
ATOM     18  C   UNL     1       1.795   3.809  18.919  0.00  0.00    +0.000 A 
ENDBRANCH  11  12
BRANCH   9  19
ATOM     19  C   UNL     1       6.347   4.488  15.361  0.00  0.00    +0.000 C 
ATOM     20  F   UNL     1       6.094   3.267  14.812  0.00  0.00    +0.000 F 
ATOM     21  F   UNL     1       6.394   5.370  14.329  0.00  0.00    +0.000 F 
ATOM     22  F   UNL     1       7.600   4.417  15.885  0.00  0.00    +0.000 F 
ENDBRANCH   9  19
ENDBRANCH   4   7
BRANCH   1  23
ATOM     23  N   UNL     1       0.819  10.135  20.117  0.00  0.00    +0.000 N 
ATOM     24  H   UNL     1       1.161  11.086  19.991  0.00  0.00    +0.000 HD
BRANCH  23  25
ATOM     25  S   UNL     1       0.108   9.872  21.624  0.00  0.00    +0.000 S 
ATOM     26  O   UNL     1       1.117  10.048  22.650  0.00  0.00    +0.000 OA
ATOM     27  O   UNL     1      -0.643   8.642  21.507  0.00  0.00    +0.000 OA
BRANCH  25  32
ATOM     28  C   UNL     1      -4.040  14.290  22.107  0.00  0.00    +0.000 C 
ATOM     29  C   UNL     1      -3.000  13.214  21.987  0.00  0.00    +0.000 A 
ATOM     30  C   UNL     1      -2.472  12.865  20.737  0.00  0.00    +0.000 A 
ATOM     31  C   UNL     1      -1.527  11.843  20.629  0.00  0.00    +0.000 A 
ATOM     32  C   UNL     1      -1.084  11.185  21.781  0.00  0.00    +0.000 A 
ATOM     33  C   UNL     1      -1.606  11.517  23.033  0.00  0.00    +0.000 A 
ATOM     34  C   UNL     1      -2.568  12.525  23.131  0.00  0.00    +0.000 A 
ENDBRANCH  25  32
ENDBRANCH  23  25
ENDBRANCH   1  23
TORSDOF 6
ENDMDL
MODEL 7
REMARK VINA RESULT:      -8.3      5.674      9.997
REMARK  Name = 
REMARK  7 active torsions:
REMARK  status: ('A' for Active; 'I' for Inactive)
REMARK    1  A    between atoms: C_1  and  C_2
REMARK    2  A    between atoms: C_5  and  S_6
REMARK    3  A    between atoms: S_6  and  N_9
REMARK    4  A    between atoms: N_9  and  C_10
REMARK    5  A    between atoms: C_13  and  C_14
REMARK    6  A    between atoms: C_16  and  C_17
REMARK    7  A    between atoms: N_22  and  C_23
REMARK                            x       y       z     vdW  Elec       q    Type
REMARK                         _______ _______ _______ _____ _____    ______ ____
ROOT
ATOM      1  C   UNL     1       0.990   9.159  19.512  0.00  0.00    +0.000 A 
ATOM      2  C   UNL     1       1.424   9.330  18.201  0.00  0.00    +0.000 A 
ATOM      3  C   UNL     1       2.318   8.415  17.632  0.00  0.00    +0.000 A 
ATOM      4  C   UNL     1       2.778   7.313  18.367  0.00  0.00    +0.000 A 
ATOM      5  C   UNL     1       2.387   7.206  19.711  0.00  0.00    +0.000 A 
ATOM      6  C   UNL     1       1.476   8.103  20.274  0.00  0.00    +0.000 A 
ENDROOT
BRANCH   4   7
ATOM      7  C   UNL     1       3.649   6.306  17.740  0.00  0.00    +0.000 A 
ATOM      8  C   UNL     1       4.502   6.456  16.659  0.00  0.00    +0.000 A 
ATOM      9  C   UNL     1       5.245   5.256  16.560  0.00  0.00    +0.000 A 
ATOM     10  N   UNL     1       4.901   4.409  17.546  0.00  0.00    +0.000 NA
ATOM     11  N   UNL     1       3.833   4.984  18.158  0.00  0.00    +0.000 N 
BRANCH  11  12
ATOM     12  C   UNL     1       3.092   4.223  19.106  0.00  0.00    +0.000 A 
ATOM     13  C   UNL     1       3.769   3.652  20.195  0.00  0.00    +0.000 A 
ATOM     14  C   UNL     1       3.047   3.007  21.201  0.00  0.00    +0.000 A 
ATOM     15  C   UNL     1       1.663   2.896  21.103  0.00  0.00    +0.000 A 
ATOM     16 CL   UNL     1       0.787   2.114  22.358  0.00  0.00    +0.000 Cl
ATOM     17  C   UNL     1       0.990   3.407  19.994  0.00  0.00    +0.000 A 
ATOM     18  C   UNL     1       1.705   4.061  18.988  0.00  0.00    +0.000 A 
ENDBRANCH  11  12
BRANCH   9  19
ATOM     19  C   UNL     1       6.308   4.936  15.542  0.00  0.00    +0.000 C 
ATOM     20  F   UNL     1       6.391   3.596  15.307  0.00  0.00    +0.000 F 
ATOM     21  F   UNL     1       6.076   5.522  14.337  0.00  0.00    +0.000 F 
ATOM     22  F   UNL     1       7.545   5.328  15.947  0.00  0.00    +0.000 F 
ENDBRANCH   9  19
ENDBRANCH   4   7
BRANCH   1  23
ATOM     23  N   UNL     1       0.047  10.062  20.062  0.00  0.00    +0.000 N 
ATOM     24  H   UNL     1      -0.618  10.512  19.436  0.00  0.00    +0.000 HD
BRANCH  23  25
ATOM     25  S   UNL     1       0.474  11.014  21.387  0.00  0.00    +0.000 S 
ATOM     26  O   UNL     1       1.502  11.949  20.975  0.00  0.00    +0.000 OA
ATOM     27  O   UNL     1       0.680  10.102  22.490  0.00  0.00    +0.000 OA
BRANCH  25  32
ATOM     28  C   UNL     1      -4.634  14.073  22.615  0.00  0.00    +0.000 C 
ATOM     29  C   UNL     1      -3.363  13.336  22.307  0.00  0.00    +0.000 A 
ATOM     30  C   UNL     1      -3.009  13.043  20.985  0.00  0.00    +0.000 A 
ATOM     31  C   UNL     1      -1.839  12.331  20.707  0.00  0.00    +0.000 A 
ATOM     32  C   UNL     1      -1.003  11.936  21.757  0.00  0.00    +0.000 A 
ATOM     33  C   UNL     1      -1.348  12.215  23.081  0.00  0.00    +0.000 A 
ATOM     34  C   UNL     1      -2.530  12.908  23.352  0.00  0.00    +0.000 A 
ENDBRANCH  25  32
ENDBRANCH  23  25
ENDBRANCH   1  23
TORSDOF 6
ENDMDL
MODEL 8
REMARK VINA RESULT:      -8.3      3.109      4.119
REMARK  Name = 
REMARK  7 active torsions:
REMARK  status: ('A' for Active; 'I' for Inactive)
REMARK    1  A    between atoms: C_1  and  C_2
REMARK    2  A    between atoms: C_5  and  S_6
REMARK    3  A    between atoms: S_6  and  N_9
REMARK    4  A    between atoms: N_9  and  C_10
REMARK    5  A    between atoms: C_13  and  C_14
REMARK    6  A    between atoms: C_16  and  C_17
REMARK    7  A    between atoms: N_22  and  C_23
REMARK                            x       y       z     vdW  Elec       q    Type
REMARK                         _______ _______ _______ _____ _____    ______ ____
ROOT
ATOM      1  C   UNL     1       2.210   7.513  19.788  0.00  0.00    +0.000 A 
ATOM      2  C   UNL     1       1.985   8.595  18.942  0.00  0.00    +0.000 A 
ATOM      3  C   UNL     1       1.046   9.575  19.289  0.00  0.00    +0.000 A 
ATOM      4  C   UNL     1       0.331   9.486  20.492  0.00  0.00    +0.000 A 
ATOM      5  C   UNL     1       0.520   8.346  21.290  0.00  0.00    +0.000 A 
ATOM      6  C   UNL     1       1.473   7.380  20.959  0.00  0.00    +0.000 A 
ENDROOT
BRANCH   4   7
ATOM      7  C   UNL     1      -0.590  10.560  20.896  0.00  0.00    +0.000 A 
ATOM      8  C   UNL     1      -0.737  11.147  22.142  0.00  0.00    +0.000 A 
ATOM      9  C   UNL     1      -1.615  12.244  21.971  0.00  0.00    +0.000 A 
ATOM     10  N   UNL     1      -1.974  12.361  20.681  0.00  0.00    +0.000 NA
ATOM     11  N   UNL     1      -1.479  11.254  20.069  0.00  0.00    +0.000 N 
BRANCH  11  12
ATOM     12  C   UNL     1      -1.884  10.967  18.734  0.00  0.00    +0.000 A 
ATOM     13  C   UNL     1      -2.587   9.781  18.479  0.00  0.00    +0.000 A 
ATOM     14  C   UNL     1      -3.102   9.538  17.204  0.00  0.00    +0.000 A 
ATOM     15  C   UNL     1      -2.882  10.454  16.178  0.00  0.00    +0.000 A 
ATOM     16 CL   UNL     1      -3.535  10.149  14.618  0.00  0.00    +0.000 Cl
ATOM     17  C   UNL     1      -2.132  11.605  16.409  0.00  0.00    +0.000 A 
ATOM     18  C   UNL     1      -1.621  11.859  17.685  0.00  0.00    +0.000 A 
ENDBRANCH  11  12
BRANCH   9  19
ATOM     19  C   UNL     1      -2.080  13.200  23.038  0.00  0.00    +0.000 C 
ATOM     20  F   UNL     1      -2.723  14.276  22.503  0.00  0.00    +0.000 F 
ATOM     21  F   UNL     1      -2.949  12.630  23.913  0.00  0.00    +0.000 F 
ATOM     22  F   UNL     1      -1.047  13.700  23.768  0.00  0.00    +0.000 F 
ENDBRANCH   9  19
ENDBRANCH   4   7
BRANCH   1  23
ATOM     23  N   UNL     1       3.196   6.554  19.452  0.00  0.00    +0.000 N 
ATOM     24  H   UNL     1       4.139   6.878  19.246  0.00  0.00    +0.000 HD
BRANCH  23  25
ATOM     25  S   UNL     1       2.760   5.168  18.598  0.00  0.00    +0.000 S 
ATOM     26  O   UNL     1       1.464   5.389  17.986  0.00  0.00    +0.000 OA
ATOM     27  O   UNL     1       2.994   4.053  19.488  0.00  0.00    +0.000 OA
BRANCH  25  32
ATOM     28  C   UNL     1       6.991   4.814  14.247  0.00  0.00    +0.000 C 
ATOM     29  C   UNL     1       5.931   4.904  15.306  0.00  0.00    +0.000 A 
ATOM     30  C   UNL     1       5.458   6.148  15.740  0.00  0.00    +0.000 A 
ATOM     31  C   UNL     1       4.493   6.226  16.747  0.00  0.00    +0.000 A 
ATOM     32  C   UNL     1       3.976   5.051  17.303  0.00  0.00    +0.000 A 
ATOM     33  C   UNL     1       4.443   3.803  16.884  0.00  0.00    +0.000 A 
ATOM     34  C   UNL     1       5.425   3.734  15.893  0.00  0.00    +0.000 A 
ENDBRANCH  25  32
ENDBRANCH  23  25
ENDBRANCH   1  23
TORSDOF 6
ENDMDL
MODEL 9
REMARK VINA RESULT:      -8.2      0.938      1.548
REMARK  Name = 
REMARK  7 active torsions:
REMARK  status: ('A' for Active; 'I' for Inactive)
REMARK    1  A    between atoms: C_1  and  C_2
REMARK    2  A    between atoms: C_5  and  S_6
REMARK    3  A    between atoms: S_6  and  N_9
REMARK    4  A    between atoms: N_9  and  C_10
REMARK    5  A    between atoms: C_13  and  C_14
REMARK    6  A    between atoms: C_16  and  C_17
REMARK    7  A    between atoms: N_22  and  C_23
REMARK                            x       y       z     vdW  Elec       q    Type
REMARK                         _______ _______ _______ _____ _____    ______ ____
ROOT
ATOM      1  C   UNL     1       3.009   7.011  19.351  0.00  0.00    +0.000 A 
ATOM      2  C   UNL     1       2.059   7.426  20.280  0.00  0.00    +0.000 A 
ATOM      3  C   UNL     1       1.123   8.409  19.937  0.00  0.00    +0.000 A 
ATOM      4  C   UNL     1       1.122   8.979  18.656  0.00  0.00    +0.000 A 
ATOM      5  C   UNL     1       2.139   8.601  17.764  0.00  0.00    +0.000 A 
ATOM      6  C   UNL     1       3.058   7.603  18.095  0.00  0.00    +0.000 A 
ENDROOT
BRANCH   4   7
ATOM      7  C   UNL     1       0.085   9.948  18.268  0.00  0.00    +0.000 A 
ATOM      8  C   UNL     1      -1.118   9.713  17.623  0.00  0.00    +0.000 A 
ATOM      9  C   UNL     1      -1.834  10.933  17.643  0.00  0.00    +0.000 A 
ATOM     10  N   UNL     1      -1.133  11.877  18.296  0.00  0.00    +0.000 NA
ATOM     11  N   UNL     1       0.083  11.321  18.533  0.00  0.00    +0.000 N 
BRANCH  11  12
ATOM     12  C   UNL     1       1.136  12.152  19.012  0.00  0.00    +0.000 A 
ATOM     13  C   UNL     1       2.065  12.667  18.096  0.00  0.00    +0.000 A 
ATOM     14  C   UNL     1       3.030  13.581  18.523  0.00  0.00    +0.000 A 
ATOM     15  C   UNL     1       3.095  13.948  19.865  0.00  0.00    +0.000 A 
ATOM     16 CL   UNL     1       4.279  15.087  20.373  0.00  0.00    +0.000 Cl
ATOM     17  C   UNL     1       2.215  13.394  20.792  0.00  0.00    +0.000 A 
ATOM     18  C   UNL     1       1.241  12.486  20.370  0.00  0.00    +0.000 A 
ENDBRANCH  11  12
BRANCH   9  19
ATOM     19  C   UNL     1      -3.204  11.183  17.069  0.00  0.00    +0.000 C 
ATOM     20  F   UNL     1      -3.843  12.198  17.717  0.00  0.00    +0.000 F 
ATOM     21  F   UNL     1      -3.168  11.531  15.755  0.00  0.00    +0.000 F 
ATOM     22  F   UNL     1      -4.014  10.096  17.174  0.00  0.00    +0.000 F 
ENDBRANCH   9  19
ENDBRANCH   4   7
BRANCH   1  23
ATOM     23  N   UNL     1       3.919   5.981  19.692  0.00  0.00    +0.000 N 
ATOM     24  H   UNL     1       4.876   6.235  19.926  0.00  0.00    +0.000 HD
BRANCH  23  25
ATOM     25  S   UNL     1       3.785   4.469  18.958  0.00  0.00    +0.000 S 
ATOM     26  O   UNL     1       2.418   4.288  18.514  0.00  0.00    +0.000 OA
ATOM     27  O   UNL     1       4.420   3.527  19.853  0.00  0.00    +0.000 OA
BRANCH  25  32
ATOM     28  C   UNL     1       7.395   4.775  14.075  0.00  0.00    +0.000 C 
ATOM     29  C   UNL     1       6.503   4.721  15.281  0.00  0.00    +0.000 A 
ATOM     30  C   UNL     1       7.035   4.851  16.570  0.00  0.00    +0.000 A 
ATOM     31  C   UNL     1       6.204   4.770  17.690  0.00  0.00    +0.000 A 
ATOM     32  C   UNL     1       4.828   4.588  17.520  0.00  0.00    +0.000 A 
ATOM     33  C   UNL     1       4.284   4.450  16.240  0.00  0.00    +0.000 A 
ATOM     34  C   UNL     1       5.125   4.509  15.126  0.00  0.00    +0.000 A 
ENDBRANCH  25  32
ENDBRANCH  23  25
ENDBRANCH   1  23
TORSDOF 6
ENDMDL
