MODEL 1
REMARK VINA RESULT:      -7.3      0.000      0.000
REMARK  Name = 
REMARK  6 active torsions:
REMARK  status: ('A' for Active; 'I' for Inactive)
REMARK    1  A    between atoms: C_1  and  C_2
REMARK    2  A    between atoms: C_5  and  S_6
REMARK    3  A    between atoms: S_6  and  C_7
REMARK    4  A    between atoms: C_7  and  C_8
REMARK    5  A    between atoms: N_10  and  C_11
REMARK    6  A    between atoms: C_11  and  C_12
REMARK                            x       y       z     vdW  Elec       q    Type
REMARK                         _______ _______ _______ _____ _____    ______ ____
ROOT
ATOM      1  C   UNL     1       0.907  11.016  19.955  0.00  0.00    +0.000 C 
ATOM      2  C   UNL     1      -0.318  10.050  19.606  0.00  0.00    +0.000 C 
ATOM      3  C   UNL     1      -1.306  10.703  18.671  0.00  0.00    +0.000 A 
ATOM      4  C   UNL     1      -1.095  12.033  18.337  0.00  0.00    +0.000 A 
ATOM      5  N   UNL     1      -2.262  12.516  17.819  0.00  0.00    +0.000 N 
ATOM      6  C   UNL     1      -3.050  11.450  17.465  0.00  0.00    +0.000 A 
ATOM      7  C   UNL     1      -4.174  11.448  16.631  0.00  0.00    +0.000 A 
ATOM      8  C   UNL     1      -3.805  10.929  15.398  0.00  0.00    +0.000 A 
ATOM      9  C   UNL     1      -2.931   9.848  15.346  0.00  0.00    +0.000 A 
ATOM     10  C   UNL     1      -2.237   9.412  16.514  0.00  0.00    +0.000 A 
ATOM     11  C   UNL     1      -2.183  10.351  17.582  0.00  0.00    +0.000 A 
ATOM     12  C   UNL     1       0.199  12.761  18.398  0.00  0.00    +0.000 C 
ATOM     13  N   UNL     1       1.271  11.796  18.714  0.00  0.00    +0.000 NA
ATOM     14  H   UNL     1      -2.443  13.460  17.518  0.00  0.00    +0.000 HD
ATOM     15  H   UNL     1       1.331  11.130  17.943  0.00  0.00    +0.000 HD
ENDROOT
BRANCH   1  16
ATOM     16  C   UNL     1       0.777  12.083  21.095  0.00  0.00    +0.000 C 
BRANCH  16  19
ATOM     17  C   UNL     1      -2.238  12.455  22.990  0.00  0.00    +0.000 A 
ATOM     18  C   UNL     1      -1.381  12.960  22.037  0.00  0.00    +0.000 A 
ATOM     19  N   UNL     1      -0.324  12.077  22.025  0.00  0.00    +0.000 N 
ATOM     20  N   UNL     1      -0.588  11.015  22.799  0.00  0.00    +0.000 NA
ATOM     21  N   UNL     1      -1.747  11.240  23.408  0.00  0.00    +0.000 NA
BRANCH  17  22
ATOM     22  C   UNL     1      -3.440  13.073  23.632  0.00  0.00    +0.000 C 
BRANCH  22  23
ATOM     23  S   UNL     1      -4.283  14.018  22.328  0.00  0.00    +0.000 S 
BRANCH  23  28
ATOM     24  C   UNL     1      -7.057  10.776  18.873  0.00  0.00    +0.000 C 
ATOM     25  C   UNL     1      -6.511  11.464  20.067  0.00  0.00    +0.000 A 
ATOM     26  N   UNL     1      -6.828  11.218  21.325  0.00  0.00    +0.000 NA
ATOM     27  N   UNL     1      -6.146  12.045  22.209  0.00  0.00    +0.000 NA
ATOM     28  C   UNL     1      -5.344  12.872  21.578  0.00  0.00    +0.000 A 
ATOM     29  S   UNL     1      -5.358  12.716  19.869  0.00  0.00    +0.000 S 
ENDBRANCH  23  28
ENDBRANCH  22  23
ENDBRANCH  17  22
ENDBRANCH  16  19
ENDBRANCH   1  16
TORSDOF 5
ENDMDL
MODEL 2
REMARK VINA RESULT:      -7.3     10.892     12.475
REMARK  Name = 
REMARK  6 active torsions:
REMARK  status: ('A' for Active; 'I' for Inactive)
REMARK    1  A    between atoms: C_1  and  C_2
REMARK    2  A    between atoms: C_5  and  S_6
REMARK    3  A    between atoms: S_6  and  C_7
REMARK    4  A    between atoms: C_7  and  C_8
REMARK    5  A    between atoms: N_10  and  C_11
REMARK    6  A    between atoms: C_11  and  C_12
REMARK                            x       y       z     vdW  Elec       q    Type
REMARK                         _______ _______ _______ _____ _____    ______ ____
ROOT
ATOM      1  C   UNL     1       7.627   5.956  18.284  0.00  0.00    +0.000 C 
ATOM      2  C   UNL     1       6.411   5.577  19.249  0.00  0.00    +0.000 C 
ATOM      3  C   UNL     1       5.298   4.877  18.509  0.00  0.00    +0.000 A 
ATOM      4  C   UNL     1       5.416   4.757  17.131  0.00  0.00    +0.000 A 
ATOM      5  N   UNL     1       4.178   4.456  16.640  0.00  0.00    +0.000 N 
ATOM      6  C   UNL     1       3.400   4.007  17.677  0.00  0.00    +0.000 A 
ATOM      7  C   UNL     1       2.189   3.308  17.606  0.00  0.00    +0.000 A 
ATOM      8  C   UNL     1       2.437   1.972  17.889  0.00  0.00    +0.000 A 
ATOM      9  C   UNL     1       3.343   1.644  18.892  0.00  0.00    +0.000 A 
ATOM     10  C   UNL     1       4.182   2.639  19.475  0.00  0.00    +0.000 A 
ATOM     11  C   UNL     1       4.318   3.841  18.726  0.00  0.00    +0.000 A 
ATOM     12  C   UNL     1       6.677   4.807  16.349  0.00  0.00    +0.000 C 
ATOM     13  N   UNL     1       7.817   4.838  17.288  0.00  0.00    +0.000 NA
ATOM     14  H   UNL     1       3.926   4.342  15.671  0.00  0.00    +0.000 HD
ATOM     15  H   UNL     1       7.816   3.961  17.811  0.00  0.00    +0.000 HD
ENDROOT
BRANCH   1  16
ATOM     16  C   UNL     1       7.584   7.271  17.432  0.00  0.00    +0.000 C 
BRANCH  16  19
ATOM     17  C   UNL     1       9.089  10.088  19.050  0.00  0.00    +0.000 A 
ATOM     18  C   UNL     1       8.862   8.729  19.029  0.00  0.00    +0.000 A 
ATOM     19  N   UNL     1       8.010   8.541  17.963  0.00  0.00    +0.000 N 
ATOM     20  N   UNL     1       7.853   9.682  17.277  0.00  0.00    +0.000 NA
ATOM     21  N   UNL     1       8.493  10.639  17.938  0.00  0.00    +0.000 NA
BRANCH  17  22
ATOM     22  C   UNL     1       9.734  10.943  20.094  0.00  0.00    +0.000 C 
BRANCH  22  23
ATOM     23  S   UNL     1      11.255  11.598  19.346  0.00  0.00    +0.000 S 
BRANCH  23  28
ATOM     24  C   UNL     1      10.715  16.433  16.803  0.00  0.00    +0.000 C 
ATOM     25  C   UNL     1      10.606  15.280  17.727  0.00  0.00    +0.000 A 
ATOM     26  N   UNL     1       9.821  15.196  18.786  0.00  0.00    +0.000 NA
ATOM     27  N   UNL     1       9.961  13.984  19.449  0.00  0.00    +0.000 NA
ATOM     28  C   UNL     1      10.842  13.208  18.858  0.00  0.00    +0.000 A 
ATOM     29  S   UNL     1      11.569  13.888  17.460  0.00  0.00    +0.000 S 
ENDBRANCH  23  28
ENDBRANCH  22  23
ENDBRANCH  17  22
ENDBRANCH  16  19
ENDBRANCH   1  16
TORSDOF 5
ENDMDL
MODEL 3
REMARK VINA RESULT:      -7.2      5.389      6.829
REMARK  Name = 
REMARK  6 active torsions:
REMARK  status: ('A' for Active; 'I' for Inactive)
REMARK    1  A    between atoms: C_1  and  C_2
REMARK    2  A    between atoms: C_5  and  S_6
REMARK    3  A    between atoms: S_6  and  C_7
REMARK    4  A    between atoms: C_7  and  C_8
REMARK    5  A    between atoms: N_10  and  C_11
REMARK    6  A    between atoms: C_11  and  C_12
REMARK                            x       y       z     vdW  Elec       q    Type
REMARK                         _______ _______ _______ _____ _____    ______ ____
ROOT
ATOM      1  C   UNL     1       1.993   7.368  18.548  0.00  0.00    +0.000 C 
ATOM      2  C   UNL     1       3.260   7.779  17.666  0.00  0.00    +0.000 C 
ATOM      3  C   UNL     1       4.308   6.695  17.639  0.00  0.00    +0.000 A 
ATOM      4  C   UNL     1       4.100   5.577  18.435  0.00  0.00    +0.000 A 
ATOM      5  N   UNL     1       5.296   4.930  18.554  0.00  0.00    +0.000 N 
ATOM      6  C   UNL     1       6.130   5.379  17.561  0.00  0.00    +0.000 A 
ATOM      7  C   UNL     1       7.318   4.798  17.105  0.00  0.00    +0.000 A 
ATOM      8  C   UNL     1       7.060   4.165  15.897  0.00  0.00    +0.000 A 
ATOM      9  C   UNL     1       6.214   4.772  14.975  0.00  0.00    +0.000 A 
ATOM     10  C   UNL     1       5.436   5.912  15.336  0.00  0.00    +0.000 A 
ATOM     11  C   UNL     1       5.278   6.129  16.733  0.00  0.00    +0.000 A 
ATOM     12  C   UNL     1       2.792   5.093  18.946  0.00  0.00    +0.000 C 
ATOM     13  N   UNL     1       1.716   5.899  18.335  0.00  0.00    +0.000 NA
ATOM     14  H   UNL     1       5.483   4.104  19.100  0.00  0.00    +0.000 HD
ATOM     15  H   UNL     1       1.731   5.729  17.328  0.00  0.00    +0.000 HD
ENDROOT
BRANCH   1  16
ATOM     16  C   UNL     1       2.009   7.567  20.103  0.00  0.00    +0.000 C 
BRANCH  16  19
ATOM     17  C   UNL     1       0.009  10.307  21.247  0.00  0.00    +0.000 A 
ATOM     18  C   UNL     1       0.348   9.447  20.225  0.00  0.00    +0.000 A 
ATOM     19  N   UNL     1       1.391   8.705  20.734  0.00  0.00    +0.000 N 
ATOM     20  N   UNL     1       1.573   8.977  22.034  0.00  0.00    +0.000 NA
ATOM     21  N   UNL     1       0.747   9.966  22.357  0.00  0.00    +0.000 NA
BRANCH  17  22
ATOM     22  C   UNL     1      -0.881  11.509  21.242  0.00  0.00    +0.000 C 
BRANCH  22  23
ATOM     23  S   UNL     1      -1.360  11.793  22.972  0.00  0.00    +0.000 S 
BRANCH  23  28
ATOM     24  C   UNL     1      -6.382  13.423  21.470  0.00  0.00    +0.000 C 
ATOM     25  C   UNL     1      -5.197  12.932  22.212  0.00  0.00    +0.000 A 
ATOM     26  N   UNL     1      -5.167  12.548  23.475  0.00  0.00    +0.000 NA
ATOM     27  N   UNL     1      -3.897  12.150  23.873  0.00  0.00    +0.000 NA
ATOM     28  C   UNL     1      -3.029  12.247  22.891  0.00  0.00    +0.000 A 
ATOM     29  S   UNL     1      -3.683  12.832  21.416  0.00  0.00    +0.000 S 
ENDBRANCH  23  28
ENDBRANCH  22  23
ENDBRANCH  17  22
ENDBRANCH  16  19
ENDBRANCH   1  16
TORSDOF 5
ENDMDL
MODEL 4
REMARK VINA RESULT:      -7.1      8.327     11.289
REMARK  Name = 
REMARK  6 active torsions:
REMARK  status: ('A' for Active; 'I' for Inactive)
REMARK    1  A    between atoms: C_1  and  C_2
REMARK    2  A    between atoms: C_5  and  S_6
REMARK    3  A    between atoms: S_6  and  C_7
REMARK    4  A    between atoms: C_7  and  C_8
REMARK    5  A    between atoms: N_10  and  C_11
REMARK    6  A    between atoms: C_11  and  C_12
REMARK                            x       y       z     vdW  Elec       q    Type
REMARK                         _______ _______ _______ _____ _____    ______ ____
ROOT
ATOM      1  C   UNL     1       2.359   3.762  20.261  0.00  0.00    +0.000 C 
ATOM      2  C   UNL     1       2.675   5.228  20.814  0.00  0.00    +0.000 C 
ATOM      3  C   UNL     1       2.472   6.288  19.759  0.00  0.00    +0.000 A 
ATOM      4  C   UNL     1       2.160   5.867  18.474  0.00  0.00    +0.000 A 
ATOM      5  N   UNL     1       2.394   6.915  17.632  0.00  0.00    +0.000 N 
ATOM      6  C   UNL     1       2.460   8.063  18.381  0.00  0.00    +0.000 A 
ATOM      7  C   UNL     1       2.376   9.388  17.937  0.00  0.00    +0.000 A 
ATOM      8  C   UNL     1       1.111   9.872  18.241  0.00  0.00    +0.000 A 
ATOM      9  C   UNL     1       0.525   9.534  19.456  0.00  0.00    +0.000 A 
ATOM     10  C   UNL     1       1.096   8.526  20.289  0.00  0.00    +0.000 A 
ATOM     11  C   UNL     1       2.018   7.652  19.649  0.00  0.00    +0.000 A 
ATOM     12  C   UNL     1       1.551   4.565  18.099  0.00  0.00    +0.000 C 
ATOM     13  N   UNL     1       1.172   3.846  19.331  0.00  0.00    +0.000 NA
ATOM     14  H   UNL     1       2.298   6.915  16.629  0.00  0.00    +0.000 HD
ATOM     15  H   UNL     1       0.453   4.394  19.805  0.00  0.00    +0.000 HD
ENDROOT
BRANCH   1  16
ATOM     16  C   UNL     1       3.450   2.959  19.472  0.00  0.00    +0.000 C 
BRANCH  16  19
ATOM     17  C   UNL     1       6.364   4.499  18.073  0.00  0.00    +0.000 A 
ATOM     18  C   UNL     1       5.177   3.830  17.868  0.00  0.00    +0.000 A 
ATOM     19  N   UNL     1       4.728   3.534  19.136  0.00  0.00    +0.000 N 
ATOM     20  N   UNL     1       5.501   4.122  20.060  0.00  0.00    +0.000 NA
ATOM     21  N   UNL     1       6.514   4.702  19.426  0.00  0.00    +0.000 NA
BRANCH  17  22
ATOM     22  C   UNL     1       7.439   4.875  17.103  0.00  0.00    +0.000 C 
BRANCH  22  23
ATOM     23  S   UNL     1       6.658   5.964  15.875  0.00  0.00    +0.000 S 
BRANCH  23  28
ATOM     24  C   UNL     1       5.797   2.551  11.662  0.00  0.00    +0.000 C 
ATOM     25  C   UNL     1       6.312   3.597  12.577  0.00  0.00    +0.000 A 
ATOM     26  N   UNL     1       7.317   4.420  12.339  0.00  0.00    +0.000 NA
ATOM     27  N   UNL     1       7.557   5.278  13.406  0.00  0.00    +0.000 NA
ATOM     28  C   UNL     1       6.720   5.065  14.396  0.00  0.00    +0.000 A 
ATOM     29  S   UNL     1       5.584   3.809  14.114  0.00  0.00    +0.000 S 
ENDBRANCH  23  28
ENDBRANCH  22  23
ENDBRANCH  17  22
ENDBRANCH  16  19
ENDBRANCH   1  16
TORSDOF 5
ENDMDL
MODEL 5
REMARK VINA RESULT:      -7.1      9.330     12.189
REMARK  Name = 
REMARK  6 active torsions:
REMARK  status: ('A' for Active; 'I' for Inactive)
REMARK    1  A    between atoms: C_1  and  C_2
REMARK    2  A    between atoms: C_5  and  S_6
REMARK    3  A    between atoms: S_6  and  C_7
REMARK    4  A    between atoms: C_7  and  C_8
REMARK    5  A    between atoms: N_10  and  C_11
REMARK    6  A    between atoms: C_11  and  C_12
REMARK                            x       y       z     vdW  Elec       q    Type
REMARK                         _______ _______ _______ _____ _____    ______ ____
ROOT
ATOM      1  C   UNL     1       6.590   4.604  17.729  0.00  0.00    +0.000 C 
ATOM      2  C   UNL     1       5.984   4.562  19.208  0.00  0.00    +0.000 C 
ATOM      3  C   UNL     1       4.476   4.562  19.202  0.00  0.00    +0.000 A 
ATOM      4  C   UNL     1       3.835   4.705  17.979  0.00  0.00    +0.000 A 
ATOM      5  N   UNL     1       2.541   5.055  18.233  0.00  0.00    +0.000 N 
ATOM      6  C   UNL     1       2.262   4.755  19.543  0.00  0.00    +0.000 A 
ATOM      7  C   UNL     1       1.008   4.652  20.156  0.00  0.00    +0.000 A 
ATOM      8  C   UNL     1       0.710   3.306  20.318  0.00  0.00    +0.000 A 
ATOM      9  C   UNL     1       1.716   2.425  20.700  0.00  0.00    +0.000 A 
ATOM     10  C   UNL     1       3.083   2.834  20.705  0.00  0.00    +0.000 A 
ATOM     11  C   UNL     1       3.376   4.003  19.950  0.00  0.00    +0.000 A 
ATOM     12  C   UNL     1       4.410   4.397  16.645  0.00  0.00    +0.000 C 
ATOM     13  N   UNL     1       5.725   3.752  16.832  0.00  0.00    +0.000 NA
ATOM     14  H   UNL     1       1.829   5.267  17.552  0.00  0.00    +0.000 HD
ATOM     15  H   UNL     1       5.573   2.863  17.311  0.00  0.00    +0.000 HD
ENDROOT
BRANCH   1  16
ATOM     16  C   UNL     1       6.752   5.970  16.977  0.00  0.00    +0.000 C 
BRANCH  16  19
ATOM     17  C   UNL     1       8.207   9.044  18.096  0.00  0.00    +0.000 A 
ATOM     18  C   UNL     1       7.379   8.391  17.208  0.00  0.00    +0.000 A 
ATOM     19  N   UNL     1       7.520   7.058  17.526  0.00  0.00    +0.000 N 
ATOM     20  N   UNL     1       8.255   6.913  18.637  0.00  0.00    +0.000 NA
ATOM     21  N   UNL     1       8.696   8.116  18.988  0.00  0.00    +0.000 NA
BRANCH  17  22
ATOM     22  C   UNL     1       8.672  10.465  18.117  0.00  0.00    +0.000 C 
BRANCH  22  23
ATOM     23  S   UNL     1       9.675  10.650  19.621  0.00  0.00    +0.000 S 
BRANCH  23  28
ATOM     24  C   UNL     1      12.332  15.453  19.670  0.00  0.00    +0.000 C 
ATOM     25  C   UNL     1      11.309  14.382  19.630  0.00  0.00    +0.000 A 
ATOM     26  N   UNL     1      10.005  14.549  19.511  0.00  0.00    +0.000 NA
ATOM     27  N   UNL     1       9.318  13.341  19.516  0.00  0.00    +0.000 NA
ATOM     28  C   UNL     1      10.137  12.319  19.633  0.00  0.00    +0.000 A 
ATOM     29  S   UNL     1      11.795  12.743  19.752  0.00  0.00    +0.000 S 
ENDBRANCH  23  28
ENDBRANCH  22  23
ENDBRANCH  17  22
ENDBRANCH  16  19
ENDBRANCH   1  16
TORSDOF 5
ENDMDL
MODEL 6
REMARK VINA RESULT:      -7.0      6.389      9.696
REMARK  Name = 
REMARK  6 active torsions:
REMARK  status: ('A' for Active; 'I' for Inactive)
REMARK    1  A    between atoms: C_1  and  C_2
REMARK    2  A    between atoms: C_5  and  S_6
REMARK    3  A    between atoms: S_6  and  C_7
REMARK    4  A    between atoms: C_7  and  C_8
REMARK    5  A    between atoms: N_10  and  C_11
REMARK    6  A    between atoms: C_11  and  C_12
REMARK                            x       y       z     vdW  Elec       q    Type
REMARK                         _______ _______ _______ _____ _____    ______ ____
ROOT
ATOM      1  C   UNL     1      -0.125   8.605  21.405  0.00  0.00    +0.000 C 
ATOM      2  C   UNL     1      -0.577   9.304  22.770  0.00  0.00    +0.000 C 
ATOM      3  C   UNL     1      -0.712  10.799  22.623  0.00  0.00    +0.000 A 
ATOM      4  C   UNL     1      -0.337  11.364  21.411  0.00  0.00    +0.000 A 
ATOM      5  N   UNL     1      -0.177  12.704  21.617  0.00  0.00    +0.000 N 
ATOM      6  C   UNL     1      -0.808  13.039  22.789  0.00  0.00    +0.000 A 
ATOM      7  C   UNL     1      -1.169  14.314  23.240  0.00  0.00    +0.000 A 
ATOM      8  C   UNL     1      -2.535  14.473  23.056  0.00  0.00    +0.000 A 
ATOM      9  C   UNL     1      -3.387  13.405  23.315  0.00  0.00    +0.000 A 
ATOM     10  C   UNL     1      -2.870  12.095  23.544  0.00  0.00    +0.000 A 
ATOM     11  C   UNL     1      -1.532  11.880  23.113  0.00  0.00    +0.000 A 
ATOM     12  C   UNL     1      -0.261  10.667  20.102  0.00  0.00    +0.000 C 
ATOM     13  N   UNL     1      -0.811   9.306  20.257  0.00  0.00    +0.000 NA
ATOM     14  H   UNL     1       0.128  13.386  20.940  0.00  0.00    +0.000 HD
ATOM     15  H   UNL     1      -1.798   9.392  20.500  0.00  0.00    +0.000 HD
ENDROOT
BRANCH   1  16
ATOM     16  C   UNL     1       1.391   8.542  21.010  0.00  0.00    +0.000 C 
BRANCH  16  19
ATOM     17  C   UNL     1       3.051   6.289  18.777  0.00  0.00    +0.000 A 
ATOM     18  C   UNL     1       2.584   7.561  19.029  0.00  0.00    +0.000 A 
ATOM     19  N   UNL     1       1.934   7.453  20.239  0.00  0.00    +0.000 N 
ATOM     20  N   UNL     1       2.128   6.239  20.772  0.00  0.00    +0.000 NA
ATOM     21  N   UNL     1       2.795   5.511  19.883  0.00  0.00    +0.000 NA
BRANCH  17  22
ATOM     22  C   UNL     1       3.629   5.703  17.528  0.00  0.00    +0.000 C 
BRANCH  22  23
ATOM     23  S   UNL     1       5.345   5.254  17.924  0.00  0.00    +0.000 S 
BRANCH  23  28
ATOM     24  C   UNL     1       6.692   3.920  12.772  0.00  0.00    +0.000 C 
ATOM     25  C   UNL     1       6.654   4.476  14.145  0.00  0.00    +0.000 A 
ATOM     26  N   UNL     1       7.542   5.291  14.685  0.00  0.00    +0.000 NA
ATOM     27  N   UNL     1       7.222   5.622  15.996  0.00  0.00    +0.000 NA
ATOM     28  C   UNL     1       6.107   5.046  16.382  0.00  0.00    +0.000 A 
ATOM     29  S   UNL     1       5.364   4.057  15.192  0.00  0.00    +0.000 S 
ENDBRANCH  23  28
ENDBRANCH  22  23
ENDBRANCH  17  22
ENDBRANCH  16  19
ENDBRANCH   1  16
TORSDOF 5
ENDMDL
MODEL 7
REMARK VINA RESULT:      -7.0     10.037     11.938
REMARK  Name = 
REMARK  6 active torsions:
REMARK  status: ('A' for Active; 'I' for Inactive)
REMARK    1  A    between atoms: C_1  and  C_2
REMARK    2  A    between atoms: C_5  and  S_6
REMARK    3  A    between atoms: S_6  and  C_7
REMARK    4  A    between atoms: C_7  and  C_8
REMARK    5  A    between atoms: N_10  and  C_11
REMARK    6  A    between atoms: C_11  and  C_12
REMARK                            x       y       z     vdW  Elec       q    Type
REMARK                         _______ _______ _______ _____ _____    ______ ____
ROOT
ATOM      1  C   UNL     1       7.333   5.386  18.328  0.00  0.00    +0.000 C 
ATOM      2  C   UNL     1       6.131   5.333  19.381  0.00  0.00    +0.000 C 
ATOM      3  C   UNL     1       4.853   4.832  18.757  0.00  0.00    +0.000 A 
ATOM      4  C   UNL     1       4.852   4.597  17.389  0.00  0.00    +0.000 A 
ATOM      5  N   UNL     1       3.549   4.527  16.987  0.00  0.00    +0.000 N 
ATOM      6  C   UNL     1       2.766   4.321  18.094  0.00  0.00    +0.000 A 
ATOM      7  C   UNL     1       1.437   3.886  18.142  0.00  0.00    +0.000 A 
ATOM      8  C   UNL     1       1.426   2.550  18.517  0.00  0.00    +0.000 A 
ATOM      9  C   UNL     1       2.311   2.108  19.495  0.00  0.00    +0.000 A 
ATOM     10  C   UNL     1       3.372   2.945  19.953  0.00  0.00    +0.000 A 
ATOM     11  C   UNL     1       3.699   4.039  19.106  0.00  0.00    +0.000 A 
ATOM     12  C   UNL     1       6.042   4.331  16.542  0.00  0.00    +0.000 C 
ATOM     13  N   UNL     1       7.224   4.188  17.415  0.00  0.00    +0.000 NA
ATOM     14  H   UNL     1       3.215   4.403  16.044  0.00  0.00    +0.000 HD
ATOM     15  H   UNL     1       7.080   3.368  18.006  0.00  0.00    +0.000 HD
ENDROOT
BRANCH   1  16
ATOM     16  C   UNL     1       7.501   6.621  17.377  0.00  0.00    +0.000 C 
BRANCH  16  19
ATOM     17  C   UNL     1       8.825   9.587  18.882  0.00  0.00    +0.000 A 
ATOM     18  C   UNL     1       8.739   8.212  18.876  0.00  0.00    +0.000 A 
ATOM     19  N   UNL     1       7.833   7.930  17.877  0.00  0.00    +0.000 N 
ATOM     20  N   UNL     1       7.509   9.045  17.206  0.00  0.00    +0.000 NA
ATOM     21  N   UNL     1       8.094  10.067  17.819  0.00  0.00    +0.000 NA
BRANCH  17  22
ATOM     22  C   UNL     1       9.454  10.510  19.876  0.00  0.00    +0.000 C 
BRANCH  22  23
ATOM     23  S   UNL     1      10.719  11.449  18.968  0.00  0.00    +0.000 S 
BRANCH  23  28
ATOM     24  C   UNL     1       8.098  16.230  18.322  0.00  0.00    +0.000 C 
ATOM     25  C   UNL     1       9.004  15.139  18.752  0.00  0.00    +0.000 A 
ATOM     26  N   UNL     1       9.941  15.219  19.679  0.00  0.00    +0.000 NA
ATOM     27  N   UNL     1      10.625  14.020  19.840  0.00  0.00    +0.000 NA
ATOM     28  C   UNL     1      10.169  13.091  19.031  0.00  0.00    +0.000 A 
ATOM     29  S   UNL     1       8.884  13.598  18.012  0.00  0.00    +0.000 S 
ENDBRANCH  23  28
ENDBRANCH  22  23
ENDBRANCH  17  22
ENDBRANCH  16  19
ENDBRANCH   1  16
TORSDOF 5
ENDMDL
MODEL 8
REMARK VINA RESULT:      -7.0      1.762      2.833
REMARK  Name = 
REMARK  6 active torsions:
REMARK  status: ('A' for Active; 'I' for Inactive)
REMARK    1  A    between atoms: C_1  and  C_2
REMARK    2  A    between atoms: C_5  and  S_6
REMARK    3  A    between atoms: S_6  and  C_7
REMARK    4  A    between atoms: C_7  and  C_8
REMARK    5  A    between atoms: N_10  and  C_11
REMARK    6  A    between atoms: C_11  and  C_12
REMARK                            x       y       z     vdW  Elec       q    Type
REMARK                         _______ _______ _______ _____ _____    ______ ____
ROOT
ATOM      1  C   UNL     1       1.217  11.283  19.591  0.00  0.00    +0.000 C 
ATOM      2  C   UNL     1       0.138  10.154  19.248  0.00  0.00    +0.000 C 
ATOM      3  C   UNL     1      -1.078  10.723  18.561  0.00  0.00    +0.000 A 
ATOM      4  C   UNL     1      -1.153  12.102  18.420  0.00  0.00    +0.000 A 
ATOM      5  N   UNL     1      -2.451  12.414  18.137  0.00  0.00    +0.000 N 
ATOM      6  C   UNL     1      -3.088  11.273  17.717  0.00  0.00    +0.000 A 
ATOM      7  C   UNL     1      -4.309  11.165  17.042  0.00  0.00    +0.000 A 
ATOM      8  C   UNL     1      -4.047  10.898  15.705  0.00  0.00    +0.000 A 
ATOM      9  C   UNL     1      -3.019  10.024  15.372  0.00  0.00    +0.000 A 
ATOM     10  C   UNL     1      -2.089   9.578  16.359  0.00  0.00    +0.000 A 
ATOM     11  C   UNL     1      -2.037  10.357  17.548  0.00  0.00    +0.000 A 
ATOM     12  C   UNL     1      -0.011  13.050  18.435  0.00  0.00    +0.000 C 
ATOM     13  N   UNL     1       1.248  12.278  18.456  0.00  0.00    +0.000 NA
ATOM     14  H   UNL     1      -2.836  13.337  18.015  0.00  0.00    +0.000 HD
ATOM     15  H   UNL     1       1.303  11.746  17.587  0.00  0.00    +0.000 HD
ENDROOT
BRANCH   1  16
ATOM     16  C   UNL     1       1.080  12.142  20.895  0.00  0.00    +0.000 C 
BRANCH  16  19
ATOM     17  C   UNL     1      -1.893  11.839  22.867  0.00  0.00    +0.000 A 
ATOM     18  C   UNL     1      -1.210  12.495  21.867  0.00  0.00    +0.000 A 
ATOM     19  N   UNL     1       0.035  11.906  21.859  0.00  0.00    +0.000 N 
ATOM     20  N   UNL     1       0.063  10.851  22.686  0.00  0.00    +0.000 NA
ATOM     21  N   UNL     1      -1.103  10.807  23.321  0.00  0.00    +0.000 NA
BRANCH  17  22
ATOM     22  C   UNL     1      -3.199  12.166  23.520  0.00  0.00    +0.000 C 
BRANCH  22  23
ATOM     23  S   UNL     1      -4.146  13.131  22.305  0.00  0.00    +0.000 S 
BRANCH  23  28
ATOM     24  C   UNL     1      -4.862  17.791  25.118  0.00  0.00    +0.000 C 
ATOM     25  C   UNL     1      -5.046  16.510  24.396  0.00  0.00    +0.000 A 
ATOM     26  N   UNL     1      -6.194  15.898  24.168  0.00  0.00    +0.000 NA
ATOM     27  N   UNL     1      -6.025  14.707  23.472  0.00  0.00    +0.000 NA
ATOM     28  C   UNL     1      -4.759  14.478  23.205  0.00  0.00    +0.000 A 
ATOM     29  S   UNL     1      -3.679  15.682  23.778  0.00  0.00    +0.000 S 
ENDBRANCH  23  28
ENDBRANCH  22  23
ENDBRANCH  17  22
ENDBRANCH  16  19
ENDBRANCH   1  16
TORSDOF 5
ENDMDL
MODEL 9
REMARK VINA RESULT:      -6.9      9.805     12.077
REMARK  Name = 
REMARK  6 active torsions:
REMARK  status: ('A' for Active; 'I' for Inactive)
REMARK    1  A    between atoms: C_1  and  C_2
REMARK    2  A    between atoms: C_5  and  S_6
REMARK    3  A    between atoms: S_6  and  C_7
REMARK    4  A    between atoms: C_7  and  C_8
REMARK    5  A    between atoms: N_10  and  C_11
REMARK    6  A    between atoms: C_11  and  C_12
REMARK                            x       y       z     vdW  Elec       q    Type
REMARK                         _______ _______ _______ _____ _____    ______ ____
ROOT
ATOM      1  C   UNL     1       5.879   5.272  16.899  0.00  0.00    +0.000 C 
ATOM      2  C   UNL     1       5.243   3.816  17.078  0.00  0.00    +0.000 C 
ATOM      3  C   UNL     1       4.307   3.748  18.259  0.00  0.00    +0.000 A 
ATOM      4  C   UNL     1       4.207   4.871  19.068  0.00  0.00    +0.000 A 
ATOM      5  N   UNL     1       3.633   4.480  20.242  0.00  0.00    +0.000 N 
ATOM      6  C   UNL     1       3.028   3.264  20.043  0.00  0.00    +0.000 A 
ATOM      7  C   UNL     1       2.076   2.632  20.850  0.00  0.00    +0.000 A 
ATOM      8  C   UNL     1       0.831   2.774  20.252  0.00  0.00    +0.000 A 
ATOM      9  C   UNL     1       0.721   2.658  18.871  0.00  0.00    +0.000 A 
ATOM     10  C   UNL     1       1.883   2.624  18.044  0.00  0.00    +0.000 A 
ATOM     11  C   UNL     1       3.080   3.099  18.649  0.00  0.00    +0.000 A 
ATOM     12  C   UNL     1       4.533   6.267  18.678  0.00  0.00    +0.000 C 
ATOM     13  N   UNL     1       4.825   6.301  17.231  0.00  0.00    +0.000 NA
ATOM     14  H   UNL     1       3.459   5.057  21.050  0.00  0.00    +0.000 HD
ATOM     15  H   UNL     1       3.974   6.035  16.734  0.00  0.00    +0.000 HD
ENDROOT
BRANCH   1  16
ATOM     16  C   UNL     1       7.145   5.692  17.723  0.00  0.00    +0.000 C 
BRANCH  16  19
ATOM     17  C   UNL     1       8.556   8.890  18.498  0.00  0.00    +0.000 A 
ATOM     18  C   UNL     1       8.405   7.561  18.831  0.00  0.00    +0.000 A 
ATOM     19  N   UNL     1       7.521   7.072  17.895  0.00  0.00    +0.000 N 
ATOM     20  N   UNL     1       7.273   7.993  16.953  0.00  0.00    +0.000 NA
ATOM     21  N   UNL     1       7.885   9.115  17.317  0.00  0.00    +0.000 NA
BRANCH  17  22
ATOM     22  C   UNL     1       9.194  10.009  19.258  0.00  0.00    +0.000 C 
BRANCH  22  23
ATOM     23  S   UNL     1       9.131  11.463  18.168  0.00  0.00    +0.000 S 
BRANCH  23  28
ATOM     24  C   UNL     1      10.462  15.292  21.869  0.00  0.00    +0.000 C 
ATOM     25  C   UNL     1      10.436  14.361  20.717  0.00  0.00    +0.000 A 
ATOM     26  N   UNL     1      11.374  14.226  19.797  0.00  0.00    +0.000 NA
ATOM     27  N   UNL     1      11.041  13.273  18.843  0.00  0.00    +0.000 NA
ATOM     28  C   UNL     1       9.870  12.729  19.090  0.00  0.00    +0.000 A 
ATOM     29  S   UNL     1       9.083  13.334  20.490  0.00  0.00    +0.000 S 
ENDBRANCH  23  28
ENDBRANCH  22  23
ENDBRANCH  17  22
ENDBRANCH  16  19
ENDBRANCH   1  16
TORSDOF 5
ENDMDL
