MODEL 1
REMARK VINA RESULT:      -7.9      0.000      0.000
REMARK  Name = 
REMARK  6 active torsions:
REMARK  status: ('A' for Active; 'I' for Inactive)
REMARK    1  A    between atoms: C_2  and  C_22
REMARK    2  A    between atoms: N_3  and  C_4
REMARK    3  A    between atoms: C_4  and  C_5
REMARK    4  A    between atoms: C_9  and  C_11
REMARK    5  A    between atoms: C_15  and  N_16
REMARK    6  A    between atoms: C_26  and  N_27
REMARK                            x       y       z     vdW  Elec       q    Type
REMARK                         _______ _______ _______ _____ _____    ______ ____
ROOT
ATOM      1  C   UNL     1       0.446   9.909  18.763  0.00  0.00    +0.000 C 
ATOM      2  C   UNL     1       0.108   9.076  20.017  0.00  0.00    +0.000 C 
ATOM      3  C   UNL     1       1.348   8.462  20.667  0.00  0.00    +0.000 C 
ATOM      4  N   UNL     1       2.113   7.694  19.682  0.00  0.00    +0.000 N 
ATOM      5  C   UNL     1       2.227   6.311  19.865  0.00  0.00    +0.000 C 
ATOM      6  O   UNL     1       1.656   5.715  20.779  0.00  0.00    +0.000 OA
ATOM      7  C   UNL     1       2.521   8.467  18.508  0.00  0.00    +0.000 C 
ATOM      8  C   UNL     1       1.316   9.082  17.810  0.00  0.00    +0.000 C 
ENDROOT
BRANCH   5   9
ATOM      9  C   UNL     1       3.039   5.478  18.934  0.00  0.00    +0.000 A 
ATOM     10  C   UNL     1       2.376   4.692  17.977  0.00  0.00    +0.000 A 
ATOM     11  C   UNL     1       3.100   3.889  17.089  0.00  0.00    +0.000 A 
ATOM     12  C   UNL     1       4.494   3.881  17.133  0.00  0.00    +0.000 A 
ATOM     13  C   UNL     1       5.152   4.641  18.105  0.00  0.00    +0.000 A 
ATOM     14  C   UNL     1       4.429   5.392  19.036  0.00  0.00    +0.000 A 
BRANCH  13  15
ATOM     15  N   UNL     1       6.619   4.679  18.149  0.00  0.00    +0.000 N 
ATOM     16  O   UNL     1       7.157   4.922  19.237  0.00  0.00    +0.000 OA
ATOM     17  O   UNL     1       7.231   4.440  17.099  0.00  0.00    +0.000 OA
ENDBRANCH  13  15
ENDBRANCH   5   9
BRANCH   1  18
ATOM     18  C   UNL     1       1.118  11.246  19.114  0.00  0.00    +0.000 C 
BRANCH  18  21
ATOM     19  O   UNL     1      -1.168  12.923  19.070  0.00  0.00    +0.000 OA
ATOM     20  C   UNL     1      -0.641  12.648  20.133  0.00  0.00    +0.000 C 
ATOM     21  N   UNL     1       0.484  11.857  20.264  0.00  0.00    +0.000 N 
ATOM     22  H   UNL     1       0.693  11.466  21.175  0.00  0.00    +0.000 HD
BRANCH  20  23
ATOM     23  C   UNL     1      -1.228  13.126  21.412  0.00  0.00    +0.000 A 
ATOM     24  C   UNL     1      -0.530  14.014  22.245  0.00  0.00    +0.000 A 
ATOM     25  C   UNL     1      -1.068  14.388  23.478  0.00  0.00    +0.000 A 
ATOM     26  C   UNL     1      -2.307  13.886  23.878  0.00  0.00    +0.000 A 
ATOM     27  C   UNL     1      -3.019  13.030  23.025  0.00  0.00    +0.000 A 
ATOM     28  C   UNL     1      -2.493  12.657  21.783  0.00  0.00    +0.000 A 
BRANCH  27  29
ATOM     29  N   UNL     1      -4.317  12.496  23.456  0.00  0.00    +0.000 N 
ATOM     30  O   UNL     1      -5.248  12.519  22.636  0.00  0.00    +0.000 OA
ATOM     31  O   UNL     1      -4.411  12.067  24.614  0.00  0.00    +0.000 OA
ENDBRANCH  27  29
ENDBRANCH  20  23
ENDBRANCH  18  21
ENDBRANCH   1  18
TORSDOF 6
ENDMDL
MODEL 2
REMARK VINA RESULT:      -7.8      2.132     10.652
REMARK  Name = 
REMARK  6 active torsions:
REMARK  status: ('A' for Active; 'I' for Inactive)
REMARK    1  A    between atoms: C_2  and  C_22
REMARK    2  A    between atoms: N_3  and  C_4
REMARK    3  A    between atoms: C_4  and  C_5
REMARK    4  A    between atoms: C_9  and  C_11
REMARK    5  A    between atoms: C_15  and  N_16
REMARK    6  A    between atoms: C_26  and  N_27
REMARK                            x       y       z     vdW  Elec       q    Type
REMARK                         _______ _______ _______ _____ _____    ______ ____
ROOT
ATOM      1  C   UNL     1       0.073   9.068  20.836  0.00  0.00    +0.000 C 
ATOM      2  C   UNL     1      -0.031  10.138  19.730  0.00  0.00    +0.000 C 
ATOM      3  C   UNL     1       0.374  11.529  20.217  0.00  0.00    +0.000 C 
ATOM      4  N   UNL     1      -0.390  11.894  21.411  0.00  0.00    +0.000 N 
ATOM      5  C   UNL     1      -1.273  12.976  21.328  0.00  0.00    +0.000 C 
ATOM      6  O   UNL     1      -1.477  13.585  20.277  0.00  0.00    +0.000 OA
ATOM      7  C   UNL     1      -0.260  10.943  22.517  0.00  0.00    +0.000 C 
ATOM      8  C   UNL     1      -0.673   9.542  22.087  0.00  0.00    +0.000 C 
ENDROOT
BRANCH   5   9
ATOM      9  C   UNL     1      -2.038  13.437  22.521  0.00  0.00    +0.000 A 
ATOM     10  C   UNL     1      -1.420  14.321  23.420  0.00  0.00    +0.000 A 
ATOM     11  C   UNL     1      -2.099  14.772  24.557  0.00  0.00    +0.000 A 
ATOM     12  C   UNL     1      -3.411  14.363  24.794  0.00  0.00    +0.000 A 
ATOM     13  C   UNL     1      -4.016  13.460  23.914  0.00  0.00    +0.000 A 
ATOM     14  C   UNL     1      -3.316  12.956  22.814  0.00  0.00    +0.000 A 
BRANCH  13  15
ATOM     15  N   UNL     1      -5.408  13.043  24.120  0.00  0.00    +0.000 N 
ATOM     16  O   UNL     1      -5.609  11.913  24.585  0.00  0.00    +0.000 OA
ATOM     17  O   UNL     1      -6.299  13.857  23.840  0.00  0.00    +0.000 OA
ENDBRANCH  13  15
ENDBRANCH   5   9
BRANCH   1  18
ATOM     18  C   UNL     1       1.531   8.704  21.161  0.00  0.00    +0.000 C 
BRANCH  18  21
ATOM     19  O   UNL     1       2.450   7.941  18.590  0.00  0.00    +0.000 OA
ATOM     20  C   UNL     1       2.295   7.094  19.451  0.00  0.00    +0.000 C 
ATOM     21  N   UNL     1       1.835   7.355  20.727  0.00  0.00    +0.000 N 
ATOM     22  H   UNL     1       1.988   6.658  21.445  0.00  0.00    +0.000 HD
BRANCH  20  23
ATOM     23  C   UNL     1       2.651   5.676  19.187  0.00  0.00    +0.000 A 
ATOM     24  C   UNL     1       2.788   5.193  17.877  0.00  0.00    +0.000 A 
ATOM     25  C   UNL     1       3.046   3.839  17.652  0.00  0.00    +0.000 A 
ATOM     26  C   UNL     1       3.180   2.967  18.732  0.00  0.00    +0.000 A 
ATOM     27  C   UNL     1       3.082   3.461  20.041  0.00  0.00    +0.000 A 
ATOM     28  C   UNL     1       2.832   4.818  20.277  0.00  0.00    +0.000 A 
BRANCH  27  29
ATOM     29  N   UNL     1       3.212   2.537  21.175  0.00  0.00    +0.000 N 
ATOM     30  O   UNL     1       2.255   2.453  21.960  0.00  0.00    +0.000 OA
ATOM     31  O   UNL     1       4.272   1.907  21.290  0.00  0.00    +0.000 OA
ENDBRANCH  27  29
ENDBRANCH  20  23
ENDBRANCH  18  21
ENDBRANCH   1  18
TORSDOF 6
ENDMDL
MODEL 3
REMARK VINA RESULT:      -7.8      2.094     10.673
REMARK  Name = 
REMARK  6 active torsions:
REMARK  status: ('A' for Active; 'I' for Inactive)
REMARK    1  A    between atoms: C_2  and  C_22
REMARK    2  A    between atoms: N_3  and  C_4
REMARK    3  A    between atoms: C_4  and  C_5
REMARK    4  A    between atoms: C_9  and  C_11
REMARK    5  A    between atoms: C_15  and  N_16
REMARK    6  A    between atoms: C_26  and  N_27
REMARK                            x       y       z     vdW  Elec       q    Type
REMARK                         _______ _______ _______ _____ _____    ______ ____
ROOT
ATOM      1  C   UNL     1       0.257   8.551  20.796  0.00  0.00    +0.000 C 
ATOM      2  C   UNL     1       0.393   9.703  19.780  0.00  0.00    +0.000 C 
ATOM      3  C   UNL     1       0.856  11.008  20.429  0.00  0.00    +0.000 C 
ATOM      4  N   UNL     1      -0.020  11.360  21.549  0.00  0.00    +0.000 N 
ATOM      5  C   UNL     1      -0.784  12.528  21.451  0.00  0.00    +0.000 C 
ATOM      6  O   UNL     1      -0.794  13.229  20.438  0.00  0.00    +0.000 OA
ATOM      7  C   UNL     1      -0.120  10.322  22.577  0.00  0.00    +0.000 C 
ATOM      8  C   UNL     1      -0.599   9.005  21.983  0.00  0.00    +0.000 C 
ENDROOT
BRANCH   5   9
ATOM      9  C   UNL     1      -1.651  12.976  22.577  0.00  0.00    +0.000 A 
ATOM     10  C   UNL     1      -2.867  12.309  22.800  0.00  0.00    +0.000 A 
ATOM     11  C   UNL     1      -3.715  12.702  23.841  0.00  0.00    +0.000 A 
ATOM     12  C   UNL     1      -3.345  13.750  24.684  0.00  0.00    +0.000 A 
ATOM     13  C   UNL     1      -2.148  14.433  24.443  0.00  0.00    +0.000 A 
ATOM     14  C   UNL     1      -1.332  14.085  23.363  0.00  0.00    +0.000 A 
BRANCH  13  15
ATOM     15  N   UNL     1      -1.719  15.515  25.338  0.00  0.00    +0.000 N 
ATOM     16  O   UNL     1      -0.556  15.486  25.760  0.00  0.00    +0.000 OA
ATOM     17  O   UNL     1      -2.540  16.405  25.597  0.00  0.00    +0.000 OA
ENDBRANCH  13  15
ENDBRANCH   5   9
BRANCH   1  18
ATOM     18  C   UNL     1       1.621   8.020  21.264  0.00  0.00    +0.000 C 
BRANCH  18  21
ATOM     19  O   UNL     1       1.557   5.221  20.815  0.00  0.00    +0.000 OA
ATOM     20  C   UNL     1       2.182   5.940  20.056  0.00  0.00    +0.000 C 
ATOM     21  N   UNL     1       2.293   7.309  20.194  0.00  0.00    +0.000 N 
ATOM     22  H   UNL     1       2.596   7.851  19.394  0.00  0.00    +0.000 HD
BRANCH  20  23
ATOM     23  C   UNL     1       2.852   5.371  18.858  0.00  0.00    +0.000 A 
ATOM     24  C   UNL     1       2.623   4.045  18.458  0.00  0.00    +0.000 A 
ATOM     25  C   UNL     1       3.322   3.508  17.376  0.00  0.00    +0.000 A 
ATOM     26  C   UNL     1       4.244   4.294  16.683  0.00  0.00    +0.000 A 
ATOM     27  C   UNL     1       4.441   5.630  17.061  0.00  0.00    +0.000 A 
ATOM     28  C   UNL     1       3.738   6.181  18.139  0.00  0.00    +0.000 A 
BRANCH  27  29
ATOM     29  N   UNL     1       5.421   6.450  16.337  0.00  0.00    +0.000 N 
ATOM     30  O   UNL     1       5.507   6.291  15.110  0.00  0.00    +0.000 OA
ATOM     31  O   UNL     1       6.112   7.240  16.994  0.00  0.00    +0.000 OA
ENDBRANCH  27  29
ENDBRANCH  20  23
ENDBRANCH  18  21
ENDBRANCH   1  18
TORSDOF 6
ENDMDL
MODEL 4
REMARK VINA RESULT:      -7.7      2.572     10.500
REMARK  Name = 
REMARK  6 active torsions:
REMARK  status: ('A' for Active; 'I' for Inactive)
REMARK    1  A    between atoms: C_2  and  C_22
REMARK    2  A    between atoms: N_3  and  C_4
REMARK    3  A    between atoms: C_4  and  C_5
REMARK    4  A    between atoms: C_9  and  C_11
REMARK    5  A    between atoms: C_15  and  N_16
REMARK    6  A    between atoms: C_26  and  N_27
REMARK                            x       y       z     vdW  Elec       q    Type
REMARK                         _______ _______ _______ _____ _____    ______ ____
ROOT
ATOM      1  C   UNL     1      -0.021   8.795  21.065  0.00  0.00    +0.000 C 
ATOM      2  C   UNL     1      -0.514   9.668  19.893  0.00  0.00    +0.000 C 
ATOM      3  C   UNL     1      -0.228  11.155  20.107  0.00  0.00    +0.000 C 
ATOM      4  N   UNL     1      -0.770  11.599  21.393  0.00  0.00    +0.000 N 
ATOM      5  C   UNL     1      -1.803  12.543  21.385  0.00  0.00    +0.000 C 
ATOM      6  O   UNL     1      -2.311  12.961  20.344  0.00  0.00    +0.000 OA
ATOM      7  C   UNL     1      -0.270  10.844  22.544  0.00  0.00    +0.000 C 
ATOM      8  C   UNL     1      -0.551   9.356  22.388  0.00  0.00    +0.000 C 
ENDROOT
BRANCH   5   9
ATOM      9  C   UNL     1      -2.360  13.082  22.658  0.00  0.00    +0.000 A 
ATOM     10  C   UNL     1      -3.502  12.476  23.206  0.00  0.00    +0.000 A 
ATOM     11  C   UNL     1      -4.063  12.955  24.395  0.00  0.00    +0.000 A 
ATOM     12  C   UNL     1      -3.474  14.030  25.061  0.00  0.00    +0.000 A 
ATOM     13  C   UNL     1      -2.354  14.651  24.500  0.00  0.00    +0.000 A 
ATOM     14  C   UNL     1      -1.832  14.216  23.278  0.00  0.00    +0.000 A 
BRANCH  13  15
ATOM     15  N   UNL     1      -1.693  15.760  25.199  0.00  0.00    +0.000 N 
ATOM     16  O   UNL     1      -2.214  16.880  25.125  0.00  0.00    +0.000 OA
ATOM     17  O   UNL     1      -0.667  15.502  25.842  0.00  0.00    +0.000 OA
ENDBRANCH  13  15
ENDBRANCH   5   9
BRANCH   1  18
ATOM     18  C   UNL     1       1.509   8.659  21.090  0.00  0.00    +0.000 C 
BRANCH  18  21
ATOM     19  O   UNL     1       2.362   8.577  18.386  0.00  0.00    +0.000 OA
ATOM     20  C   UNL     1       2.349   7.554  19.047  0.00  0.00    +0.000 C 
ATOM     21  N   UNL     1       1.936   7.480  20.363  0.00  0.00    +0.000 N 
ATOM     22  H   UNL     1       2.204   6.669  20.906  0.00  0.00    +0.000 HD
BRANCH  20  23
ATOM     23  C   UNL     1       2.844   6.278  18.469  0.00  0.00    +0.000 A 
ATOM     24  C   UNL     1       3.937   6.254  17.589  0.00  0.00    +0.000 A 
ATOM     25  C   UNL     1       4.335   5.054  16.998  0.00  0.00    +0.000 A 
ATOM     26  C   UNL     1       3.653   3.873  17.290  0.00  0.00    +0.000 A 
ATOM     27  C   UNL     1       2.586   3.894  18.201  0.00  0.00    +0.000 A 
ATOM     28  C   UNL     1       2.185   5.091  18.806  0.00  0.00    +0.000 A 
BRANCH  27  29
ATOM     29  N   UNL     1       1.863   2.651  18.497  0.00  0.00    +0.000 N 
ATOM     30  O   UNL     1       2.529   1.676  18.876  0.00  0.00    +0.000 OA
ATOM     31  O   UNL     1       0.635   2.644  18.339  0.00  0.00    +0.000 OA
ENDBRANCH  27  29
ENDBRANCH  20  23
ENDBRANCH  18  21
ENDBRANCH   1  18
TORSDOF 6
ENDMDL
MODEL 5
REMARK VINA RESULT:      -7.7      2.224     10.755
REMARK  Name = 
REMARK  6 active torsions:
REMARK  status: ('A' for Active; 'I' for Inactive)
REMARK    1  A    between atoms: C_2  and  C_22
REMARK    2  A    between atoms: N_3  and  C_4
REMARK    3  A    between atoms: C_4  and  C_5
REMARK    4  A    between atoms: C_9  and  C_11
REMARK    5  A    between atoms: C_15  and  N_16
REMARK    6  A    between atoms: C_26  and  N_27
REMARK                            x       y       z     vdW  Elec       q    Type
REMARK                         _______ _______ _______ _____ _____    ______ ____
ROOT
ATOM      1  C   UNL     1      -0.016   8.736  21.037  0.00  0.00    +0.000 C 
ATOM      2  C   UNL     1      -0.426   9.660  19.872  0.00  0.00    +0.000 C 
ATOM      3  C   UNL     1      -0.083  11.126  20.135  0.00  0.00    +0.000 C 
ATOM      4  N   UNL     1      -0.653  11.562  21.411  0.00  0.00    +0.000 N 
ATOM      5  C   UNL     1      -1.641  12.552  21.392  0.00  0.00    +0.000 C 
ATOM      6  O   UNL     1      -2.091  13.018  20.344  0.00  0.00    +0.000 OA
ATOM      7  C   UNL     1      -0.230  10.758  22.559  0.00  0.00    +0.000 C 
ATOM      8  C   UNL     1      -0.570   9.288  22.355  0.00  0.00    +0.000 C 
ENDROOT
BRANCH   5   9
ATOM      9  C   UNL     1      -2.222  13.083  22.657  0.00  0.00    +0.000 A 
ATOM     10  C   UNL     1      -3.403  12.508  23.153  0.00  0.00    +0.000 A 
ATOM     11  C   UNL     1      -3.986  12.982  24.333  0.00  0.00    +0.000 A 
ATOM     12  C   UNL     1      -3.382  14.020  25.042  0.00  0.00    +0.000 A 
ATOM     13  C   UNL     1      -2.221  14.612  24.533  0.00  0.00    +0.000 A 
ATOM     14  C   UNL     1      -1.675  14.184  23.319  0.00  0.00    +0.000 A 
BRANCH  13  15
ATOM     15  N   UNL     1      -1.545  15.680  25.278  0.00  0.00    +0.000 N 
ATOM     16  O   UNL     1      -0.321  15.587  25.437  0.00  0.00    +0.000 OA
ATOM     17  O   UNL     1      -2.237  16.624  25.683  0.00  0.00    +0.000 OA
ENDBRANCH  13  15
ENDBRANCH   5   9
BRANCH   1  18
ATOM     18  C   UNL     1       1.505   8.531  21.114  0.00  0.00    +0.000 C 
BRANCH  18  21
ATOM     19  O   UNL     1       2.421   8.644  18.433  0.00  0.00    +0.000 OA
ATOM     20  C   UNL     1       2.363   7.571  19.007  0.00  0.00    +0.000 C 
ATOM     21  N   UNL     1       1.916   7.403  20.302  0.00  0.00    +0.000 N 
ATOM     22  H   UNL     1       2.148   6.543  20.783  0.00  0.00    +0.000 HD
BRANCH  20  23
ATOM     23  C   UNL     1       2.837   6.332  18.337  0.00  0.00    +0.000 A 
ATOM     24  C   UNL     1       2.181   5.106  18.529  0.00  0.00    +0.000 A 
ATOM     25  C   UNL     1       2.689   3.941  17.954  0.00  0.00    +0.000 A 
ATOM     26  C   UNL     1       3.847   3.996  17.176  0.00  0.00    +0.000 A 
ATOM     27  C   UNL     1       4.477   5.229  16.954  0.00  0.00    +0.000 A 
ATOM     28  C   UNL     1       3.970   6.404  17.520  0.00  0.00    +0.000 A 
BRANCH  27  29
ATOM     29  N   UNL     1       5.701   5.281  16.145  0.00  0.00    +0.000 N 
ATOM     30  O   UNL     1       5.834   6.235  15.364  0.00  0.00    +0.000 OA
ATOM     31  O   UNL     1       6.522   4.363  16.279  0.00  0.00    +0.000 OA
ENDBRANCH  27  29
ENDBRANCH  20  23
ENDBRANCH  18  21
ENDBRANCH   1  18
TORSDOF 6
ENDMDL
MODEL 6
REMARK VINA RESULT:      -7.7      0.999     10.827
REMARK  Name = 
REMARK  6 active torsions:
REMARK  status: ('A' for Active; 'I' for Inactive)
REMARK    1  A    between atoms: C_2  and  C_22
REMARK    2  A    between atoms: N_3  and  C_4
REMARK    3  A    between atoms: C_4  and  C_5
REMARK    4  A    between atoms: C_9  and  C_11
REMARK    5  A    between atoms: C_15  and  N_16
REMARK    6  A    between atoms: C_26  and  N_27
REMARK                            x       y       z     vdW  Elec       q    Type
REMARK                         _______ _______ _______ _____ _____    ______ ____
ROOT
ATOM      1  C   UNL     1       0.350   8.603  20.610  0.00  0.00    +0.000 C 
ATOM      2  C   UNL     1       0.538   9.750  19.596  0.00  0.00    +0.000 C 
ATOM      3  C   UNL     1       0.980  11.055  20.259  0.00  0.00    +0.000 C 
ATOM      4  N   UNL     1       0.057  11.416  21.338  0.00  0.00    +0.000 N 
ATOM      5  C   UNL     1      -0.694  12.589  21.201  0.00  0.00    +0.000 C 
ATOM      6  O   UNL     1      -0.656  13.285  20.186  0.00  0.00    +0.000 OA
ATOM      7  C   UNL     1      -0.095  10.384  22.365  0.00  0.00    +0.000 C 
ATOM      8  C   UNL     1      -0.555   9.067  21.755  0.00  0.00    +0.000 C 
ENDROOT
BRANCH   5   9
ATOM      9  C   UNL     1      -1.608  13.046  22.285  0.00  0.00    +0.000 A 
ATOM     10  C   UNL     1      -1.110  13.920  23.266  0.00  0.00    +0.000 A 
ATOM     11  C   UNL     1      -1.932  14.367  24.306  0.00  0.00    +0.000 A 
ATOM     12  C   UNL     1      -3.266  13.965  24.363  0.00  0.00    +0.000 A 
ATOM     13  C   UNL     1      -3.754  13.072  23.403  0.00  0.00    +0.000 A 
ATOM     14  C   UNL     1      -2.916  12.572  22.403  0.00  0.00    +0.000 A 
BRANCH  13  15
ATOM     15  N   UNL     1      -5.163  12.662  23.420  0.00  0.00    +0.000 N 
ATOM     16  O   UNL     1      -5.745  12.642  24.512  0.00  0.00    +0.000 OA
ATOM     17  O   UNL     1      -5.693  12.385  22.336  0.00  0.00    +0.000 OA
ENDBRANCH  13  15
ENDBRANCH   5   9
BRANCH   1  18
ATOM     18  C   UNL     1       1.688   8.065  21.140  0.00  0.00    +0.000 C 
BRANCH  18  21
ATOM     19  O   UNL     1       1.713   5.231  21.055  0.00  0.00    +0.000 OA
ATOM     20  C   UNL     1       2.283   5.866  20.186  0.00  0.00    +0.000 C 
ATOM     21  N   UNL     1       2.347   7.245  20.143  0.00  0.00    +0.000 N 
ATOM     22  H   UNL     1       2.600   7.687  19.268  0.00  0.00    +0.000 HD
BRANCH  20  23
ATOM     23  C   UNL     1       2.929   5.169  19.044  0.00  0.00    +0.000 A 
ATOM     24  C   UNL     1       2.198   4.308  18.211  0.00  0.00    +0.000 A 
ATOM     25  C   UNL     1       2.842   3.603  17.193  0.00  0.00    +0.000 A 
ATOM     26  C   UNL     1       4.215   3.763  16.995  0.00  0.00    +0.000 A 
ATOM     27  C   UNL     1       4.934   4.655  17.804  0.00  0.00    +0.000 A 
ATOM     28  C   UNL     1       4.295   5.373  18.822  0.00  0.00    +0.000 A 
BRANCH  27  29
ATOM     29  N   UNL     1       6.379   4.812  17.600  0.00  0.00    +0.000 N 
ATOM     30  O   UNL     1       6.760   5.261  16.509  0.00  0.00    +0.000 OA
ATOM     31  O   UNL     1       7.134   4.475  18.523  0.00  0.00    +0.000 OA
ENDBRANCH  27  29
ENDBRANCH  20  23
ENDBRANCH  18  21
ENDBRANCH   1  18
TORSDOF 6
ENDMDL
MODEL 7
REMARK VINA RESULT:      -7.5      1.189      1.401
REMARK  Name = 
REMARK  6 active torsions:
REMARK  status: ('A' for Active; 'I' for Inactive)
REMARK    1  A    between atoms: C_2  and  C_22
REMARK    2  A    between atoms: N_3  and  C_4
REMARK    3  A    between atoms: C_4  and  C_5
REMARK    4  A    between atoms: C_9  and  C_11
REMARK    5  A    between atoms: C_15  and  N_16
REMARK    6  A    between atoms: C_26  and  N_27
REMARK                            x       y       z     vdW  Elec       q    Type
REMARK                         _______ _______ _______ _____ _____    ______ ____
ROOT
ATOM      1  C   UNL     1       0.221  10.005  18.809  0.00  0.00    +0.000 C 
ATOM      2  C   UNL     1       0.071   9.175  20.100  0.00  0.00    +0.000 C 
ATOM      3  C   UNL     1       1.404   8.620  20.601  0.00  0.00    +0.000 C 
ATOM      4  N   UNL     1       2.077   7.871  19.538  0.00  0.00    +0.000 N 
ATOM      5  C   UNL     1       2.269   6.497  19.716  0.00  0.00    +0.000 C 
ATOM      6  O   UNL     1       1.837   5.889  20.696  0.00  0.00    +0.000 OA
ATOM      7  C   UNL     1       2.308   8.645  18.317  0.00  0.00    +0.000 C 
ATOM      8  C   UNL     1       1.004   9.203  17.765  0.00  0.00    +0.000 C 
ENDROOT
BRANCH   5   9
ATOM      9  C   UNL     1       2.997   5.685  18.700  0.00  0.00    +0.000 A 
ATOM     10  C   UNL     1       2.357   4.566  18.144  0.00  0.00    +0.000 A 
ATOM     11  C   UNL     1       3.009   3.771  17.193  0.00  0.00    +0.000 A 
ATOM     12  C   UNL     1       4.297   4.102  16.772  0.00  0.00    +0.000 A 
ATOM     13  C   UNL     1       4.944   5.200  17.348  0.00  0.00    +0.000 A 
ATOM     14  C   UNL     1       4.321   5.954  18.346  0.00  0.00    +0.000 A 
BRANCH  13  15
ATOM     15  N   UNL     1       6.285   5.591  16.896  0.00  0.00    +0.000 N 
ATOM     16  O   UNL     1       6.412   5.960  15.721  0.00  0.00    +0.000 OA
ATOM     17  O   UNL     1       7.204   5.551  17.724  0.00  0.00    +0.000 OA
ENDBRANCH  13  15
ENDBRANCH   5   9
BRANCH   1  18
ATOM     18  C   UNL     1       0.874  11.372  19.066  0.00  0.00    +0.000 C 
BRANCH  18  21
ATOM     19  O   UNL     1       1.999  12.808  21.237  0.00  0.00    +0.000 OA
ATOM     20  C   UNL     1       0.791  12.795  21.083  0.00  0.00    +0.000 C 
ATOM     21  N   UNL     1       0.141  12.115  20.072  0.00  0.00    +0.000 N 
ATOM     22  H   UNL     1      -0.815  12.369  19.859  0.00  0.00    +0.000 HD
BRANCH  20  23
ATOM     23  C   UNL     1      -0.091  13.585  21.981  0.00  0.00    +0.000 A 
ATOM     24  C   UNL     1       0.255  14.884  22.382  0.00  0.00    +0.000 A 
ATOM     25  C   UNL     1      -0.550  15.576  23.288  0.00  0.00    +0.000 A 
ATOM     26  C   UNL     1      -1.708  14.980  23.787  0.00  0.00    +0.000 A 
ATOM     27  C   UNL     1      -2.073  13.697  23.353  0.00  0.00    +0.000 A 
ATOM     28  C   UNL     1      -1.276  12.998  22.438  0.00  0.00    +0.000 A 
BRANCH  27  29
ATOM     29  N   UNL     1      -3.286  13.069  23.890  0.00  0.00    +0.000 N 
ATOM     30  O   UNL     1      -3.375  11.834  23.814  0.00  0.00    +0.000 OA
ATOM     31  O   UNL     1      -4.154  13.807  24.373  0.00  0.00    +0.000 OA
ENDBRANCH  27  29
ENDBRANCH  20  23
ENDBRANCH  18  21
ENDBRANCH   1  18
TORSDOF 6
ENDMDL
MODEL 8
REMARK VINA RESULT:      -7.5      1.253      1.418
REMARK  Name = 
REMARK  6 active torsions:
REMARK  status: ('A' for Active; 'I' for Inactive)
REMARK    1  A    between atoms: C_2  and  C_22
REMARK    2  A    between atoms: N_3  and  C_4
REMARK    3  A    between atoms: C_4  and  C_5
REMARK    4  A    between atoms: C_9  and  C_11
REMARK    5  A    between atoms: C_15  and  N_16
REMARK    6  A    between atoms: C_26  and  N_27
REMARK                            x       y       z     vdW  Elec       q    Type
REMARK                         _______ _______ _______ _____ _____    ______ ____
ROOT
ATOM      1  C   UNL     1       0.086   9.638  19.724  0.00  0.00    +0.000 C 
ATOM      2  C   UNL     1      -0.149   8.575  20.816  0.00  0.00    +0.000 C 
ATOM      3  C   UNL     1       1.153   7.948  21.316  0.00  0.00    +0.000 C 
ATOM      4  N   UNL     1       1.931   7.423  20.192  0.00  0.00    +0.000 N 
ATOM      5  C   UNL     1       2.143   6.042  20.123  0.00  0.00    +0.000 C 
ATOM      6  O   UNL     1       1.648   5.254  20.929  0.00  0.00    +0.000 OA
ATOM      7  C   UNL     1       2.242   8.419  19.165  0.00  0.00    +0.000 C 
ATOM      8  C   UNL     1       0.974   9.058  18.618  0.00  0.00    +0.000 C 
ENDROOT
BRANCH   5   9
ATOM      9  C   UNL     1       2.975   5.447  19.039  0.00  0.00    +0.000 A 
ATOM     10  C   UNL     1       2.335   4.741  18.007  0.00  0.00    +0.000 A 
ATOM     11  C   UNL     1       3.079   4.159  16.974  0.00  0.00    +0.000 A 
ATOM     12  C   UNL     1       4.467   4.297  16.950  0.00  0.00    +0.000 A 
ATOM     13  C   UNL     1       5.105   4.975  17.993  0.00  0.00    +0.000 A 
ATOM     14  C   UNL     1       4.370   5.499  19.060  0.00  0.00    +0.000 A 
BRANCH  13  15
ATOM     15  N   UNL     1       6.560   5.166  17.973  0.00  0.00    +0.000 N 
ATOM     16  O   UNL     1       7.217   4.693  18.909  0.00  0.00    +0.000 OA
ATOM     17  O   UNL     1       7.046   5.769  17.006  0.00  0.00    +0.000 OA
ENDBRANCH  13  15
ENDBRANCH   5   9
BRANCH   1  18
ATOM     18  C   UNL     1       0.679  10.938  20.290  0.00  0.00    +0.000 C 
BRANCH  18  21
ATOM     19  O   UNL     1       0.114  10.876  23.068  0.00  0.00    +0.000 OA
ATOM     20  C   UNL     1      -0.518  11.620  22.340  0.00  0.00    +0.000 C 
ATOM     21  N   UNL     1      -0.336  11.714  20.974  0.00  0.00    +0.000 N 
ATOM     22  H   UNL     1      -0.702  12.528  20.495  0.00  0.00    +0.000 HD
BRANCH  20  23
ATOM     23  C   UNL     1      -1.532  12.547  22.906  0.00  0.00    +0.000 A 
ATOM     24  C   UNL     1      -1.161  13.788  23.447  0.00  0.00    +0.000 A 
ATOM     25  C   UNL     1      -2.120  14.608  24.044  0.00  0.00    +0.000 A 
ATOM     26  C   UNL     1      -3.453  14.198  24.093  0.00  0.00    +0.000 A 
ATOM     27  C   UNL     1      -3.827  12.976  23.516  0.00  0.00    +0.000 A 
ATOM     28  C   UNL     1      -2.874  12.151  22.907  0.00  0.00    +0.000 A 
BRANCH  27  29
ATOM     29  N   UNL     1      -5.228  12.543  23.580  0.00  0.00    +0.000 N 
ATOM     30  O   UNL     1      -5.665  12.172  24.680  0.00  0.00    +0.000 OA
ATOM     31  O   UNL     1      -5.888  12.561  22.532  0.00  0.00    +0.000 OA
ENDBRANCH  27  29
ENDBRANCH  20  23
ENDBRANCH  18  21
ENDBRANCH   1  18
TORSDOF 6
ENDMDL
MODEL 9
REMARK VINA RESULT:      -7.5      2.074     10.529
REMARK  Name = 
REMARK  6 active torsions:
REMARK  status: ('A' for Active; 'I' for Inactive)
REMARK    1  A    between atoms: C_2  and  C_22
REMARK    2  A    between atoms: N_3  and  C_4
REMARK    3  A    between atoms: C_4  and  C_5
REMARK    4  A    between atoms: C_9  and  C_11
REMARK    5  A    between atoms: C_15  and  N_16
REMARK    6  A    between atoms: C_26  and  N_27
REMARK                            x       y       z     vdW  Elec       q    Type
REMARK                         _______ _______ _______ _____ _____    ______ ____
ROOT
ATOM      1  C   UNL     1       0.312   8.926  20.368  0.00  0.00    +0.000 C 
ATOM      2  C   UNL     1       0.149  10.008  19.281  0.00  0.00    +0.000 C 
ATOM      3  C   UNL     1       0.494  11.408  19.789  0.00  0.00    +0.000 C 
ATOM      4  N   UNL     1      -0.275  11.717  20.997  0.00  0.00    +0.000 N 
ATOM      5  C   UNL     1      -1.207  12.758  20.940  0.00  0.00    +0.000 C 
ATOM      6  O   UNL     1      -1.449  13.375  19.902  0.00  0.00    +0.000 OA
ATOM      7  C   UNL     1      -0.091  10.753  22.084  0.00  0.00    +0.000 C 
ATOM      8  C   UNL     1      -0.444   9.343  21.634  0.00  0.00    +0.000 C 
ENDROOT
BRANCH   5   9
ATOM      9  C   UNL     1      -1.981  13.163  22.147  0.00  0.00    +0.000 A 
ATOM     10  C   UNL     1      -1.408  14.083  23.040  0.00  0.00    +0.000 A 
ATOM     11  C   UNL     1      -2.097  14.484  24.191  0.00  0.00    +0.000 A 
ATOM     12  C   UNL     1      -3.375  13.988  24.447  0.00  0.00    +0.000 A 
ATOM     13  C   UNL     1      -3.933  13.050  23.573  0.00  0.00    +0.000 A 
ATOM     14  C   UNL     1      -3.219  12.598  22.459  0.00  0.00    +0.000 A 
BRANCH  13  15
ATOM     15  N   UNL     1      -5.291  12.540  23.800  0.00  0.00    +0.000 N 
ATOM     16  O   UNL     1      -6.109  12.647  22.877  0.00  0.00    +0.000 OA
ATOM     17  O   UNL     1      -5.529  12.011  24.894  0.00  0.00    +0.000 OA
ENDBRANCH  13  15
ENDBRANCH   5   9
BRANCH   1  18
ATOM     18  C   UNL     1       1.787   8.623  20.674  0.00  0.00    +0.000 C 
BRANCH  18  21
ATOM     19  O   UNL     1       2.690   8.508  17.988  0.00  0.00    +0.000 OA
ATOM     20  C   UNL     1       2.666   7.493  18.661  0.00  0.00    +0.000 C 
ATOM     21  N   UNL     1       2.229   7.435  19.970  0.00  0.00    +0.000 N 
ATOM     22  H   UNL     1       2.487   6.632  20.528  0.00  0.00    +0.000 HD
BRANCH  20  23
ATOM     23  C   UNL     1       3.173   6.210  18.108  0.00  0.00    +0.000 A 
ATOM     24  C   UNL     1       4.300   6.174  17.273  0.00  0.00    +0.000 A 
ATOM     25  C   UNL     1       4.712   4.968  16.703  0.00  0.00    +0.000 A 
ATOM     26  C   UNL     1       4.007   3.794  16.972  0.00  0.00    +0.000 A 
ATOM     27  C   UNL     1       2.905   3.828  17.839  0.00  0.00    +0.000 A 
ATOM     28  C   UNL     1       2.490   5.030  18.423  0.00  0.00    +0.000 A 
BRANCH  27  29
ATOM     29  N   UNL     1       2.160   2.592  18.111  0.00  0.00    +0.000 N 
ATOM     30  O   UNL     1       0.923   2.666  18.156  0.00  0.00    +0.000 OA
ATOM     31  O   UNL     1       2.809   1.553  18.292  0.00  0.00    +0.000 OA
ENDBRANCH  27  29
ENDBRANCH  20  23
ENDBRANCH  18  21
ENDBRANCH   1  18
TORSDOF 6
ENDMDL
