MODEL 1
REMARK VINA RESULT:      -9.6      0.000      0.000
REMARK  Name = 
REMARK  7 active torsions:
REMARK  status: ('A' for Active; 'I' for Inactive)
REMARK    1  A    between atoms: C_1  and  C_2
REMARK    2  A    between atoms: C_5  and  C_6
REMARK    3  A    between atoms: C_9  and  N_10
REMARK    4  A    between atoms: N_10  and  C_11
REMARK    5  A    between atoms: C_15  and  O_16
REMARK    6  A    between atoms: C_25  and  S_26
REMARK    7  A    between atoms: S_26  and  N_29
REMARK                            x       y       z     vdW  Elec       q    Type
REMARK                         _______ _______ _______ _____ _____    ______ ____
ROOT
ATOM      1  C   UNL     1       3.137   6.094  18.809  0.00  0.00    +0.000 A 
ATOM      2  N   UNL     1       4.344   6.644  18.544  0.00  0.00    +0.000 NA
ATOM      3  N   UNL     1       5.301   5.929  17.895  0.00  0.00    +0.000 NA
ATOM      4  C   UNL     1       5.100   4.639  17.546  0.00  0.00    +0.000 A 
ATOM      5  C   UNL     1       3.887   3.990  17.855  0.00  0.00    +0.000 A 
ATOM      6  C   UNL     1       3.671   2.608  17.616  0.00  0.00    +0.000 A 
ATOM      7  C   UNL     1       2.451   1.993  17.899  0.00  0.00    +0.000 A 
ATOM      8  C   UNL     1       1.398   2.756  18.367  0.00  0.00    +0.000 A 
ATOM      9  C   UNL     1       1.588   4.115  18.606  0.00  0.00    +0.000 A 
ATOM     10  C   UNL     1       2.850   4.753  18.440  0.00  0.00    +0.000 A 
ENDROOT
BRANCH   1  15
ATOM     11  C   UNL     1       0.023   9.930  21.885  0.00  0.00    +0.000 C 
ATOM     12  C   UNL     1       0.693   8.950  20.966  0.00  0.00    +0.000 A 
ATOM     13  C   UNL     1       0.966   7.668  21.490  0.00  0.00    +0.000 A 
ATOM     14  C   UNL     1       1.724   6.734  20.777  0.00  0.00    +0.000 A 
ATOM     15  C   UNL     1       2.215   7.024  19.498  0.00  0.00    +0.000 A 
ATOM     16  C   UNL     1       1.809   8.237  18.928  0.00  0.00    +0.000 A 
ATOM     17  C   UNL     1       1.113   9.225  19.655  0.00  0.00    +0.000 A 
BRANCH  17  18
ATOM     18  S   UNL     1       1.115  10.863  18.883  0.00  0.00    +0.000 S 
ATOM     19  O   UNL     1       1.322  11.853  19.918  0.00  0.00    +0.000 OA
ATOM     20  O   UNL     1       2.031  10.780  17.763  0.00  0.00    +0.000 OA
BRANCH  18  21
ATOM     21  N   UNL     1      -0.459  11.072  18.237  0.00  0.00    +0.000 NA
ATOM     22  C   UNL     1      -0.979   9.940  17.430  0.00  0.00    +0.000 C 
ATOM     23  C   UNL     1      -2.435  10.080  17.010  0.00  0.00    +0.000 C 
ATOM     24  C   UNL     1      -3.311  10.559  18.152  0.00  0.00    +0.000 C 
ATOM     25  C   UNL     1      -2.805  11.912  18.609  0.00  0.00    +0.000 C 
ATOM     26  C   UNL     1      -1.376  11.830  19.111  0.00  0.00    +0.000 C 
ENDBRANCH  18  21
ENDBRANCH  17  18
ENDBRANCH   1  15
BRANCH   4  27
ATOM     27  N   UNL     1       6.117   3.956  16.816  0.00  0.00    +0.000 N 
ATOM     28  H   UNL     1       6.058   2.966  17.035  0.00  0.00    +0.000 HD
BRANCH  27  29
ATOM     29  C   UNL     1       6.337   4.178  15.430  0.00  0.00    +0.000 A 
ATOM     30  C   UNL     1       5.537   3.540  14.477  0.00  0.00    +0.000 A 
ATOM     31  C   UNL     1       5.795   3.674  13.114  0.00  0.00    +0.000 A 
ATOM     32  C   UNL     1       6.856   4.468  12.686  0.00  0.00    +0.000 A 
ATOM     33  C   UNL     1       7.634   5.135  13.629  0.00  0.00    +0.000 A 
ATOM     34  C   UNL     1       7.379   5.008  14.993  0.00  0.00    +0.000 A 
BRANCH  33  35
ATOM     35  O   UNL     1       8.687   5.912  13.246  0.00  0.00    +0.000 OA
ATOM     36  H   UNL     1       9.025   5.576  12.399  0.00  0.00    +0.000 HD
ENDBRANCH  33  35
ENDBRANCH  27  29
ENDBRANCH   4  27
TORSDOF 6
ENDMDL
MODEL 2
REMARK VINA RESULT:      -9.1      3.567      8.533
REMARK  Name = 
REMARK  7 active torsions:
REMARK  status: ('A' for Active; 'I' for Inactive)
REMARK    1  A    between atoms: C_1  and  C_2
REMARK    2  A    between atoms: C_5  and  C_6
REMARK    3  A    between atoms: C_9  and  N_10
REMARK    4  A    between atoms: N_10  and  C_11
REMARK    5  A    between atoms: C_15  and  O_16
REMARK    6  A    between atoms: C_25  and  S_26
REMARK    7  A    between atoms: S_26  and  N_29
REMARK                            x       y       z     vdW  Elec       q    Type
REMARK                         _______ _______ _______ _____ _____    ______ ____
ROOT
ATOM      1  C   UNL     1       1.542   8.103  19.897  0.00  0.00    +0.000 A 
ATOM      2  N   UNL     1       1.923   8.587  18.694  0.00  0.00    +0.000 NA
ATOM      3  N   UNL     1       1.747   9.901  18.390  0.00  0.00    +0.000 NA
ATOM      4  C   UNL     1       1.140  10.747  19.253  0.00  0.00    +0.000 A 
ATOM      5  C   UNL     1       0.661  10.286  20.496  0.00  0.00    +0.000 A 
ATOM      6  C   UNL     1      -0.085  11.104  21.384  0.00  0.00    +0.000 A 
ATOM      7  C   UNL     1      -0.521  10.637  22.625  0.00  0.00    +0.000 A 
ATOM      8  C   UNL     1      -0.169   9.365  23.035  0.00  0.00    +0.000 A 
ATOM      9  C   UNL     1       0.565   8.547  22.179  0.00  0.00    +0.000 A 
ATOM     10  C   UNL     1       0.927   8.946  20.861  0.00  0.00    +0.000 A 
ENDROOT
BRANCH   1  15
ATOM     11  C   UNL     1       2.315   2.336  20.004  0.00  0.00    +0.000 C 
ATOM     12  C   UNL     1       2.265   3.834  20.083  0.00  0.00    +0.000 A 
ATOM     13  C   UNL     1       1.082   4.405  20.601  0.00  0.00    +0.000 A 
ATOM     14  C   UNL     1       0.866   5.787  20.574  0.00  0.00    +0.000 A 
ATOM     15  C   UNL     1       1.832   6.661  20.061  0.00  0.00    +0.000 A 
ATOM     16  C   UNL     1       3.060   6.097  19.692  0.00  0.00    +0.000 A 
ATOM     17  C   UNL     1       3.272   4.704  19.637  0.00  0.00    +0.000 A 
BRANCH  17  18
ATOM     18  S   UNL     1       4.738   4.206  18.697  0.00  0.00    +0.000 S 
ATOM     19  O   UNL     1       5.472   3.236  19.480  0.00  0.00    +0.000 OA
ATOM     20  O   UNL     1       4.268   3.864  17.369  0.00  0.00    +0.000 OA
BRANCH  18  21
ATOM     21  N   UNL     1       5.693   5.622  18.548  0.00  0.00    +0.000 NA
ATOM     22  C   UNL     1       7.083   5.518  19.055  0.00  0.00    +0.000 C 
ATOM     23  C   UNL     1       7.957   6.728  18.761  0.00  0.00    +0.000 C 
ATOM     24  C   UNL     1       7.791   7.213  17.333  0.00  0.00    +0.000 C 
ATOM     25  C   UNL     1       6.340   7.598  17.124  0.00  0.00    +0.000 C 
ATOM     26  C   UNL     1       5.416   6.413  17.331  0.00  0.00    +0.000 C 
ENDBRANCH  18  21
ENDBRANCH  17  18
ENDBRANCH   1  15
BRANCH   4  27
ATOM     27  N   UNL     1       1.034  12.126  18.905  0.00  0.00    +0.000 N 
ATOM     28  H   UNL     1       0.151  12.478  19.262  0.00  0.00    +0.000 HD
BRANCH  27  29
ATOM     29  C   UNL     1       2.095  13.047  19.119  0.00  0.00    +0.000 A 
ATOM     30  C   UNL     1       2.450  13.426  20.416  0.00  0.00    +0.000 A 
ATOM     31  C   UNL     1       3.425  14.396  20.642  0.00  0.00    +0.000 A 
ATOM     32  C   UNL     1       4.073  14.990  19.560  0.00  0.00    +0.000 A 
ATOM     33  C   UNL     1       3.749  14.589  18.267  0.00  0.00    +0.000 A 
ATOM     34  C   UNL     1       2.777  13.618  18.035  0.00  0.00    +0.000 A 
BRANCH  33  35
ATOM     35  O   UNL     1       4.355  15.156  17.185  0.00  0.00    +0.000 OA
ATOM     36  H   UNL     1       4.916  15.887  17.495  0.00  0.00    +0.000 HD
ENDBRANCH  33  35
ENDBRANCH  27  29
ENDBRANCH   4  27
TORSDOF 6
ENDMDL
MODEL 3
REMARK VINA RESULT:      -9.1      3.270      8.511
REMARK  Name = 
REMARK  7 active torsions:
REMARK  status: ('A' for Active; 'I' for Inactive)
REMARK    1  A    between atoms: C_1  and  C_2
REMARK    2  A    between atoms: C_5  and  C_6
REMARK    3  A    between atoms: C_9  and  N_10
REMARK    4  A    between atoms: N_10  and  C_11
REMARK    5  A    between atoms: C_15  and  O_16
REMARK    6  A    between atoms: C_25  and  S_26
REMARK    7  A    between atoms: S_26  and  N_29
REMARK                            x       y       z     vdW  Elec       q    Type
REMARK                         _______ _______ _______ _____ _____    ______ ____
ROOT
ATOM      1  C   UNL     1       1.536   8.157  19.738  0.00  0.00    +0.000 A 
ATOM      2  N   UNL     1       1.750   8.519  18.453  0.00  0.00    +0.000 NA
ATOM      3  N   UNL     1       1.414   9.765  18.022  0.00  0.00    +0.000 NA
ATOM      4  C   UNL     1       0.812  10.655  18.841  0.00  0.00    +0.000 A 
ATOM      5  C   UNL     1       0.502  10.311  20.174  0.00  0.00    +0.000 A 
ATOM      6  C   UNL     1      -0.233  11.165  21.036  0.00  0.00    +0.000 A 
ATOM      7  C   UNL     1      -0.499  10.819  22.362  0.00  0.00    +0.000 A 
ATOM      8  C   UNL     1       0.016   9.644  22.875  0.00  0.00    +0.000 A 
ATOM      9  C   UNL     1       0.743   8.794  22.045  0.00  0.00    +0.000 A 
ATOM     10  C   UNL     1       0.935   9.056  20.659  0.00  0.00    +0.000 A 
ENDROOT
BRANCH   1  15
ATOM     11  C   UNL     1       2.992   2.555  20.347  0.00  0.00    +0.000 C 
ATOM     12  C   UNL     1       2.753   4.036  20.308  0.00  0.00    +0.000 A 
ATOM     13  C   UNL     1       1.467   4.485  20.680  0.00  0.00    +0.000 A 
ATOM     14  C   UNL     1       1.088   5.822  20.531  0.00  0.00    +0.000 A 
ATOM     15  C   UNL     1       1.983   6.778  20.034  0.00  0.00    +0.000 A 
ATOM     16  C   UNL     1       3.299   6.353  19.813  0.00  0.00    +0.000 A 
ATOM     17  C   UNL     1       3.683   4.997  19.881  0.00  0.00    +0.000 A 
BRANCH  17  18
ATOM     18  S   UNL     1       5.279   4.631  19.107  0.00  0.00    +0.000 S 
ATOM     19  O   UNL     1       6.254   5.575  19.607  0.00  0.00    +0.000 OA
ATOM     20  O   UNL     1       5.492   3.208  19.275  0.00  0.00    +0.000 OA
BRANCH  18  21
ATOM     21  N   UNL     1       5.055   4.916  17.431  0.00  0.00    +0.000 NA
ATOM     22  C   UNL     1       5.344   6.295  16.967  0.00  0.00    +0.000 C 
ATOM     23  C   UNL     1       5.298   6.477  15.457  0.00  0.00    +0.000 C 
ATOM     24  C   UNL     1       6.012   5.354  14.730  0.00  0.00    +0.000 C 
ATOM     25  C   UNL     1       5.331   4.046  15.082  0.00  0.00    +0.000 C 
ATOM     26  C   UNL     1       5.403   3.766  16.571  0.00  0.00    +0.000 C 
ENDBRANCH  18  21
ENDBRANCH  17  18
ENDBRANCH   1  15
BRANCH   4  27
ATOM     27  N   UNL     1       0.535  11.965  18.351  0.00  0.00    +0.000 N 
ATOM     28  H   UNL     1      -0.431  12.190  18.568  0.00  0.00    +0.000 HD
BRANCH  27  29
ATOM     29  C   UNL     1       1.401  13.066  18.595  0.00  0.00    +0.000 A 
ATOM     30  C   UNL     1       0.937  14.189  19.285  0.00  0.00    +0.000 A 
ATOM     31  C   UNL     1       1.742  15.314  19.454  0.00  0.00    +0.000 A 
ATOM     32  C   UNL     1       3.038  15.319  18.943  0.00  0.00    +0.000 A 
ATOM     33  C   UNL     1       3.518  14.188  18.288  0.00  0.00    +0.000 A 
ATOM     34  C   UNL     1       2.720  13.059  18.119  0.00  0.00    +0.000 A 
BRANCH  33  35
ATOM     35  O   UNL     1       4.778  14.162  17.767  0.00  0.00    +0.000 OA
ATOM     36  H   UNL     1       4.881  13.343  17.252  0.00  0.00    +0.000 HD
ENDBRANCH  33  35
ENDBRANCH  27  29
ENDBRANCH   4  27
TORSDOF 6
ENDMDL
MODEL 4
REMARK VINA RESULT:      -9.1      3.277      8.629
REMARK  Name = 
REMARK  7 active torsions:
REMARK  status: ('A' for Active; 'I' for Inactive)
REMARK    1  A    between atoms: C_1  and  C_2
REMARK    2  A    between atoms: C_5  and  C_6
REMARK    3  A    between atoms: C_9  and  N_10
REMARK    4  A    between atoms: N_10  and  C_11
REMARK    5  A    between atoms: C_15  and  O_16
REMARK    6  A    between atoms: C_25  and  S_26
REMARK    7  A    between atoms: S_26  and  N_29
REMARK                            x       y       z     vdW  Elec       q    Type
REMARK                         _______ _______ _______ _____ _____    ______ ____
ROOT
ATOM      1  C   UNL     1       1.669   8.168  19.583  0.00  0.00    +0.000 A 
ATOM      2  N   UNL     1       1.830   8.562  18.300  0.00  0.00    +0.000 NA
ATOM      3  N   UNL     1       1.425   9.797  17.900  0.00  0.00    +0.000 NA
ATOM      4  C   UNL     1       0.803  10.643  18.751  0.00  0.00    +0.000 A 
ATOM      5  C   UNL     1       0.546  10.263  20.085  0.00  0.00    +0.000 A 
ATOM      6  C   UNL     1      -0.205  11.065  20.982  0.00  0.00    +0.000 A 
ATOM      7  C   UNL     1      -0.419  10.685  22.307  0.00  0.00    +0.000 A 
ATOM      8  C   UNL     1       0.165   9.527  22.785  0.00  0.00    +0.000 A 
ATOM      9  C   UNL     1       0.908   8.727  21.921  0.00  0.00    +0.000 A 
ATOM     10  C   UNL     1       1.051   9.021  20.535  0.00  0.00    +0.000 A 
ENDROOT
BRANCH   1  15
ATOM     11  C   UNL     1       3.152   2.591  20.338  0.00  0.00    +0.000 C 
ATOM     12  C   UNL     1       2.948   4.067  20.160  0.00  0.00    +0.000 A 
ATOM     13  C   UNL     1       2.082   4.706  21.074  0.00  0.00    +0.000 A 
ATOM     14  C   UNL     1       1.700   6.041  20.907  0.00  0.00    +0.000 A 
ATOM     15  C   UNL     1       2.188   6.807  19.842  0.00  0.00    +0.000 A 
ATOM     16  C   UNL     1       3.162   6.210  19.032  0.00  0.00    +0.000 A 
ATOM     17  C   UNL     1       3.504   4.845  19.133  0.00  0.00    +0.000 A 
BRANCH  17  18
ATOM     18  S   UNL     1       4.410   4.193  17.706  0.00  0.00    +0.000 S 
ATOM     19  O   UNL     1       4.572   2.767  17.884  0.00  0.00    +0.000 OA
ATOM     20  O   UNL     1       3.736   4.708  16.531  0.00  0.00    +0.000 OA
BRANCH  18  21
ATOM     21  N   UNL     1       5.957   4.929  17.766  0.00  0.00    +0.000 NA
ATOM     22  C   UNL     1       6.190   6.022  16.790  0.00  0.00    +0.000 C 
ATOM     23  C   UNL     1       7.504   6.766  16.974  0.00  0.00    +0.000 C 
ATOM     24  C   UNL     1       7.772   7.090  18.432  0.00  0.00    +0.000 C 
ATOM     25  C   UNL     1       7.837   5.790  19.207  0.00  0.00    +0.000 C 
ATOM     26  C   UNL     1       6.527   5.028  19.125  0.00  0.00    +0.000 C 
ENDBRANCH  18  21
ENDBRANCH  17  18
ENDBRANCH   1  15
BRANCH   4  27
ATOM     27  N   UNL     1       0.452  11.947  18.293  0.00  0.00    +0.000 N 
ATOM     28  H   UNL     1      -0.513  12.128  18.552  0.00  0.00    +0.000 HD
BRANCH  27  29
ATOM     29  C   UNL     1       1.280  13.080  18.517  0.00  0.00    +0.000 A 
ATOM     30  C   UNL     1       0.762  14.222  19.135  0.00  0.00    +0.000 A 
ATOM     31  C   UNL     1       1.532  15.374  19.281  0.00  0.00    +0.000 A 
ATOM     32  C   UNL     1       2.848  15.389  18.822  0.00  0.00    +0.000 A 
ATOM     33  C   UNL     1       3.381  14.242  18.240  0.00  0.00    +0.000 A 
ATOM     34  C   UNL     1       2.617  13.086  18.094  0.00  0.00    +0.000 A 
BRANCH  33  35
ATOM     35  O   UNL     1       4.661  14.224  17.771  0.00  0.00    +0.000 OA
ATOM     36  H   UNL     1       5.132  13.484  18.190  0.00  0.00    +0.000 HD
ENDBRANCH  33  35
ENDBRANCH  27  29
ENDBRANCH   4  27
TORSDOF 6
ENDMDL
MODEL 5
REMARK VINA RESULT:      -9.0      0.814      1.159
REMARK  Name = 
REMARK  7 active torsions:
REMARK  status: ('A' for Active; 'I' for Inactive)
REMARK    1  A    between atoms: C_1  and  C_2
REMARK    2  A    between atoms: C_5  and  C_6
REMARK    3  A    between atoms: C_9  and  N_10
REMARK    4  A    between atoms: N_10  and  C_11
REMARK    5  A    between atoms: C_15  and  O_16
REMARK    6  A    between atoms: C_25  and  S_26
REMARK    7  A    between atoms: S_26  and  N_29
REMARK                            x       y       z     vdW  Elec       q    Type
REMARK                         _______ _______ _______ _____ _____    ______ ____
ROOT
ATOM      1  C   UNL     1       3.199   6.041  18.713  0.00  0.00    +0.000 A 
ATOM      2  N   UNL     1       4.410   6.568  18.423  0.00  0.00    +0.000 NA
ATOM      3  N   UNL     1       5.354   5.823  17.787  0.00  0.00    +0.000 NA
ATOM      4  C   UNL     1       5.133   4.526  17.476  0.00  0.00    +0.000 A 
ATOM      5  C   UNL     1       3.915   3.901  17.814  0.00  0.00    +0.000 A 
ATOM      6  C   UNL     1       3.681   2.516  17.616  0.00  0.00    +0.000 A 
ATOM      7  C   UNL     1       2.455   1.925  17.927  0.00  0.00    +0.000 A 
ATOM      8  C   UNL     1       1.415   2.714  18.382  0.00  0.00    +0.000 A 
ATOM      9  C   UNL     1       1.625   4.077  18.580  0.00  0.00    +0.000 A 
ATOM     10  C   UNL     1       2.893   4.694  18.386  0.00  0.00    +0.000 A 
ENDROOT
BRANCH   1  15
ATOM     11  C   UNL     1       0.159  10.003  21.703  0.00  0.00    +0.000 C 
ATOM     12  C   UNL     1       0.809   8.988  20.808  0.00  0.00    +0.000 A 
ATOM     13  C   UNL     1       1.075   7.720  21.368  0.00  0.00    +0.000 A 
ATOM     14  C   UNL     1       1.815   6.756  20.676  0.00  0.00    +0.000 A 
ATOM     15  C   UNL     1       2.294   7.001  19.383  0.00  0.00    +0.000 A 
ATOM     16  C   UNL     1       1.895   8.200  18.781  0.00  0.00    +0.000 A 
ATOM     17  C   UNL     1       1.218   9.218  19.485  0.00  0.00    +0.000 A 
BRANCH  17  18
ATOM     18  S   UNL     1       1.229  10.832  18.662  0.00  0.00    +0.000 S 
ATOM     19  O   UNL     1       1.551  11.841  19.647  0.00  0.00    +0.000 OA
ATOM     20  O   UNL     1       2.055  10.677  17.482  0.00  0.00    +0.000 OA
BRANCH  18  21
ATOM     21  N   UNL     1      -0.379  11.088  18.126  0.00  0.00    +0.000 NA
ATOM     22  C   UNL     1      -1.037   9.924  17.482  0.00  0.00    +0.000 C 
ATOM     23  C   UNL     1      -2.512  10.125  17.167  0.00  0.00    +0.000 C 
ATOM     24  C   UNL     1      -3.254  10.771  18.322  0.00  0.00    +0.000 C 
ATOM     25  C   UNL     1      -2.628  12.123  18.597  0.00  0.00    +0.000 C 
ATOM     26  C   UNL     1      -1.169  11.989  18.990  0.00  0.00    +0.000 C 
ENDBRANCH  18  21
ENDBRANCH  17  18
ENDBRANCH   1  15
BRANCH   4  27
ATOM     27  N   UNL     1       6.136   3.810  16.758  0.00  0.00    +0.000 N 
ATOM     28  H   UNL     1       6.013   2.819  16.939  0.00  0.00    +0.000 HD
BRANCH  27  29
ATOM     29  C   UNL     1       6.418   4.065  15.389  0.00  0.00    +0.000 A 
ATOM     30  C   UNL     1       7.433   4.957  15.031  0.00  0.00    +0.000 A 
ATOM     31  C   UNL     1       7.663   5.288  13.697  0.00  0.00    +0.000 A 
ATOM     32  C   UNL     1       6.883   4.712  12.697  0.00  0.00    +0.000 A 
ATOM     33  C   UNL     1       5.895   3.794  13.045  0.00  0.00    +0.000 A 
ATOM     34  C   UNL     1       5.662   3.456  14.377  0.00  0.00    +0.000 A 
BRANCH  33  35
ATOM     35  O   UNL     1       5.106   3.218  12.093  0.00  0.00    +0.000 OA
ATOM     36  H   UNL     1       4.871   3.897  11.438  0.00  0.00    +0.000 HD
ENDBRANCH  33  35
ENDBRANCH  27  29
ENDBRANCH   4  27
TORSDOF 6
ENDMDL
MODEL 6
REMARK VINA RESULT:      -8.9      3.527      8.658
REMARK  Name = 
REMARK  7 active torsions:
REMARK  status: ('A' for Active; 'I' for Inactive)
REMARK    1  A    between atoms: C_1  and  C_2
REMARK    2  A    between atoms: C_5  and  C_6
REMARK    3  A    between atoms: C_9  and  N_10
REMARK    4  A    between atoms: N_10  and  C_11
REMARK    5  A    between atoms: C_15  and  O_16
REMARK    6  A    between atoms: C_25  and  S_26
REMARK    7  A    between atoms: S_26  and  N_29
REMARK                            x       y       z     vdW  Elec       q    Type
REMARK                         _______ _______ _______ _____ _____    ______ ____
ROOT
ATOM      1  C   UNL     1       1.538   8.095  19.826  0.00  0.00    +0.000 A 
ATOM      2  N   UNL     1       1.967   8.568  18.633  0.00  0.00    +0.000 NA
ATOM      3  N   UNL     1       1.809   9.881  18.315  0.00  0.00    +0.000 NA
ATOM      4  C   UNL     1       1.176  10.736  19.148  0.00  0.00    +0.000 A 
ATOM      5  C   UNL     1       0.649  10.286  20.376  0.00  0.00    +0.000 A 
ATOM      6  C   UNL     1      -0.125  11.115  21.230  0.00  0.00    +0.000 A 
ATOM      7  C   UNL     1      -0.609  10.660  22.457  0.00  0.00    +0.000 A 
ATOM      8  C   UNL     1      -0.280   9.388  22.889  0.00  0.00    +0.000 A 
ATOM      9  C   UNL     1       0.480   8.561  22.066  0.00  0.00    +0.000 A 
ATOM     10  C   UNL     1       0.893   8.948  20.760  0.00  0.00    +0.000 A 
ENDROOT
BRANCH   1  15
ATOM     11  C   UNL     1       2.261   2.322  20.008  0.00  0.00    +0.000 C 
ATOM     12  C   UNL     1       2.221   3.821  20.070  0.00  0.00    +0.000 A 
ATOM     13  C   UNL     1       1.035   4.408  20.560  0.00  0.00    +0.000 A 
ATOM     14  C   UNL     1       0.831   5.791  20.515  0.00  0.00    +0.000 A 
ATOM     15  C   UNL     1       1.813   6.652  20.009  0.00  0.00    +0.000 A 
ATOM     16  C   UNL     1       3.042   6.074  19.670  0.00  0.00    +0.000 A 
ATOM     17  C   UNL     1       3.243   4.678  19.633  0.00  0.00    +0.000 A 
BRANCH  17  18
ATOM     18  S   UNL     1       4.722   4.159  18.725  0.00  0.00    +0.000 S 
ATOM     19  O   UNL     1       5.442   3.204  19.539  0.00  0.00    +0.000 OA
ATOM     20  O   UNL     1       4.272   3.790  17.398  0.00  0.00    +0.000 OA
BRANCH  18  21
ATOM     21  N   UNL     1       5.683   5.569  18.561  0.00  0.00    +0.000 NA
ATOM     22  C   UNL     1       7.068   5.470  19.083  0.00  0.00    +0.000 C 
ATOM     23  C   UNL     1       7.947   6.674  18.777  0.00  0.00    +0.000 C 
ATOM     24  C   UNL     1       7.796   7.134  17.339  0.00  0.00    +0.000 C 
ATOM     25  C   UNL     1       6.348   7.519  17.109  0.00  0.00    +0.000 C 
ATOM     26  C   UNL     1       5.419   6.340  17.329  0.00  0.00    +0.000 C 
ENDBRANCH  18  21
ENDBRANCH  17  18
ENDBRANCH   1  15
BRANCH   4  27
ATOM     27  N   UNL     1       1.092  12.113  18.787  0.00  0.00    +0.000 N 
ATOM     28  H   UNL     1       0.147  12.435  18.976  0.00  0.00    +0.000 HD
BRANCH  27  29
ATOM     29  C   UNL     1       2.065  13.066  19.194  0.00  0.00    +0.000 A 
ATOM     30  C   UNL     1       2.875  13.696  18.245  0.00  0.00    +0.000 A 
ATOM     31  C   UNL     1       3.895  14.564  18.631  0.00  0.00    +0.000 A 
ATOM     32  C   UNL     1       4.104  14.826  19.983  0.00  0.00    +0.000 A 
ATOM     33  C   UNL     1       3.275  14.231  20.930  0.00  0.00    +0.000 A 
ATOM     34  C   UNL     1       2.252  13.365  20.551  0.00  0.00    +0.000 A 
BRANCH  33  35
ATOM     35  O   UNL     1       3.458  14.457  22.263  0.00  0.00    +0.000 OA
ATOM     36  H   UNL     1       2.747  14.008  22.751  0.00  0.00    +0.000 HD
ENDBRANCH  33  35
ENDBRANCH  27  29
ENDBRANCH   4  27
TORSDOF 6
ENDMDL
MODEL 7
REMARK VINA RESULT:      -8.8      2.035      2.898
REMARK  Name = 
REMARK  7 active torsions:
REMARK  status: ('A' for Active; 'I' for Inactive)
REMARK    1  A    between atoms: C_1  and  C_2
REMARK    2  A    between atoms: C_5  and  C_6
REMARK    3  A    between atoms: C_9  and  N_10
REMARK    4  A    between atoms: N_10  and  C_11
REMARK    5  A    between atoms: C_15  and  O_16
REMARK    6  A    between atoms: C_25  and  S_26
REMARK    7  A    between atoms: S_26  and  N_29
REMARK                            x       y       z     vdW  Elec       q    Type
REMARK                         _______ _______ _______ _____ _____    ______ ____
ROOT
ATOM      1  C   UNL     1       2.902   7.146  18.206  0.00  0.00    +0.000 A 
ATOM      2  N   UNL     1       3.856   7.549  17.337  0.00  0.00    +0.000 NA
ATOM      3  N   UNL     1       4.805   6.677  16.901  0.00  0.00    +0.000 NA
ATOM      4  C   UNL     1       4.857   5.406  17.360  0.00  0.00    +0.000 A 
ATOM      5  C   UNL     1       3.929   4.949  18.318  0.00  0.00    +0.000 A 
ATOM      6  C   UNL     1       4.013   3.665  18.917  0.00  0.00    +0.000 A 
ATOM      7  C   UNL     1       3.065   3.219  19.839  0.00  0.00    +0.000 A 
ATOM      8  C   UNL     1       1.977   4.019  20.136  0.00  0.00    +0.000 A 
ATOM      9  C   UNL     1       1.875   5.281  19.556  0.00  0.00    +0.000 A 
ATOM     10  C   UNL     1       2.881   5.816  18.703  0.00  0.00    +0.000 A 
ENDROOT
BRANCH   1  15
ATOM     11  C   UNL     1      -1.338  10.911  19.519  0.00  0.00    +0.000 C 
ATOM     12  C   UNL     1      -0.130  10.061  19.256  0.00  0.00    +0.000 A 
ATOM     13  C   UNL     1       0.122   9.709  17.912  0.00  0.00    +0.000 A 
ATOM     14  C   UNL     1       1.125   8.797  17.571  0.00  0.00    +0.000 A 
ATOM     15  C   UNL     1       1.943   8.219  18.551  0.00  0.00    +0.000 A 
ATOM     16  C   UNL     1       1.785   8.691  19.860  0.00  0.00    +0.000 A 
ATOM     17  C   UNL     1       0.732   9.549  20.239  0.00  0.00    +0.000 A 
BRANCH  17  18
ATOM     18  S   UNL     1       0.446   9.641  22.025  0.00  0.00    +0.000 S 
ATOM     19  O   UNL     1      -0.765   8.910  22.329  0.00  0.00    +0.000 OA
ATOM     20  O   UNL     1       1.698   9.268  22.653  0.00  0.00    +0.000 OA
BRANCH  18  21
ATOM     21  N   UNL     1       0.182  11.300  22.366  0.00  0.00    +0.000 NA
ATOM     22  C   UNL     1       0.823  12.260  21.434  0.00  0.00    +0.000 C 
ATOM     23  C   UNL     1       0.438  13.714  21.660  0.00  0.00    +0.000 C 
ATOM     24  C   UNL     1      -1.054  13.877  21.880  0.00  0.00    +0.000 C 
ATOM     25  C   UNL     1      -1.448  13.075  23.104  0.00  0.00    +0.000 C 
ATOM     26  C   UNL     1      -1.156  11.598  22.917  0.00  0.00    +0.000 C 
ENDBRANCH  18  21
ENDBRANCH  17  18
ENDBRANCH   1  15
BRANCH   4  27
ATOM     27  N   UNL     1       5.838   4.521  16.824  0.00  0.00    +0.000 N 
ATOM     28  H   UNL     1       5.652   3.587  17.177  0.00  0.00    +0.000 HD
BRANCH  27  29
ATOM     29  C   UNL     1       6.174   4.505  15.443  0.00  0.00    +0.000 A 
ATOM     30  C   UNL     1       5.448   3.714  14.549  0.00  0.00    +0.000 A 
ATOM     31  C   UNL     1       5.819   3.615  13.209  0.00  0.00    +0.000 A 
ATOM     32  C   UNL     1       6.923   4.327  12.744  0.00  0.00    +0.000 A 
ATOM     33  C   UNL     1       7.627   5.146  13.622  0.00  0.00    +0.000 A 
ATOM     34  C   UNL     1       7.259   5.252  14.962  0.00  0.00    +0.000 A 
BRANCH  33  35
ATOM     35  O   UNL     1       8.718   5.849  13.203  0.00  0.00    +0.000 OA
ATOM     36  H   UNL     1       9.505   5.487  13.644  0.00  0.00    +0.000 HD
ENDBRANCH  33  35
ENDBRANCH  27  29
ENDBRANCH   4  27
TORSDOF 6
ENDMDL
MODEL 8
REMARK VINA RESULT:      -8.8      3.006      8.763
REMARK  Name = 
REMARK  7 active torsions:
REMARK  status: ('A' for Active; 'I' for Inactive)
REMARK    1  A    between atoms: C_1  and  C_2
REMARK    2  A    between atoms: C_5  and  C_6
REMARK    3  A    between atoms: C_9  and  N_10
REMARK    4  A    between atoms: N_10  and  C_11
REMARK    5  A    between atoms: C_15  and  O_16
REMARK    6  A    between atoms: C_25  and  S_26
REMARK    7  A    between atoms: S_26  and  N_29
REMARK                            x       y       z     vdW  Elec       q    Type
REMARK                         _______ _______ _______ _____ _____    ______ ____
ROOT
ATOM      1  C   UNL     1       2.654   8.247  17.975  0.00  0.00    +0.000 A 
ATOM      2  N   UNL     1       2.589   9.361  17.211  0.00  0.00    +0.000 NA
ATOM      3  N   UNL     1       1.895  10.451  17.636  0.00  0.00    +0.000 NA
ATOM      4  C   UNL     1       1.208  10.436  18.801  0.00  0.00    +0.000 A 
ATOM      5  C   UNL     1       1.183   9.281  19.608  0.00  0.00    +0.000 A 
ATOM      6  C   UNL     1       0.384   9.176  20.776  0.00  0.00    +0.000 A 
ATOM      7  C   UNL     1       0.401   8.035  21.579  0.00  0.00    +0.000 A 
ATOM      8  C   UNL     1       1.261   6.998  21.271  0.00  0.00    +0.000 A 
ATOM      9  C   UNL     1       2.055   7.083  20.129  0.00  0.00    +0.000 A 
ATOM     10  C   UNL     1       1.981   8.178  19.223  0.00  0.00    +0.000 A 
ENDROOT
BRANCH   1  15
ATOM     11  C   UNL     1       6.357   4.240  15.948  0.00  0.00    +0.000 C 
ATOM     12  C   UNL     1       5.268   5.164  16.410  0.00  0.00    +0.000 A 
ATOM     13  C   UNL     1       5.284   6.478  15.893  0.00  0.00    +0.000 A 
ATOM     14  C   UNL     1       4.415   7.462  16.373  0.00  0.00    +0.000 A 
ATOM     15  C   UNL     1       3.470   7.173  17.365  0.00  0.00    +0.000 A 
ATOM     16  C   UNL     1       3.360   5.834  17.759  0.00  0.00    +0.000 A 
ATOM     17  C   UNL     1       4.276   4.842  17.349  0.00  0.00    +0.000 A 
BRANCH  17  18
ATOM     18  S   UNL     1       4.228   3.325  18.337  0.00  0.00    +0.000 S 
ATOM     19  O   UNL     1       3.897   2.223  17.461  0.00  0.00    +0.000 OA
ATOM     20  O   UNL     1       5.460   3.303  19.100  0.00  0.00    +0.000 OA
BRANCH  18  21
ATOM     21  N   UNL     1       2.944   3.539  19.452  0.00  0.00    +0.000 NA
ATOM     22  C   UNL     1       1.629   2.996  19.033  0.00  0.00    +0.000 C 
ATOM     23  C   UNL     1       0.551   3.051  20.105  0.00  0.00    +0.000 C 
ATOM     24  C   UNL     1       1.072   2.599  21.456  0.00  0.00    +0.000 C 
ATOM     25  C   UNL     1       2.208   3.516  21.862  0.00  0.00    +0.000 C 
ATOM     26  C   UNL     1       3.353   3.455  20.869  0.00  0.00    +0.000 C 
ENDBRANCH  18  21
ENDBRANCH  17  18
ENDBRANCH   1  15
BRANCH   4  27
ATOM     27  N   UNL     1       0.546  11.626  19.224  0.00  0.00    +0.000 N 
ATOM     28  H   UNL     1       1.049  12.423  18.846  0.00  0.00    +0.000 HD
BRANCH  27  29
ATOM     29  C   UNL     1      -0.862  11.793  19.116  0.00  0.00    +0.000 A 
ATOM     30  C   UNL     1      -1.578  12.425  20.136  0.00  0.00    +0.000 A 
ATOM     31  C   UNL     1      -2.968  12.516  20.090  0.00  0.00    +0.000 A 
ATOM     32  C   UNL     1      -3.660  11.984  19.005  0.00  0.00    +0.000 A 
ATOM     33  C   UNL     1      -2.948  11.386  17.968  0.00  0.00    +0.000 A 
ATOM     34  C   UNL     1      -1.559  11.295  18.006  0.00  0.00    +0.000 A 
BRANCH  33  35
ATOM     35  O   UNL     1      -3.594  10.846  16.895  0.00  0.00    +0.000 OA
ATOM     36  H   UNL     1      -4.412  11.350  16.743  0.00  0.00    +0.000 HD
ENDBRANCH  33  35
ENDBRANCH  27  29
ENDBRANCH   4  27
TORSDOF 6
ENDMDL
MODEL 9
REMARK VINA RESULT:      -8.8      3.289      8.809
REMARK  Name = 
REMARK  7 active torsions:
REMARK  status: ('A' for Active; 'I' for Inactive)
REMARK    1  A    between atoms: C_1  and  C_2
REMARK    2  A    between atoms: C_5  and  C_6
REMARK    3  A    between atoms: C_9  and  N_10
REMARK    4  A    between atoms: N_10  and  C_11
REMARK    5  A    between atoms: C_15  and  O_16
REMARK    6  A    between atoms: C_25  and  S_26
REMARK    7  A    between atoms: S_26  and  N_29
REMARK                            x       y       z     vdW  Elec       q    Type
REMARK                         _______ _______ _______ _____ _____    ______ ____
ROOT
ATOM      1  C   UNL     1       1.663   8.181  19.575  0.00  0.00    +0.000 A 
ATOM      2  N   UNL     1       1.828   8.572  18.291  0.00  0.00    +0.000 NA
ATOM      3  N   UNL     1       1.424   9.806  17.888  0.00  0.00    +0.000 NA
ATOM      4  C   UNL     1       0.800  10.654  18.736  0.00  0.00    +0.000 A 
ATOM      5  C   UNL     1       0.540  10.276  20.070  0.00  0.00    +0.000 A 
ATOM      6  C   UNL     1      -0.214  11.080  20.964  0.00  0.00    +0.000 A 
ATOM      7  C   UNL     1      -0.431  10.702  22.289  0.00  0.00    +0.000 A 
ATOM      8  C   UNL     1       0.151   9.545  22.771  0.00  0.00    +0.000 A 
ATOM      9  C   UNL     1       0.897   8.743  21.910  0.00  0.00    +0.000 A 
ATOM     10  C   UNL     1       1.043   9.035  20.524  0.00  0.00    +0.000 A 
ENDROOT
BRANCH   1  15
ATOM     11  C   UNL     1       3.144   2.605  20.345  0.00  0.00    +0.000 C 
ATOM     12  C   UNL     1       2.941   4.080  20.163  0.00  0.00    +0.000 A 
ATOM     13  C   UNL     1       2.074   4.722  21.075  0.00  0.00    +0.000 A 
ATOM     14  C   UNL     1       1.692   6.056  20.904  0.00  0.00    +0.000 A 
ATOM     15  C   UNL     1       2.182   6.819  19.837  0.00  0.00    +0.000 A 
ATOM     16  C   UNL     1       3.157   6.220  19.030  0.00  0.00    +0.000 A 
ATOM     17  C   UNL     1       3.498   4.856  19.134  0.00  0.00    +0.000 A 
BRANCH  17  18
ATOM     18  S   UNL     1       4.406   4.200  17.710  0.00  0.00    +0.000 S 
ATOM     19  O   UNL     1       4.565   2.774  17.891  0.00  0.00    +0.000 OA
ATOM     20  O   UNL     1       3.734   4.713  16.533  0.00  0.00    +0.000 OA
BRANCH  18  21
ATOM     21  N   UNL     1       5.954   4.934  17.771  0.00  0.00    +0.000 NA
ATOM     22  C   UNL     1       6.191   6.022  16.791  0.00  0.00    +0.000 C 
ATOM     23  C   UNL     1       7.506   6.765  16.976  0.00  0.00    +0.000 C 
ATOM     24  C   UNL     1       7.769   7.095  18.433  0.00  0.00    +0.000 C 
ATOM     25  C   UNL     1       7.830   5.798  19.214  0.00  0.00    +0.000 C 
ATOM     26  C   UNL     1       6.520   5.039  19.132  0.00  0.00    +0.000 C 
ENDBRANCH  18  21
ENDBRANCH  17  18
ENDBRANCH   1  15
BRANCH   4  27
ATOM     27  N   UNL     1       0.451  11.957  18.274  0.00  0.00    +0.000 N 
ATOM     28  H   UNL     1      -0.512  12.142  18.538  0.00  0.00    +0.000 HD
BRANCH  27  29
ATOM     29  C   UNL     1       1.283  13.088  18.490  0.00  0.00    +0.000 A 
ATOM     30  C   UNL     1       2.632  13.052  18.127  0.00  0.00    +0.000 A 
ATOM     31  C   UNL     1       3.485  14.117  18.413  0.00  0.00    +0.000 A 
ATOM     32  C   UNL     1       2.985  15.247  19.056  0.00  0.00    +0.000 A 
ATOM     33  C   UNL     1       1.634  15.304  19.386  0.00  0.00    +0.000 A 
ATOM     34  C   UNL     1       0.776  14.245  19.100  0.00  0.00    +0.000 A 
BRANCH  33  35
ATOM     35  O   UNL     1       1.114  16.391  20.026  0.00  0.00    +0.000 OA
ATOM     36  H   UNL     1       1.057  16.191  20.975  0.00  0.00    +0.000 HD
ENDBRANCH  33  35
ENDBRANCH  27  29
ENDBRANCH   4  27
TORSDOF 6
ENDMDL
