MODEL 1
REMARK VINA RESULT:      -7.4      0.000      0.000
REMARK  Name = 
REMARK  5 active torsions:
REMARK  status: ('A' for Active; 'I' for Inactive)
REMARK    1  A    between atoms: C_2  and  C_15
REMARK    2  A    between atoms: N_3  and  O_4
REMARK    3  A    between atoms: O_4  and  C_5
REMARK    4  A    between atoms: C_5  and  C_6
REMARK    5  A    between atoms: C_10  and  N_11
REMARK                            x       y       z     vdW  Elec       q    Type
REMARK                         _______ _______ _______ _____ _____    ______ ____
ROOT
ATOM      1  N   UNL     1       4.845   6.216  15.784  0.00  0.00    +0.000 N 
ATOM      2  C   UNL     1       5.298   6.045  17.068  0.00  0.00    +0.000 C 
ATOM      3  N   UNL     1       4.720   6.468  18.149  0.00  0.00    +0.000 NA
ATOM      4  H   UNL     1       3.859   6.445  15.740  0.00  0.00    +0.000 HD
ATOM      5  H   UNL     1       5.154   5.517  15.115  0.00  0.00    +0.000 HD
ENDROOT
BRANCH   2   6
ATOM      6  C   UNL     1       6.538   5.284  17.174  0.00  0.00    +0.000 A 
ATOM      7  N   UNL     1       7.115   4.725  16.097  0.00  0.00    +0.000 NA
ATOM      8  O   UNL     1       8.255   4.097  16.584  0.00  0.00    +0.000 OA
ATOM      9  N   UNL     1       8.363   4.237  17.959  0.00  0.00    +0.000 NA
ATOM     10  C   UNL     1       7.313   4.971  18.322  0.00  0.00    +0.000 A 
ATOM     11  N   UNL     1       7.039   5.330  19.590  0.00  0.00    +0.000 N 
ATOM     12  H   UNL     1       7.527   4.872  20.351  0.00  0.00    +0.000 HD
ATOM     13  H   UNL     1       6.125   5.712  19.826  0.00  0.00    +0.000 HD
ENDBRANCH   2   6
BRANCH   3  14
ATOM     14  O   UNL     1       3.535   7.163  17.834  0.00  0.00    +0.000 OA
BRANCH  14  15
ATOM     15  C   UNL     1       2.576   6.906  18.863  0.00  0.00    +0.000 C 
BRANCH  15  16
ATOM     16  C   UNL     1       2.300   5.426  18.949  0.00  0.00    +0.000 A 
ATOM     17  C   UNL     1       1.823   4.722  17.831  0.00  0.00    +0.000 A 
ATOM     18  C   UNL     1       1.524   3.359  17.916  0.00  0.00    +0.000 A 
ATOM     19  C   UNL     1       1.697   2.677  19.121  0.00  0.00    +0.000 A 
ATOM     20  C   UNL     1       2.176   3.370  20.240  0.00  0.00    +0.000 A 
ATOM     21  C   UNL     1       2.479   4.738  20.158  0.00  0.00    +0.000 A 
BRANCH  20  22
ATOM     22  N   UNL     1       2.354   2.662  21.515  0.00  0.00    +0.000 N 
ATOM     23  O   UNL     1       1.381   2.596  22.279  0.00  0.00    +0.000 OA
ATOM     24  O   UNL     1       3.468   2.172  21.752  0.00  0.00    +0.000 OA
ENDBRANCH  20  22
ENDBRANCH  15  16
ENDBRANCH  14  15
ENDBRANCH   3  14
TORSDOF 5
ENDMDL
MODEL 2
REMARK VINA RESULT:      -7.4      2.378      4.155
REMARK  Name = 
REMARK  5 active torsions:
REMARK  status: ('A' for Active; 'I' for Inactive)
REMARK    1  A    between atoms: C_2  and  C_15
REMARK    2  A    between atoms: N_3  and  O_4
REMARK    3  A    between atoms: O_4  and  C_5
REMARK    4  A    between atoms: C_5  and  C_6
REMARK    5  A    between atoms: C_10  and  N_11
REMARK                            x       y       z     vdW  Elec       q    Type
REMARK                         _______ _______ _______ _____ _____    ______ ____
ROOT
ATOM      1  N   UNL     1       5.706   3.837  18.607  0.00  0.00    +0.000 N 
ATOM      2  C   UNL     1       5.343   4.036  17.299  0.00  0.00    +0.000 C 
ATOM      3  N   UNL     1       4.243   3.638  16.739  0.00  0.00    +0.000 NA
ATOM      4  H   UNL     1       4.921   3.610  19.205  0.00  0.00    +0.000 HD
ATOM      5  H   UNL     1       6.354   4.520  18.989  0.00  0.00    +0.000 HD
ENDROOT
BRANCH   2   6
ATOM      6  C   UNL     1       6.309   4.794  16.513  0.00  0.00    +0.000 A 
ATOM      7  N   UNL     1       6.908   5.893  17.003  0.00  0.00    +0.000 NA
ATOM      8  O   UNL     1       7.744   6.333  15.984  0.00  0.00    +0.000 OA
ATOM      9  N   UNL     1       7.636   5.531  14.858  0.00  0.00    +0.000 NA
ATOM     10  C   UNL     1       6.760   4.583  15.184  0.00  0.00    +0.000 A 
ATOM     11  N   UNL     1       6.365   3.598  14.355  0.00  0.00    +0.000 N 
ATOM     12  H   UNL     1       6.576   3.667  13.366  0.00  0.00    +0.000 HD
ATOM     13  H   UNL     1       5.551   3.032  14.588  0.00  0.00    +0.000 HD
ENDBRANCH   2   6
BRANCH   3  14
ATOM     14  O   UNL     1       3.443   2.940  17.666  0.00  0.00    +0.000 OA
BRANCH  14  15
ATOM     15  C   UNL     1       2.137   3.521  17.660  0.00  0.00    +0.000 C 
BRANCH  15  16
ATOM     16  C   UNL     1       2.103   4.715  18.581  0.00  0.00    +0.000 A 
ATOM     17  C   UNL     1       2.003   4.542  19.971  0.00  0.00    +0.000 A 
ATOM     18  C   UNL     1       1.928   5.645  20.827  0.00  0.00    +0.000 A 
ATOM     19  C   UNL     1       1.950   6.939  20.306  0.00  0.00    +0.000 A 
ATOM     20  C   UNL     1       2.053   7.121  18.922  0.00  0.00    +0.000 A 
ATOM     21  C   UNL     1       2.131   6.017  18.059  0.00  0.00    +0.000 A 
BRANCH  20  22
ATOM     22  N   UNL     1       2.069   8.481  18.365  0.00  0.00    +0.000 N 
ATOM     23  O   UNL     1       1.505   9.376  19.010  0.00  0.00    +0.000 OA
ATOM     24  O   UNL     1       2.645   8.653  17.280  0.00  0.00    +0.000 OA
ENDBRANCH  20  22
ENDBRANCH  15  16
ENDBRANCH  14  15
ENDBRANCH   3  14
TORSDOF 5
ENDMDL
MODEL 3
REMARK VINA RESULT:      -7.3      2.602      3.674
REMARK  Name = 
REMARK  5 active torsions:
REMARK  status: ('A' for Active; 'I' for Inactive)
REMARK    1  A    between atoms: C_2  and  C_15
REMARK    2  A    between atoms: N_3  and  O_4
REMARK    3  A    between atoms: O_4  and  C_5
REMARK    4  A    between atoms: C_5  and  C_6
REMARK    5  A    between atoms: C_10  and  N_11
REMARK                            x       y       z     vdW  Elec       q    Type
REMARK                         _______ _______ _______ _____ _____    ______ ____
ROOT
ATOM      1  N   UNL     1       6.103   3.513  15.941  0.00  0.00    +0.000 N 
ATOM      2  C   UNL     1       6.717   4.554  15.293  0.00  0.00    +0.000 C 
ATOM      3  N   UNL     1       7.228   5.611  15.847  0.00  0.00    +0.000 NA
ATOM      4  H   UNL     1       6.333   3.471  16.927  0.00  0.00    +0.000 HD
ATOM      5  H   UNL     1       6.128   2.621  15.457  0.00  0.00    +0.000 HD
ENDROOT
BRANCH   2   6
ATOM      6  C   UNL     1       6.801   4.399  13.845  0.00  0.00    +0.000 A 
ATOM      7  N   UNL     1       5.993   3.555  13.180  0.00  0.00    +0.000 NA
ATOM      8  O   UNL     1       6.364   3.678  11.846  0.00  0.00    +0.000 OA
ATOM      9  N   UNL     1       7.416   4.567  11.692  0.00  0.00    +0.000 NA
ATOM     10  C   UNL     1       7.682   5.014  12.917  0.00  0.00    +0.000 A 
ATOM     11  N   UNL     1       8.654   5.898  13.209  0.00  0.00    +0.000 N 
ATOM     12  H   UNL     1       9.362   6.104  12.513  0.00  0.00    +0.000 HD
ATOM     13  H   UNL     1       8.938   6.044  14.175  0.00  0.00    +0.000 HD
ENDBRANCH   2   6
BRANCH   3  14
ATOM     14  O   UNL     1       7.058   5.564  17.245  0.00  0.00    +0.000 OA
BRANCH  14  15
ATOM     15  C   UNL     1       6.104   6.562  17.616  0.00  0.00    +0.000 C 
BRANCH  15  16
ATOM     16  C   UNL     1       4.835   5.904  18.098  0.00  0.00    +0.000 A 
ATOM     17  C   UNL     1       3.584   6.478  17.820  0.00  0.00    +0.000 A 
ATOM     18  C   UNL     1       2.407   5.897  18.300  0.00  0.00    +0.000 A 
ATOM     19  C   UNL     1       2.461   4.732  19.067  0.00  0.00    +0.000 A 
ATOM     20  C   UNL     1       3.704   4.152  19.346  0.00  0.00    +0.000 A 
ATOM     21  C   UNL     1       4.888   4.730  18.865  0.00  0.00    +0.000 A 
BRANCH  20  22
ATOM     22  N   UNL     1       3.772   2.930  20.159  0.00  0.00    +0.000 N 
ATOM     23  O   UNL     1       2.750   2.586  20.770  0.00  0.00    +0.000 OA
ATOM     24  O   UNL     1       4.848   2.315  20.189  0.00  0.00    +0.000 OA
ENDBRANCH  20  22
ENDBRANCH  15  16
ENDBRANCH  14  15
ENDBRANCH   3  14
TORSDOF 5
ENDMDL
MODEL 4
REMARK VINA RESULT:      -7.3      3.799      7.277
REMARK  Name = 
REMARK  5 active torsions:
REMARK  status: ('A' for Active; 'I' for Inactive)
REMARK    1  A    between atoms: C_2  and  C_15
REMARK    2  A    between atoms: N_3  and  O_4
REMARK    3  A    between atoms: O_4  and  C_5
REMARK    4  A    between atoms: C_5  and  C_6
REMARK    5  A    between atoms: C_10  and  N_11
REMARK                            x       y       z     vdW  Elec       q    Type
REMARK                         _______ _______ _______ _____ _____    ______ ____
ROOT
ATOM      1  N   UNL     1       5.222   3.233  19.155  0.00  0.00    +0.000 N 
ATOM      2  C   UNL     1       4.092   3.629  18.486  0.00  0.00    +0.000 C 
ATOM      3  N   UNL     1       3.989   3.838  17.210  0.00  0.00    +0.000 NA
ATOM      4  H   UNL     1       5.918   2.819  18.546  0.00  0.00    +0.000 HD
ATOM      5  H   UNL     1       5.063   2.734  20.025  0.00  0.00    +0.000 HD
ENDROOT
BRANCH   2   6
ATOM      6  C   UNL     1       2.915   3.791  19.332  0.00  0.00    +0.000 A 
ATOM      7  N   UNL     1       2.848   4.755  20.266  0.00  0.00    +0.000 NA
ATOM      8  O   UNL     1       1.600   4.597  20.857  0.00  0.00    +0.000 OA
ATOM      9  N   UNL     1       0.914   3.521  20.315  0.00  0.00    +0.000 NA
ATOM     10  C   UNL     1       1.719   3.029  19.375  0.00  0.00    +0.000 A 
ATOM     11  N   UNL     1       1.427   1.960  18.610  0.00  0.00    +0.000 N 
ATOM     12  H   UNL     1       0.652   1.361  18.870  0.00  0.00    +0.000 HD
ATOM     13  H   UNL     1       2.157   1.514  18.058  0.00  0.00    +0.000 HD
ENDBRANCH   2   6
BRANCH   3  14
ATOM     14  O   UNL     1       5.226   3.613  16.573  0.00  0.00    +0.000 OA
BRANCH  14  15
ATOM     15  C   UNL     1       5.652   4.839  15.974  0.00  0.00    +0.000 C 
BRANCH  15  16
ATOM     16  C   UNL     1       6.180   4.575  14.585  0.00  0.00    +0.000 A 
ATOM     17  C   UNL     1       7.308   5.262  14.108  0.00  0.00    +0.000 A 
ATOM     18  C   UNL     1       7.776   5.053  12.808  0.00  0.00    +0.000 A 
ATOM     19  C   UNL     1       7.124   4.154  11.963  0.00  0.00    +0.000 A 
ATOM     20  C   UNL     1       6.001   3.462  12.433  0.00  0.00    +0.000 A 
ATOM     21  C   UNL     1       5.528   3.667  13.737  0.00  0.00    +0.000 A 
BRANCH  20  22
ATOM     22  N   UNL     1       5.304   2.519  11.547  0.00  0.00    +0.000 N 
ATOM     23  O   UNL     1       5.882   1.462  11.259  0.00  0.00    +0.000 OA
ATOM     24  O   UNL     1       4.178   2.838  11.138  0.00  0.00    +0.000 OA
ENDBRANCH  20  22
ENDBRANCH  15  16
ENDBRANCH  14  15
ENDBRANCH   3  14
TORSDOF 5
ENDMDL
MODEL 5
REMARK VINA RESULT:      -7.3      1.955      6.130
REMARK  Name = 
REMARK  5 active torsions:
REMARK  status: ('A' for Active; 'I' for Inactive)
REMARK    1  A    between atoms: C_2  and  C_15
REMARK    2  A    between atoms: N_3  and  O_4
REMARK    3  A    between atoms: O_4  and  C_5
REMARK    4  A    between atoms: C_5  and  C_6
REMARK    5  A    between atoms: C_10  and  N_11
REMARK                            x       y       z     vdW  Elec       q    Type
REMARK                         _______ _______ _______ _____ _____    ______ ____
ROOT
ATOM      1  N   UNL     1       1.333   4.016  18.102  0.00  0.00    +0.000 N 
ATOM      2  C   UNL     1       2.205   4.438  19.073  0.00  0.00    +0.000 C 
ATOM      3  N   UNL     1       2.942   5.505  19.033  0.00  0.00    +0.000 NA
ATOM      4  H   UNL     1       1.070   4.754  17.460  0.00  0.00    +0.000 HD
ATOM      5  H   UNL     1       0.565   3.436  18.427  0.00  0.00    +0.000 HD
ENDROOT
BRANCH   2   6
ATOM      6  C   UNL     1       2.252   3.585  20.255  0.00  0.00    +0.000 A 
ATOM      7  N   UNL     1       1.218   3.510  21.110  0.00  0.00    +0.000 NA
ATOM      8  O   UNL     1       1.627   2.614  22.092  0.00  0.00    +0.000 OA
ATOM      9  N   UNL     1       2.919   2.166  21.863  0.00  0.00    +0.000 NA
ATOM     10  C   UNL     1       3.301   2.756  20.733  0.00  0.00    +0.000 A 
ATOM     11  N   UNL     1       4.510   2.593  20.163  0.00  0.00    +0.000 N 
ATOM     12  H   UNL     1       5.256   2.160  20.696  0.00  0.00    +0.000 HD
ATOM     13  H   UNL     1       4.813   3.220  19.420  0.00  0.00    +0.000 HD
ENDBRANCH   2   6
BRANCH   3  14
ATOM     14  O   UNL     1       2.741   6.196  17.820  0.00  0.00    +0.000 OA
BRANCH  14  15
ATOM     15  C   UNL     1       3.876   7.032  17.586  0.00  0.00    +0.000 C 
BRANCH  15  16
ATOM     16  C   UNL     1       5.089   6.182  17.301  0.00  0.00    +0.000 A 
ATOM     17  C   UNL     1       5.906   5.729  18.350  0.00  0.00    +0.000 A 
ATOM     18  C   UNL     1       7.055   4.977  18.089  0.00  0.00    +0.000 A 
ATOM     19  C   UNL     1       7.407   4.667  16.775  0.00  0.00    +0.000 A 
ATOM     20  C   UNL     1       6.596   5.111  15.724  0.00  0.00    +0.000 A 
ATOM     21  C   UNL     1       5.441   5.865  15.981  0.00  0.00    +0.000 A 
BRANCH  20  22
ATOM     22  N   UNL     1       6.964   4.795  14.337  0.00  0.00    +0.000 N 
ATOM     23  O   UNL     1       6.377   3.855  13.783  0.00  0.00    +0.000 OA
ATOM     24  O   UNL     1       7.843   5.487  13.801  0.00  0.00    +0.000 OA
ENDBRANCH  20  22
ENDBRANCH  15  16
ENDBRANCH  14  15
ENDBRANCH   3  14
TORSDOF 5
ENDMDL
MODEL 6
REMARK VINA RESULT:      -7.2      1.758      2.328
REMARK  Name = 
REMARK  5 active torsions:
REMARK  status: ('A' for Active; 'I' for Inactive)
REMARK    1  A    between atoms: C_2  and  C_15
REMARK    2  A    between atoms: N_3  and  O_4
REMARK    3  A    between atoms: O_4  and  C_5
REMARK    4  A    between atoms: C_5  and  C_6
REMARK    5  A    between atoms: C_10  and  N_11
REMARK                            x       y       z     vdW  Elec       q    Type
REMARK                         _______ _______ _______ _____ _____    ______ ____
ROOT
ATOM      1  N   UNL     1       6.944   4.031  16.308  0.00  0.00    +0.000 N 
ATOM      2  C   UNL     1       6.217   4.951  17.020  0.00  0.00    +0.000 C 
ATOM      3  N   UNL     1       4.970   4.846  17.362  0.00  0.00    +0.000 NA
ATOM      4  H   UNL     1       6.527   3.108  16.313  0.00  0.00    +0.000 HD
ATOM      5  H   UNL     1       7.947   4.050  16.467  0.00  0.00    +0.000 HD
ENDROOT
BRANCH   2   6
ATOM      6  C   UNL     1       6.970   6.131  17.429  0.00  0.00    +0.000 A 
ATOM      7  N   UNL     1       7.028   7.231  16.659  0.00  0.00    +0.000 NA
ATOM      8  O   UNL     1       7.823   8.125  17.368  0.00  0.00    +0.000 OA
ATOM      9  N   UNL     1       8.281   7.568  18.552  0.00  0.00    +0.000 NA
ATOM     10  C   UNL     1       7.754   6.346  18.593  0.00  0.00    +0.000 A 
ATOM     11  N   UNL     1       7.963   5.462  19.588  0.00  0.00    +0.000 N 
ATOM     12  H   UNL     1       8.708   5.633  20.254  0.00  0.00    +0.000 HD
ATOM     13  H   UNL     1       7.702   4.486  19.465  0.00  0.00    +0.000 HD
ENDBRANCH   2   6
BRANCH   3  14
ATOM     14  O   UNL     1       4.430   3.634  16.886  0.00  0.00    +0.000 OA
BRANCH  14  15
ATOM     15  C   UNL     1       3.006   3.711  16.976  0.00  0.00    +0.000 C 
BRANCH  15  16
ATOM     16  C   UNL     1       2.602   4.133  18.367  0.00  0.00    +0.000 A 
ATOM     17  C   UNL     1       2.293   5.474  18.644  0.00  0.00    +0.000 A 
ATOM     18  C   UNL     1       1.960   5.879  19.940  0.00  0.00    +0.000 A 
ATOM     19  C   UNL     1       1.930   4.949  20.980  0.00  0.00    +0.000 A 
ATOM     20  C   UNL     1       2.233   3.609  20.711  0.00  0.00    +0.000 A 
ATOM     21  C   UNL     1       2.566   3.198  19.412  0.00  0.00    +0.000 A 
BRANCH  20  22
ATOM     22  N   UNL     1       2.212   2.625  21.802  0.00  0.00    +0.000 N 
ATOM     23  O   UNL     1       1.144   2.459  22.410  0.00  0.00    +0.000 OA
ATOM     24  O   UNL     1       3.263   2.018  22.052  0.00  0.00    +0.000 OA
ENDBRANCH  20  22
ENDBRANCH  15  16
ENDBRANCH  14  15
ENDBRANCH   3  14
TORSDOF 5
ENDMDL
MODEL 7
REMARK VINA RESULT:      -7.1      2.607      6.327
REMARK  Name = 
REMARK  5 active torsions:
REMARK  status: ('A' for Active; 'I' for Inactive)
REMARK    1  A    between atoms: C_2  and  C_15
REMARK    2  A    between atoms: N_3  and  O_4
REMARK    3  A    between atoms: O_4  and  C_5
REMARK    4  A    between atoms: C_5  and  C_6
REMARK    5  A    between atoms: C_10  and  N_11
REMARK                            x       y       z     vdW  Elec       q    Type
REMARK                         _______ _______ _______ _____ _____    ______ ____
ROOT
ATOM      1  N   UNL     1       4.348   2.276  17.809  0.00  0.00    +0.000 N 
ATOM      2  C   UNL     1       3.764   2.920  18.871  0.00  0.00    +0.000 C 
ATOM      3  N   UNL     1       4.364   3.690  19.726  0.00  0.00    +0.000 NA
ATOM      4  H   UNL     1       5.242   2.676  17.548  0.00  0.00    +0.000 HD
ATOM      5  H   UNL     1       3.729   2.065  17.032  0.00  0.00    +0.000 HD
ENDROOT
BRANCH   2   6
ATOM      6  C   UNL     1       2.326   2.707  18.990  0.00  0.00    +0.000 A 
ATOM      7  N   UNL     1       1.571   2.395  17.924  0.00  0.00    +0.000 NA
ATOM      8  O   UNL     1       0.279   2.273  18.422  0.00  0.00    +0.000 OA
ATOM      9  N   UNL     1       0.231   2.542  19.781  0.00  0.00    +0.000 NA
ATOM     10  C   UNL     1       1.488   2.803  20.132  0.00  0.00    +0.000 A 
ATOM     11  N   UNL     1       1.877   3.125  21.380  0.00  0.00    +0.000 N 
ATOM     12  H   UNL     1       1.176   3.381  22.067  0.00  0.00    +0.000 HD
ATOM     13  H   UNL     1       2.806   3.508  21.543  0.00  0.00    +0.000 HD
ENDBRANCH   2   6
BRANCH   3  14
ATOM     14  O   UNL     1       5.739   3.778  19.429  0.00  0.00    +0.000 OA
BRANCH  14  15
ATOM     15  C   UNL     1       6.084   5.158  19.302  0.00  0.00    +0.000 C 
BRANCH  15  16
ATOM     16  C   UNL     1       5.817   5.626  17.892  0.00  0.00    +0.000 A 
ATOM     17  C   UNL     1       4.849   6.611  17.638  0.00  0.00    +0.000 A 
ATOM     18  C   UNL     1       4.567   7.017  16.331  0.00  0.00    +0.000 A 
ATOM     19  C   UNL     1       5.248   6.444  15.255  0.00  0.00    +0.000 A 
ATOM     20  C   UNL     1       6.217   5.464  15.501  0.00  0.00    +0.000 A 
ATOM     21  C   UNL     1       6.505   5.054  16.811  0.00  0.00    +0.000 A 
BRANCH  20  22
ATOM     22  N   UNL     1       6.933   4.850  14.374  0.00  0.00    +0.000 N 
ATOM     23  O   UNL     1       7.922   5.446  13.924  0.00  0.00    +0.000 OA
ATOM     24  O   UNL     1       6.505   3.771  13.937  0.00  0.00    +0.000 OA
ENDBRANCH  20  22
ENDBRANCH  15  16
ENDBRANCH  14  15
ENDBRANCH   3  14
TORSDOF 5
ENDMDL
MODEL 8
REMARK VINA RESULT:      -7.1      2.357      3.447
REMARK  Name = 
REMARK  5 active torsions:
REMARK  status: ('A' for Active; 'I' for Inactive)
REMARK    1  A    between atoms: C_2  and  C_15
REMARK    2  A    between atoms: N_3  and  O_4
REMARK    3  A    between atoms: O_4  and  C_5
REMARK    4  A    between atoms: C_5  and  C_6
REMARK    5  A    between atoms: C_10  and  N_11
REMARK                            x       y       z     vdW  Elec       q    Type
REMARK                         _______ _______ _______ _____ _____    ______ ____
ROOT
ATOM      1  N   UNL     1       7.178   4.119  16.569  0.00  0.00    +0.000 N 
ATOM      2  C   UNL     1       6.279   4.348  15.559  0.00  0.00    +0.000 C 
ATOM      3  N   UNL     1       4.987   4.381  15.673  0.00  0.00    +0.000 NA
ATOM      4  H   UNL     1       6.784   4.269  17.491  0.00  0.00    +0.000 HD
ATOM      5  H   UNL     1       8.103   4.514  16.429  0.00  0.00    +0.000 HD
ENDROOT
BRANCH   2   6
ATOM      6  C   UNL     1       6.885   4.598  14.256  0.00  0.00    +0.000 A 
ATOM      7  N   UNL     1       7.826   5.542  14.088  0.00  0.00    +0.000 NA
ATOM      8  O   UNL     1       8.155   5.487  12.739  0.00  0.00    +0.000 OA
ATOM      9  N   UNL     1       7.397   4.538  12.071  0.00  0.00    +0.000 NA
ATOM     10  C   UNL     1       6.621   3.988  13.002  0.00  0.00    +0.000 A 
ATOM     11  N   UNL     1       5.718   3.018  12.762  0.00  0.00    +0.000 N 
ATOM     12  H   UNL     1       5.455   2.811  11.806  0.00  0.00    +0.000 HD
ATOM     13  H   UNL     1       5.021   2.785  13.467  0.00  0.00    +0.000 HD
ENDBRANCH   2   6
BRANCH   3  14
ATOM     14  O   UNL     1       4.604   4.131  17.007  0.00  0.00    +0.000 OA
BRANCH  14  15
ATOM     15  C   UNL     1       4.489   5.384  17.684  0.00  0.00    +0.000 C 
BRANCH  15  16
ATOM     16  C   UNL     1       3.516   5.259  18.830  0.00  0.00    +0.000 A 
ATOM     17  C   UNL     1       2.663   6.324  19.162  0.00  0.00    +0.000 A 
ATOM     18  C   UNL     1       1.790   6.231  20.250  0.00  0.00    +0.000 A 
ATOM     19  C   UNL     1       1.756   5.070  21.024  0.00  0.00    +0.000 A 
ATOM     20  C   UNL     1       2.600   4.002  20.698  0.00  0.00    +0.000 A 
ATOM     21  C   UNL     1       3.477   4.091  19.606  0.00  0.00    +0.000 A 
BRANCH  20  22
ATOM     22  N   UNL     1       2.576   2.780  21.513  0.00  0.00    +0.000 N 
ATOM     23  O   UNL     1       3.618   2.111  21.582  0.00  0.00    +0.000 OA
ATOM     24  O   UNL     1       1.515   2.487  22.083  0.00  0.00    +0.000 OA
ENDBRANCH  20  22
ENDBRANCH  15  16
ENDBRANCH  14  15
ENDBRANCH   3  14
TORSDOF 5
ENDMDL
MODEL 9
REMARK VINA RESULT:      -7.1      2.420      3.340
REMARK  Name = 
REMARK  5 active torsions:
REMARK  status: ('A' for Active; 'I' for Inactive)
REMARK    1  A    between atoms: C_2  and  C_15
REMARK    2  A    between atoms: N_3  and  O_4
REMARK    3  A    between atoms: O_4  and  C_5
REMARK    4  A    between atoms: C_5  and  C_6
REMARK    5  A    between atoms: C_10  and  N_11
REMARK                            x       y       z     vdW  Elec       q    Type
REMARK                         _______ _______ _______ _____ _____    ______ ____
ROOT
ATOM      1  N   UNL     1       6.084   3.583  15.758  0.00  0.00    +0.000 N 
ATOM      2  C   UNL     1       5.789   4.282  16.901  0.00  0.00    +0.000 C 
ATOM      3  N   UNL     1       4.845   4.007  17.748  0.00  0.00    +0.000 NA
ATOM      4  H   UNL     1       5.703   2.644  15.759  0.00  0.00    +0.000 HD
ATOM      5  H   UNL     1       7.045   3.656  15.437  0.00  0.00    +0.000 HD
ENDROOT
BRANCH   2   6
ATOM      6  C   UNL     1       6.665   5.420  17.157  0.00  0.00    +0.000 A 
ATOM      7  N   UNL     1       7.112   6.201  16.159  0.00  0.00    +0.000 NA
ATOM      8  O   UNL     1       7.904   7.160  16.780  0.00  0.00    +0.000 OA
ATOM      9  N   UNL     1       7.974   6.951  18.149  0.00  0.00    +0.000 NA
ATOM     10  C   UNL     1       7.209   5.887  18.382  0.00  0.00    +0.000 A 
ATOM     11  N   UNL     1       7.013   5.344  19.598  0.00  0.00    +0.000 N 
ATOM     12  H   UNL     1       7.618   5.615  20.365  0.00  0.00    +0.000 HD
ATOM     13  H   UNL     1       6.589   4.422  19.683  0.00  0.00    +0.000 HD
ENDBRANCH   2   6
BRANCH   3  14
ATOM     14  O   UNL     1       4.126   2.869  17.329  0.00  0.00    +0.000 OA
BRANCH  14  15
ATOM     15  C   UNL     1       2.737   3.204  17.292  0.00  0.00    +0.000 C 
BRANCH  15  16
ATOM     16  C   UNL     1       2.361   3.971  18.536  0.00  0.00    +0.000 A 
ATOM     17  C   UNL     1       1.928   3.296  19.688  0.00  0.00    +0.000 A 
ATOM     18  C   UNL     1       1.538   4.003  20.829  0.00  0.00    +0.000 A 
ATOM     19  C   UNL     1       1.574   5.398  20.836  0.00  0.00    +0.000 A 
ATOM     20  C   UNL     1       2.009   6.079  19.692  0.00  0.00    +0.000 A 
ATOM     21  C   UNL     1       2.403   5.374  18.546  0.00  0.00    +0.000 A 
BRANCH  20  22
ATOM     22  N   UNL     1       2.042   7.549  19.688  0.00  0.00    +0.000 N 
ATOM     23  O   UNL     1       2.438   8.114  18.659  0.00  0.00    +0.000 OA
ATOM     24  O   UNL     1       1.675   8.137  20.716  0.00  0.00    +0.000 OA
ENDBRANCH  20  22
ENDBRANCH  15  16
ENDBRANCH  14  15
ENDBRANCH   3  14
TORSDOF 5
ENDMDL
