MODEL 1
REMARK VINA RESULT:      -8.4      0.000      0.000
REMARK  Name = 
REMARK  8 active torsions:
REMARK  status: ('A' for Active; 'I' for Inactive)
REMARK    1  A    between atoms: C_1  and  C_2
REMARK    2  A    between atoms: C_2  and  C_3
REMARK    3  A    between atoms: C_6  and  C_7
REMARK    4  A    between atoms: C_6  and  C_8
REMARK    5  A    between atoms: C_11  and  C_12
REMARK    6  A    between atoms: C_13  and  C_14
REMARK    7  A    between atoms: C_17  and  C_18
REMARK    8  A    between atoms: C_18  and  O_20
REMARK                            x       y       z     vdW  Elec       q    Type
REMARK                         _______ _______ _______ _____ _____    ______ ____
ROOT
ATOM      1  C   UNL     1       6.448   4.740  17.304  0.00  0.00    +0.000 C 
ATOM      2  C   UNL     1       5.015   4.609  16.739  0.00  0.00    +0.000 C 
ATOM      3  C   UNL     1       5.039   4.946  15.228  0.00  0.00    +0.000 C 
ATOM      4  C   UNL     1       4.537   3.142  16.823  0.00  0.00    +0.000 C 
ATOM      5  C   UNL     1       3.850   2.729  18.110  0.00  0.00    +0.000 C 
ATOM      6  C   UNL     1       2.807   3.720  18.685  0.00  0.00    +0.000 C 
ATOM      7  C   UNL     1       1.394   3.320  18.199  0.00  0.00    +0.000 C 
ATOM      8  C   UNL     1       2.860   3.525  20.223  0.00  0.00    +0.000 C 
ATOM      9  C   UNL     1       3.077   5.191  18.339  0.00  0.00    +0.000 A 
ATOM     10  C   UNL     1       2.258   6.197  18.914  0.00  0.00    +0.000 A 
ATOM     11  C   UNL     1       2.464   7.565  18.684  0.00  0.00    +0.000 A 
ATOM     12  C   UNL     1       3.552   7.944  17.908  0.00  0.00    +0.000 A 
ATOM     13  C   UNL     1       4.350   6.976  17.308  0.00  0.00    +0.000 A 
ATOM     14  C   UNL     1       4.114   5.591  17.480  0.00  0.00    +0.000 A 
ENDROOT
BRANCH  11  15
ATOM     15  C   UNL     1       1.591   8.558  19.326  0.00  0.00    +0.000 C 
ATOM     16  C   UNL     1       1.298   8.562  20.640  0.00  0.00    +0.000 C 
BRANCH  16  17
ATOM     17  C   UNL     1       0.408   9.550  21.267  0.00  0.00    +0.000 A 
ATOM     18  C   UNL     1      -0.049  10.671  20.566  0.00  0.00    +0.000 A 
ATOM     19  C   UNL     1      -0.904  11.590  21.177  0.00  0.00    +0.000 A 
ATOM     20  C   UNL     1      -1.340  11.387  22.491  0.00  0.00    +0.000 A 
ATOM     21  C   UNL     1      -0.923  10.246  23.186  0.00  0.00    +0.000 A 
ATOM     22  C   UNL     1      -0.050   9.336  22.574  0.00  0.00    +0.000 A 
BRANCH  20  23
ATOM     23  C   UNL     1      -2.292  12.381  23.055  0.00  0.00    +0.000 C 
ATOM     24  O   UNL     1      -2.179  13.573  22.867  0.00  0.00    +0.000 OA
BRANCH  23  25
ATOM     25  O   UNL     1      -3.275  11.851  23.812  0.00  0.00    +0.000 OA
ATOM     26  H   UNL     1      -2.983  11.272  24.536  0.00  0.00    +0.000 HD
ENDBRANCH  23  25
ENDBRANCH  20  23
ENDBRANCH  16  17
ENDBRANCH  11  15
TORSDOF 4
ENDMDL
MODEL 2
REMARK VINA RESULT:      -8.4      1.060      1.285
REMARK  Name = 
REMARK  8 active torsions:
REMARK  status: ('A' for Active; 'I' for Inactive)
REMARK    1  A    between atoms: C_1  and  C_2
REMARK    2  A    between atoms: C_2  and  C_3
REMARK    3  A    between atoms: C_6  and  C_7
REMARK    4  A    between atoms: C_6  and  C_8
REMARK    5  A    between atoms: C_11  and  C_12
REMARK    6  A    between atoms: C_13  and  C_14
REMARK    7  A    between atoms: C_17  and  C_18
REMARK    8  A    between atoms: C_18  and  O_20
REMARK                            x       y       z     vdW  Elec       q    Type
REMARK                         _______ _______ _______ _____ _____    ______ ____
ROOT
ATOM      1  C   UNL     1       5.765   4.112  18.277  0.00  0.00    +0.000 C 
ATOM      2  C   UNL     1       4.287   3.977  17.841  0.00  0.00    +0.000 C 
ATOM      3  C   UNL     1       4.168   4.362  16.346  0.00  0.00    +0.000 C 
ATOM      4  C   UNL     1       3.837   2.502  17.920  0.00  0.00    +0.000 C 
ATOM      5  C   UNL     1       3.277   2.038  19.251  0.00  0.00    +0.000 C 
ATOM      6  C   UNL     1       2.279   2.994  19.951  0.00  0.00    +0.000 C 
ATOM      7  C   UNL     1       0.832   2.589  19.584  0.00  0.00    +0.000 C 
ATOM      8  C   UNL     1       2.475   2.752  21.470  0.00  0.00    +0.000 C 
ATOM      9  C   UNL     1       2.497   4.479  19.629  0.00  0.00    +0.000 A 
ATOM     10  C   UNL     1       1.722   5.454  20.309  0.00  0.00    +0.000 A 
ATOM     11  C   UNL     1       1.890   6.832  20.106  0.00  0.00    +0.000 A 
ATOM     12  C   UNL     1       2.897   7.252  19.247  0.00  0.00    +0.000 A 
ATOM     13  C   UNL     1       3.648   6.315  18.545  0.00  0.00    +0.000 A 
ATOM     14  C   UNL     1       3.446   4.922  18.693  0.00  0.00    +0.000 A 
ENDROOT
BRANCH  11  15
ATOM     15  C   UNL     1       1.067   7.791  20.858  0.00  0.00    +0.000 C 
ATOM     16  C   UNL     1       0.701   8.998  20.386  0.00  0.00    +0.000 C 
BRANCH  16  17
ATOM     17  C   UNL     1      -0.107   9.955  21.155  0.00  0.00    +0.000 A 
ATOM     18  C   UNL     1      -0.706  11.063  20.544  0.00  0.00    +0.000 A 
ATOM     19  C   UNL     1      -1.479  11.953  21.292  0.00  0.00    +0.000 A 
ATOM     20  C   UNL     1      -1.691  11.734  22.657  0.00  0.00    +0.000 A 
ATOM     21  C   UNL     1      -1.131  10.606  23.268  0.00  0.00    +0.000 A 
ATOM     22  C   UNL     1      -0.340   9.725  22.517  0.00  0.00    +0.000 A 
BRANCH  20  23
ATOM     23  C   UNL     1      -2.570  12.696  23.374  0.00  0.00    +0.000 C 
ATOM     24  O   UNL     1      -2.187  13.787  23.735  0.00  0.00    +0.000 OA
BRANCH  23  25
ATOM     25  O   UNL     1      -3.820  12.245  23.613  0.00  0.00    +0.000 OA
ATOM     26  H   UNL     1      -3.907  11.284  23.720  0.00  0.00    +0.000 HD
ENDBRANCH  23  25
ENDBRANCH  20  23
ENDBRANCH  16  17
ENDBRANCH  11  15
TORSDOF 4
ENDMDL
MODEL 3
REMARK VINA RESULT:      -8.3      4.817      9.450
REMARK  Name = 
REMARK  8 active torsions:
REMARK  status: ('A' for Active; 'I' for Inactive)
REMARK    1  A    between atoms: C_1  and  C_2
REMARK    2  A    between atoms: C_2  and  C_3
REMARK    3  A    between atoms: C_6  and  C_7
REMARK    4  A    between atoms: C_6  and  C_8
REMARK    5  A    between atoms: C_11  and  C_12
REMARK    6  A    between atoms: C_13  and  C_14
REMARK    7  A    between atoms: C_17  and  C_18
REMARK    8  A    between atoms: C_18  and  O_20
REMARK                            x       y       z     vdW  Elec       q    Type
REMARK                         _______ _______ _______ _____ _____    ______ ____
ROOT
ATOM      1  C   UNL     1      -1.594  13.861  20.000  0.00  0.00    +0.000 C 
ATOM      2  C   UNL     1      -2.042  12.395  20.210  0.00  0.00    +0.000 C 
ATOM      3  C   UNL     1      -2.059  12.089  21.728  0.00  0.00    +0.000 C 
ATOM      4  C   UNL     1      -3.500  12.207  19.738  0.00  0.00    +0.000 C 
ATOM      5  C   UNL     1      -3.695  11.845  18.278  0.00  0.00    +0.000 C 
ATOM      6  C   UNL     1      -2.748  10.763  17.702  0.00  0.00    +0.000 C 
ATOM      7  C   UNL     1      -3.433   9.379  17.787  0.00  0.00    +0.000 C 
ATOM      8  C   UNL     1      -2.576  11.124  16.203  0.00  0.00    +0.000 C 
ATOM      9  C   UNL     1      -1.373  10.702  18.382  0.00  0.00    +0.000 A 
ATOM     10  C   UNL     1      -0.381   9.835  17.857  0.00  0.00    +0.000 A 
ATOM     11  C   UNL     1       0.914   9.751  18.392  0.00  0.00    +0.000 A 
ATOM     12  C   UNL     1       1.247  10.599  19.440  0.00  0.00    +0.000 A 
ATOM     13  C   UNL     1       0.282  11.435  19.993  0.00  0.00    +0.000 A 
ATOM     14  C   UNL     1      -1.045  11.482  19.504  0.00  0.00    +0.000 A 
ENDROOT
BRANCH  11  15
ATOM     15  C   UNL     1       1.901   8.845  17.787  0.00  0.00    +0.000 C 
ATOM     16  C   UNL     1       2.333   7.710  18.369  0.00  0.00    +0.000 C 
BRANCH  16  17
ATOM     17  C   UNL     1       3.335   6.822  17.762  0.00  0.00    +0.000 A 
ATOM     18  C   UNL     1       4.444   7.331  17.077  0.00  0.00    +0.000 A 
ATOM     19  C   UNL     1       5.391   6.469  16.520  0.00  0.00    +0.000 A 
ATOM     20  C   UNL     1       5.259   5.084  16.664  0.00  0.00    +0.000 A 
ATOM     21  C   UNL     1       4.176   4.567  17.384  0.00  0.00    +0.000 A 
ATOM     22  C   UNL     1       3.219   5.435  17.927  0.00  0.00    +0.000 A 
BRANCH  20  23
ATOM     23  C   UNL     1       6.335   4.233  16.089  0.00  0.00    +0.000 C 
ATOM     24  O   UNL     1       6.177   3.568  15.089  0.00  0.00    +0.000 OA
BRANCH  23  25
ATOM     25  O   UNL     1       7.491   4.241  16.785  0.00  0.00    +0.000 OA
ATOM     26  H   UNL     1       8.159   3.597  16.500  0.00  0.00    +0.000 HD
ENDBRANCH  23  25
ENDBRANCH  20  23
ENDBRANCH  16  17
ENDBRANCH  11  15
TORSDOF 4
ENDMDL
MODEL 4
REMARK VINA RESULT:      -8.2      4.139      9.475
REMARK  Name = 
REMARK  8 active torsions:
REMARK  status: ('A' for Active; 'I' for Inactive)
REMARK    1  A    between atoms: C_1  and  C_2
REMARK    2  A    between atoms: C_2  and  C_3
REMARK    3  A    between atoms: C_6  and  C_7
REMARK    4  A    between atoms: C_6  and  C_8
REMARK    5  A    between atoms: C_11  and  C_12
REMARK    6  A    between atoms: C_13  and  C_14
REMARK    7  A    between atoms: C_17  and  C_18
REMARK    8  A    between atoms: C_18  and  O_20
REMARK                            x       y       z     vdW  Elec       q    Type
REMARK                         _______ _______ _______ _____ _____    ______ ____
ROOT
ATOM      1  C   UNL     1      -1.145  13.870  23.464  0.00  0.00    +0.000 C 
ATOM      2  C   UNL     1      -1.874  13.099  22.339  0.00  0.00    +0.000 C 
ATOM      3  C   UNL     1      -3.312  12.766  22.811  0.00  0.00    +0.000 C 
ATOM      4  C   UNL     1      -2.050  14.000  21.097  0.00  0.00    +0.000 C 
ATOM      5  C   UNL     1      -0.915  13.990  20.091  0.00  0.00    +0.000 C 
ATOM      6  C   UNL     1      -0.323  12.605  19.731  0.00  0.00    +0.000 C 
ATOM      7  C   UNL     1      -1.010  12.066  18.455  0.00  0.00    +0.000 C 
ATOM      8  C   UNL     1       1.169  12.869  19.400  0.00  0.00    +0.000 C 
ATOM      9  C   UNL     1      -0.428  11.563  20.855  0.00  0.00    +0.000 A 
ATOM     10  C   UNL     1       0.190  10.298  20.683  0.00  0.00    +0.000 A 
ATOM     11  C   UNL     1       0.179   9.308  21.676  0.00  0.00    +0.000 A 
ATOM     12  C   UNL     1      -0.414   9.608  22.896  0.00  0.00    +0.000 A 
ATOM     13  C   UNL     1      -1.054  10.829  23.077  0.00  0.00    +0.000 A 
ATOM     14  C   UNL     1      -1.105  11.812  22.060  0.00  0.00    +0.000 A 
ENDROOT
BRANCH  11  15
ATOM     15  C   UNL     1       0.856   8.024  21.442  0.00  0.00    +0.000 C 
ATOM     16  C   UNL     1       1.459   7.693  20.285  0.00  0.00    +0.000 C 
BRANCH  16  17
ATOM     17  C   UNL     1       2.117   6.399  20.057  0.00  0.00    +0.000 A 
ATOM     18  C   UNL     1       1.701   5.240  20.723  0.00  0.00    +0.000 A 
ATOM     19  C   UNL     1       2.332   4.019  20.482  0.00  0.00    +0.000 A 
ATOM     20  C   UNL     1       3.370   3.929  19.548  0.00  0.00    +0.000 A 
ATOM     21  C   UNL     1       3.765   5.074  18.846  0.00  0.00    +0.000 A 
ATOM     22  C   UNL     1       3.140   6.302  19.104  0.00  0.00    +0.000 A 
BRANCH  20  23
ATOM     23  C   UNL     1       3.957   2.584  19.306  0.00  0.00    +0.000 C 
ATOM     24  O   UNL     1       3.322   1.674  18.818  0.00  0.00    +0.000 OA
BRANCH  23  25
ATOM     25  O   UNL     1       5.241   2.451  19.697  0.00  0.00    +0.000 OA
ATOM     26  H   UNL     1       5.410   2.594  20.643  0.00  0.00    +0.000 HD
ENDBRANCH  23  25
ENDBRANCH  20  23
ENDBRANCH  16  17
ENDBRANCH  11  15
TORSDOF 4
ENDMDL
MODEL 5
REMARK VINA RESULT:      -8.1      4.793      9.455
REMARK  Name = 
REMARK  8 active torsions:
REMARK  status: ('A' for Active; 'I' for Inactive)
REMARK    1  A    between atoms: C_1  and  C_2
REMARK    2  A    between atoms: C_2  and  C_3
REMARK    3  A    between atoms: C_6  and  C_7
REMARK    4  A    between atoms: C_6  and  C_8
REMARK    5  A    between atoms: C_11  and  C_12
REMARK    6  A    between atoms: C_13  and  C_14
REMARK    7  A    between atoms: C_17  and  C_18
REMARK    8  A    between atoms: C_18  and  O_20
REMARK                            x       y       z     vdW  Elec       q    Type
REMARK                         _______ _______ _______ _____ _____    ______ ____
ROOT
ATOM      1  C   UNL     1      -1.768  13.898  19.991  0.00  0.00    +0.000 C 
ATOM      2  C   UNL     1      -2.194  12.425  20.188  0.00  0.00    +0.000 C 
ATOM      3  C   UNL     1      -2.275  12.125  21.706  0.00  0.00    +0.000 C 
ATOM      4  C   UNL     1      -3.626  12.204  19.651  0.00  0.00    +0.000 C 
ATOM      5  C   UNL     1      -3.747  11.831  18.186  0.00  0.00    +0.000 C 
ATOM      6  C   UNL     1      -2.752  10.767  17.660  0.00  0.00    +0.000 C 
ATOM      7  C   UNL     1      -3.413   9.369  17.722  0.00  0.00    +0.000 C 
ATOM      8  C   UNL     1      -2.520  11.124  16.169  0.00  0.00    +0.000 C 
ATOM      9  C   UNL     1      -1.409  10.737  18.403  0.00  0.00    +0.000 A 
ATOM     10  C   UNL     1      -0.376   9.888  17.928  0.00  0.00    +0.000 A 
ATOM     11  C   UNL     1       0.894   9.834  18.521  0.00  0.00    +0.000 A 
ATOM     12  C   UNL     1       1.161  10.693  19.579  0.00  0.00    +0.000 A 
ATOM     13  C   UNL     1       0.156  11.511  20.082  0.00  0.00    +0.000 A 
ATOM     14  C   UNL     1      -1.149  11.529  19.533  0.00  0.00    +0.000 A 
ENDROOT
BRANCH  11  15
ATOM     15  C   UNL     1       1.926   8.945  17.968  0.00  0.00    +0.000 C 
ATOM     16  C   UNL     1       2.289   7.776  18.528  0.00  0.00    +0.000 C 
BRANCH  16  17
ATOM     17  C   UNL     1       3.337   6.906  17.975  0.00  0.00    +0.000 A 
ATOM     18  C   UNL     1       3.427   5.555  18.330  0.00  0.00    +0.000 A 
ATOM     19  C   UNL     1       4.422   4.743  17.782  0.00  0.00    +0.000 A 
ATOM     20  C   UNL     1       5.326   5.261  16.849  0.00  0.00    +0.000 A 
ATOM     21  C   UNL     1       5.217   6.601  16.455  0.00  0.00    +0.000 A 
ATOM     22  C   UNL     1       4.227   7.416  17.021  0.00  0.00    +0.000 A 
BRANCH  20  23
ATOM     23  C   UNL     1       6.323   4.322  16.270  0.00  0.00    +0.000 C 
ATOM     24  O   UNL     1       7.493   4.611  16.141  0.00  0.00    +0.000 OA
BRANCH  23  25
ATOM     25  O   UNL     1       5.816   3.135  15.877  0.00  0.00    +0.000 OA
ATOM     26  H   UNL     1       4.864   3.015  16.024  0.00  0.00    +0.000 HD
ENDBRANCH  23  25
ENDBRANCH  20  23
ENDBRANCH  16  17
ENDBRANCH  11  15
TORSDOF 4
ENDMDL
MODEL 6
REMARK VINA RESULT:      -8.0      1.011      1.589
REMARK  Name = 
REMARK  8 active torsions:
REMARK  status: ('A' for Active; 'I' for Inactive)
REMARK    1  A    between atoms: C_1  and  C_2
REMARK    2  A    between atoms: C_2  and  C_3
REMARK    3  A    between atoms: C_6  and  C_7
REMARK    4  A    between atoms: C_6  and  C_8
REMARK    5  A    between atoms: C_11  and  C_12
REMARK    6  A    between atoms: C_13  and  C_14
REMARK    7  A    between atoms: C_17  and  C_18
REMARK    8  A    between atoms: C_18  and  O_20
REMARK                            x       y       z     vdW  Elec       q    Type
REMARK                         _______ _______ _______ _____ _____    ______ ____
ROOT
ATOM      1  C   UNL     1       5.861   4.046  18.373  0.00  0.00    +0.000 C 
ATOM      2  C   UNL     1       4.385   3.919  17.928  0.00  0.00    +0.000 C 
ATOM      3  C   UNL     1       4.324   3.960  16.381  0.00  0.00    +0.000 C 
ATOM      4  C   UNL     1       3.823   2.535  18.323  0.00  0.00    +0.000 C 
ATOM      5  C   UNL     1       3.205   2.428  19.703  0.00  0.00    +0.000 C 
ATOM      6  C   UNL     1       2.270   3.586  20.133  0.00  0.00    +0.000 C 
ATOM      7  C   UNL     1       0.803   3.209  19.817  0.00  0.00    +0.000 C 
ATOM      8  C   UNL     1       2.420   3.684  21.674  0.00  0.00    +0.000 C 
ATOM      9  C   UNL     1       2.607   4.940  19.492  0.00  0.00    +0.000 A 
ATOM     10  C   UNL     1       1.896   6.096  19.906  0.00  0.00    +0.000 A 
ATOM     11  C   UNL     1       2.171   7.376  19.403  0.00  0.00    +0.000 A 
ATOM     12  C   UNL     1       3.223   7.517  18.507  0.00  0.00    +0.000 A 
ATOM     13  C   UNL     1       3.913   6.395  18.062  0.00  0.00    +0.000 A 
ATOM     14  C   UNL     1       3.603   5.089  18.514  0.00  0.00    +0.000 A 
ENDROOT
BRANCH  11  15
ATOM     15  C   UNL     1       1.410   8.536  19.889  0.00  0.00    +0.000 C 
ATOM     16  C   UNL     1       0.822   8.595  21.099  0.00  0.00    +0.000 C 
BRANCH  16  17
ATOM     17  C   UNL     1       0.048   9.754  21.566  0.00  0.00    +0.000 A 
ATOM     18  C   UNL     1      -0.555   9.770  22.829  0.00  0.00    +0.000 A 
ATOM     19  C   UNL     1      -1.275  10.886  23.257  0.00  0.00    +0.000 A 
ATOM     20  C   UNL     1      -1.380  12.017  22.441  0.00  0.00    +0.000 A 
ATOM     21  C   UNL     1      -0.745  12.027  21.193  0.00  0.00    +0.000 A 
ATOM     22  C   UNL     1      -0.037  10.897  20.761  0.00  0.00    +0.000 A 
BRANCH  20  23
ATOM     23  C   UNL     1      -2.118  13.187  22.988  0.00  0.00    +0.000 C 
ATOM     24  O   UNL     1      -3.268  13.429  22.694  0.00  0.00    +0.000 OA
BRANCH  23  25
ATOM     25  O   UNL     1      -1.396  13.971  23.816  0.00  0.00    +0.000 OA
ATOM     26  H   UNL     1      -0.432  13.923  23.706  0.00  0.00    +0.000 HD
ENDBRANCH  23  25
ENDBRANCH  20  23
ENDBRANCH  16  17
ENDBRANCH  11  15
TORSDOF 4
ENDMDL
MODEL 7
REMARK VINA RESULT:      -7.9      1.334      1.531
REMARK  Name = 
REMARK  8 active torsions:
REMARK  status: ('A' for Active; 'I' for Inactive)
REMARK    1  A    between atoms: C_1  and  C_2
REMARK    2  A    between atoms: C_2  and  C_3
REMARK    3  A    between atoms: C_6  and  C_7
REMARK    4  A    between atoms: C_6  and  C_8
REMARK    5  A    between atoms: C_11  and  C_12
REMARK    6  A    between atoms: C_13  and  C_14
REMARK    7  A    between atoms: C_17  and  C_18
REMARK    8  A    between atoms: C_18  and  O_20
REMARK                            x       y       z     vdW  Elec       q    Type
REMARK                         _______ _______ _______ _____ _____    ______ ____
ROOT
ATOM      1  C   UNL     1       6.386   4.561  17.758  0.00  0.00    +0.000 C 
ATOM      2  C   UNL     1       5.002   4.373  17.094  0.00  0.00    +0.000 C 
ATOM      3  C   UNL     1       5.181   4.366  15.556  0.00  0.00    +0.000 C 
ATOM      4  C   UNL     1       4.422   2.985  17.445  0.00  0.00    +0.000 C 
ATOM      5  C   UNL     1       3.598   2.900  18.715  0.00  0.00    +0.000 C 
ATOM      6  C   UNL     1       2.577   4.040  18.955  0.00  0.00    +0.000 C 
ATOM      7  C   UNL     1       1.189   3.608  18.428  0.00  0.00    +0.000 C 
ATOM      8  C   UNL     1       2.482   4.189  20.495  0.00  0.00    +0.000 C 
ATOM      9  C   UNL     1       2.974   5.384  18.327  0.00  0.00    +0.000 A 
ATOM     10  C   UNL     1       2.177   6.529  18.586  0.00  0.00    +0.000 A 
ATOM     11  C   UNL     1       2.494   7.801  18.088  0.00  0.00    +0.000 A 
ATOM     12  C   UNL     1       3.668   7.949  17.361  0.00  0.00    +0.000 A 
ATOM     13  C   UNL     1       4.449   6.836  17.068  0.00  0.00    +0.000 A 
ATOM     14  C   UNL     1       4.107   5.536  17.511  0.00  0.00    +0.000 A 
ENDROOT
BRANCH  11  15
ATOM     15  C   UNL     1       1.636   8.951  18.409  0.00  0.00    +0.000 C 
ATOM     16  C   UNL     1       1.086   9.162  19.620  0.00  0.00    +0.000 C 
BRANCH  16  17
ATOM     17  C   UNL     1       0.214  10.306  19.924  0.00  0.00    +0.000 A 
ATOM     18  C   UNL     1      -0.918  10.588  19.150  0.00  0.00    +0.000 A 
ATOM     19  C   UNL     1      -1.739  11.672  19.464  0.00  0.00    +0.000 A 
ATOM     20  C   UNL     1      -1.458  12.476  20.575  0.00  0.00    +0.000 A 
ATOM     21  C   UNL     1      -0.352  12.176  21.379  0.00  0.00    +0.000 A 
ATOM     22  C   UNL     1       0.479  11.097  21.049  0.00  0.00    +0.000 A 
BRANCH  20  23
ATOM     23  C   UNL     1      -2.409  13.579  20.877  0.00  0.00    +0.000 C 
ATOM     24  O   UNL     1      -2.268  14.320  21.825  0.00  0.00    +0.000 OA
BRANCH  23  25
ATOM     25  O   UNL     1      -3.452  13.672  20.026  0.00  0.00    +0.000 OA
ATOM     26  H   UNL     1      -4.329  13.721  20.439  0.00  0.00    +0.000 HD
ENDBRANCH  23  25
ENDBRANCH  20  23
ENDBRANCH  16  17
ENDBRANCH  11  15
TORSDOF 4
ENDMDL
MODEL 8
REMARK VINA RESULT:      -7.8      4.013      9.605
REMARK  Name = 
REMARK  8 active torsions:
REMARK  status: ('A' for Active; 'I' for Inactive)
REMARK    1  A    between atoms: C_1  and  C_2
REMARK    2  A    between atoms: C_2  and  C_3
REMARK    3  A    between atoms: C_6  and  C_7
REMARK    4  A    between atoms: C_6  and  C_8
REMARK    5  A    between atoms: C_11  and  C_12
REMARK    6  A    between atoms: C_13  and  C_14
REMARK    7  A    between atoms: C_17  and  C_18
REMARK    8  A    between atoms: C_18  and  O_20
REMARK                            x       y       z     vdW  Elec       q    Type
REMARK                         _______ _______ _______ _____ _____    ______ ____
ROOT
ATOM      1  C   UNL     1      -1.522  13.814  23.588  0.00  0.00    +0.000 C 
ATOM      2  C   UNL     1      -2.345  12.826  22.728  0.00  0.00    +0.000 C 
ATOM      3  C   UNL     1      -3.442  12.185  23.613  0.00  0.00    +0.000 C 
ATOM      4  C   UNL     1      -3.105  13.585  21.618  0.00  0.00    +0.000 C 
ATOM      5  C   UNL     1      -2.363  13.790  20.311  0.00  0.00    +0.000 C 
ATOM      6  C   UNL     1      -1.585  12.569  19.760  0.00  0.00    +0.000 C 
ATOM      7  C   UNL     1      -2.471  11.807  18.747  0.00  0.00    +0.000 C 
ATOM      8  C   UNL     1      -0.378  13.166  18.990  0.00  0.00    +0.000 C 
ATOM      9  C   UNL     1      -1.084  11.600  20.841  0.00  0.00    +0.000 A 
ATOM     10  C   UNL     1      -0.254  10.514  20.462  0.00  0.00    +0.000 A 
ATOM     11  C   UNL     1       0.281   9.609  21.392  0.00  0.00    +0.000 A 
ATOM     12  C   UNL     1       0.031   9.828  22.740  0.00  0.00    +0.000 A 
ATOM     13  C   UNL     1      -0.805  10.868  23.133  0.00  0.00    +0.000 A 
ATOM     14  C   UNL     1      -1.403  11.749  22.200  0.00  0.00    +0.000 A 
ENDROOT
BRANCH  11  15
ATOM     15  C   UNL     1       1.151   8.515  20.935  0.00  0.00    +0.000 C 
ATOM     16  C   UNL     1       1.509   8.326  19.651  0.00  0.00    +0.000 C 
BRANCH  16  17
ATOM     17  C   UNL     1       2.364   7.217  19.205  0.00  0.00    +0.000 A 
ATOM     18  C   UNL     1       2.419   6.008  19.908  0.00  0.00    +0.000 A 
ATOM     19  C   UNL     1       3.229   4.963  19.459  0.00  0.00    +0.000 A 
ATOM     20  C   UNL     1       3.974   5.099  18.283  0.00  0.00    +0.000 A 
ATOM     21  C   UNL     1       3.892   6.289  17.550  0.00  0.00    +0.000 A 
ATOM     22  C   UNL     1       3.092   7.342  18.014  0.00  0.00    +0.000 A 
BRANCH  20  23
ATOM     23  C   UNL     1       4.771   3.923  17.840  0.00  0.00    +0.000 C 
ATOM     24  O   UNL     1       5.314   3.874  16.758  0.00  0.00    +0.000 OA
BRANCH  23  25
ATOM     25  O   UNL     1       4.818   2.909  18.729  0.00  0.00    +0.000 OA
ATOM     26  H   UNL     1       5.630   2.376  18.716  0.00  0.00    +0.000 HD
ENDBRANCH  23  25
ENDBRANCH  20  23
ENDBRANCH  16  17
ENDBRANCH  11  15
TORSDOF 4
ENDMDL
MODEL 9
REMARK VINA RESULT:      -7.8      4.063      9.512
REMARK  Name = 
REMARK  8 active torsions:
REMARK  status: ('A' for Active; 'I' for Inactive)
REMARK    1  A    between atoms: C_1  and  C_2
REMARK    2  A    between atoms: C_2  and  C_3
REMARK    3  A    between atoms: C_6  and  C_7
REMARK    4  A    between atoms: C_6  and  C_8
REMARK    5  A    between atoms: C_11  and  C_12
REMARK    6  A    between atoms: C_13  and  C_14
REMARK    7  A    between atoms: C_17  and  C_18
REMARK    8  A    between atoms: C_18  and  O_20
REMARK                            x       y       z     vdW  Elec       q    Type
REMARK                         _______ _______ _______ _____ _____    ______ ____
ROOT
ATOM      1  C   UNL     1      -1.180  13.977  23.819  0.00  0.00    +0.000 C 
ATOM      2  C   UNL     1      -1.716  13.430  22.476  0.00  0.00    +0.000 C 
ATOM      3  C   UNL     1      -3.234  13.160  22.615  0.00  0.00    +0.000 C 
ATOM      4  C   UNL     1      -1.590  14.503  21.371  0.00  0.00    +0.000 C 
ATOM      5  C   UNL     1      -0.281  14.532  20.605  0.00  0.00    +0.000 C 
ATOM      6  C   UNL     1       0.290  13.163  20.161  0.00  0.00    +0.000 C 
ATOM      7  C   UNL     1      -0.161  12.861  18.712  0.00  0.00    +0.000 C 
ATOM      8  C   UNL     1       1.830  13.342  20.158  0.00  0.00    +0.000 C 
ATOM      9  C   UNL     1      -0.094  11.992  21.077  0.00  0.00    +0.000 A 
ATOM     10  C   UNL     1       0.473  10.713  20.837  0.00  0.00    +0.000 A 
ATOM     11  C   UNL     1       0.208   9.603  21.652  0.00  0.00    +0.000 A 
ATOM     12  C   UNL     1      -0.595   9.785  22.770  0.00  0.00    +0.000 A 
ATOM     13  C   UNL     1      -1.188  11.020  23.008  0.00  0.00    +0.000 A 
ATOM     14  C   UNL     1      -0.981  12.132  22.157  0.00  0.00    +0.000 A 
ENDROOT
BRANCH  11  15
ATOM     15  C   UNL     1       0.844   8.309  21.361  0.00  0.00    +0.000 C 
ATOM     16  C   UNL     1       1.512   8.041  20.223  0.00  0.00    +0.000 C 
BRANCH  16  17
ATOM     17  C   UNL     1       2.127   6.737  19.935  0.00  0.00    +0.000 A 
ATOM     18  C   UNL     1       3.019   6.568  18.870  0.00  0.00    +0.000 A 
ATOM     19  C   UNL     1       3.601   5.324  18.623  0.00  0.00    +0.000 A 
ATOM     20  C   UNL     1       3.325   4.234  19.455  0.00  0.00    +0.000 A 
ATOM     21  C   UNL     1       2.467   4.404  20.548  0.00  0.00    +0.000 A 
ATOM     22  C   UNL     1       1.871   5.650  20.782  0.00  0.00    +0.000 A 
BRANCH  20  23
ATOM     23  C   UNL     1       4.025   2.956  19.160  0.00  0.00    +0.000 C 
ATOM     24  O   UNL     1       3.481   2.028  18.600  0.00  0.00    +0.000 OA
BRANCH  23  25
ATOM     25  O   UNL     1       5.304   2.903  19.588  0.00  0.00    +0.000 OA
ATOM     26  H   UNL     1       5.425   2.676  20.525  0.00  0.00    +0.000 HD
ENDBRANCH  23  25
ENDBRANCH  20  23
ENDBRANCH  16  17
ENDBRANCH  11  15
TORSDOF 4
ENDMDL
