MODEL 1
REMARK VINA RESULT:      -8.8      0.000      0.000
REMARK  Name = 
REMARK  9 active torsions:
REMARK  status: ('A' for Active; 'I' for Inactive)
REMARK    1  A    between atoms: C_1  and  C_2
REMARK    2  A    between atoms: C_4  and  C_5
REMARK    3  A    between atoms: C_7  and  S_8
REMARK    4  A    between atoms: S_8  and  C_9
REMARK    5  A    between atoms: C_9  and  C_10
REMARK    6  A    between atoms: N_12  and  C_13
REMARK    7  A    between atoms: C_17  and  C_18
REMARK    8  A    between atoms: C_18  and  O_19
REMARK    9  A    between atoms: O_19  and  C_20
REMARK                            x       y       z     vdW  Elec       q    Type
REMARK                         _______ _______ _______ _____ _____    ______ ____
ROOT
ATOM      1  C   UNL     1       2.147   7.709  19.468  0.00  0.00    +0.000 A 
ATOM      2  C   UNL     1       2.451   8.187  18.192  0.00  0.00    +0.000 A 
ATOM      3  C   UNL     1       1.918   9.395  17.734  0.00  0.00    +0.000 A 
ATOM      4  C   UNL     1       1.069  10.137  18.547  0.00  0.00    +0.000 A 
ATOM      5  C   UNL     1       0.726   9.673  19.822  0.00  0.00    +0.000 A 
ATOM      6  C   UNL     1       1.269   8.451  20.273  0.00  0.00    +0.000 A 
ENDROOT
BRANCH   1   9
ATOM      7  C   UNL     1       2.322   5.216  19.549  0.00  0.00    +0.000 C 
ATOM      8  O   UNL     1       1.658   4.953  18.546  0.00  0.00    +0.000 OA
ATOM      9  N   UNL     1       2.662   6.493  19.972  0.00  0.00    +0.000 N 
ATOM     10  H   UNL     1       3.360   6.561  20.705  0.00  0.00    +0.000 HD
BRANCH   7  11
ATOM     11  C   UNL     1       2.951   4.078  20.343  0.00  0.00    +0.000 C 
BRANCH  11  12
ATOM     12  S   UNL     1       3.626   2.747  19.309  0.00  0.00    +0.000 S 
BRANCH  12  19
ATOM     13  C   UNL     1       5.586   4.293  14.900  0.00  0.00    +0.000 C 
ATOM     14  C   UNL     1       5.689   4.332  16.396  0.00  0.00    +0.000 A 
ATOM     15  C   UNL     1       6.680   5.070  17.019  0.00  0.00    +0.000 A 
ATOM     16  C   UNL     1       6.693   5.038  18.401  0.00  0.00    +0.000 A 
ATOM     17  C   UNL     1       7.719   5.805  19.180  0.00  0.00    +0.000 C 
ATOM     18  N   UNL     1       5.792   4.334  19.114  0.00  0.00    +0.000 NA
ATOM     19  C   UNL     1       4.862   3.664  18.418  0.00  0.00    +0.000 A 
ATOM     20  N   UNL     1       4.774   3.628  17.083  0.00  0.00    +0.000 NA
ENDBRANCH  12  19
ENDBRANCH  11  12
ENDBRANCH   7  11
ENDBRANCH   1   9
BRANCH   5  21
ATOM     21  C   UNL     1      -0.184  10.506  20.701  0.00  0.00    +0.000 C 
BRANCH  21  22
ATOM     22  O   UNL     1      -0.531  11.686  19.978  0.00  0.00    +0.000 OA
BRANCH  22  23
ATOM     23  C   UNL     1      -1.863  11.941  19.733  0.00  0.00    +0.000 A 
ATOM     24  C   UNL     1      -2.510  12.457  20.869  0.00  0.00    +0.000 A 
ATOM     25  C   UNL     1      -3.869  12.745  20.851  0.00  0.00    +0.000 A 
ATOM     26  C   UNL     1      -4.602  12.471  19.705  0.00  0.00    +0.000 A 
ATOM     27  C   UNL     1      -3.974  11.930  18.571  0.00  0.00    +0.000 A 
ATOM     28  C   UNL     1      -4.743  11.570  17.456  0.00  0.00    +0.000 A 
ATOM     29  C   UNL     1      -4.132  11.050  16.326  0.00  0.00    +0.000 A 
ATOM     30  C   UNL     1      -2.759  10.955  16.331  0.00  0.00    +0.000 A 
ATOM     31  N   UNL     1      -1.990  11.265  17.397  0.00  0.00    +0.000 NA
ATOM     32  C   UNL     1      -2.575  11.709  18.538  0.00  0.00    +0.000 A 
ENDBRANCH  22  23
ENDBRANCH  21  22
ENDBRANCH   5  21
TORSDOF 7
ENDMDL
MODEL 2
REMARK VINA RESULT:      -8.4      1.086      2.763
REMARK  Name = 
REMARK  9 active torsions:
REMARK  status: ('A' for Active; 'I' for Inactive)
REMARK    1  A    between atoms: C_1  and  C_2
REMARK    2  A    between atoms: C_4  and  C_5
REMARK    3  A    between atoms: C_7  and  S_8
REMARK    4  A    between atoms: S_8  and  C_9
REMARK    5  A    between atoms: C_9  and  C_10
REMARK    6  A    between atoms: N_12  and  C_13
REMARK    7  A    between atoms: C_17  and  C_18
REMARK    8  A    between atoms: C_18  and  O_19
REMARK    9  A    between atoms: O_19  and  C_20
REMARK                            x       y       z     vdW  Elec       q    Type
REMARK                         _______ _______ _______ _____ _____    ______ ____
ROOT
ATOM      1  C   UNL     1       1.865   7.660  20.372  0.00  0.00    +0.000 A 
ATOM      2  C   UNL     1       1.315   8.013  21.606  0.00  0.00    +0.000 A 
ATOM      3  C   UNL     1       0.519   9.154  21.735  0.00  0.00    +0.000 A 
ATOM      4  C   UNL     1       0.268   9.960  20.630  0.00  0.00    +0.000 A 
ATOM      5  C   UNL     1       0.825   9.646  19.384  0.00  0.00    +0.000 A 
ATOM      6  C   UNL     1       1.628   8.492  19.267  0.00  0.00    +0.000 A 
ENDROOT
BRANCH   1   9
ATOM      7  C   UNL     1       2.279   5.194  20.329  0.00  0.00    +0.000 C 
ATOM      8  O   UNL     1       1.114   4.811  20.441  0.00  0.00    +0.000 OA
ATOM      9  N   UNL     1       2.677   6.517  20.195  0.00  0.00    +0.000 N 
ATOM     10  H   UNL     1       3.642   6.678  19.930  0.00  0.00    +0.000 HD
BRANCH   7  11
ATOM     11  C   UNL     1       3.389   4.161  20.188  0.00  0.00    +0.000 C 
BRANCH  11  12
ATOM     12  S   UNL     1       3.352   3.251  18.618  0.00  0.00    +0.000 S 
BRANCH  12  19
ATOM     13  C   UNL     1       7.822   5.588  19.087  0.00  0.00    +0.000 C 
ATOM     14  C   UNL     1       6.840   4.945  18.154  0.00  0.00    +0.000 A 
ATOM     15  C   UNL     1       7.109   4.845  16.800  0.00  0.00    +0.000 A 
ATOM     16  C   UNL     1       6.141   4.238  16.023  0.00  0.00    +0.000 A 
ATOM     17  C   UNL     1       6.329   4.071  14.546  0.00  0.00    +0.000 C 
ATOM     18  N   UNL     1       4.993   3.762  16.545  0.00  0.00    +0.000 NA
ATOM     19  C   UNL     1       4.832   3.893  17.870  0.00  0.00    +0.000 A 
ATOM     20  N   UNL     1       5.708   4.472  18.700  0.00  0.00    +0.000 NA
ENDBRANCH  12  19
ENDBRANCH  11  12
ENDBRANCH   7  11
ENDBRANCH   1   9
BRANCH   5  21
ATOM     21  C   UNL     1       0.522  10.525  18.188  0.00  0.00    +0.000 C 
BRANCH  21  22
ATOM     22  O   UNL     1      -0.467  11.475  18.582  0.00  0.00    +0.000 OA
BRANCH  22  23
ATOM     23  C   UNL     1      -1.780  11.243  18.232  0.00  0.00    +0.000 A 
ATOM     24  C   UNL     1      -1.877  10.409  17.105  0.00  0.00    +0.000 A 
ATOM     25  C   UNL     1      -3.111  10.082  16.560  0.00  0.00    +0.000 A 
ATOM     26  C   UNL     1      -4.260  10.631  17.112  0.00  0.00    +0.000 A 
ATOM     27  C   UNL     1      -4.177  11.487  18.222  0.00  0.00    +0.000 A 
ATOM     28  C   UNL     1      -5.335  12.108  18.708  0.00  0.00    +0.000 A 
ATOM     29  C   UNL     1      -5.266  12.944  19.813  0.00  0.00    +0.000 A 
ATOM     30  C   UNL     1      -4.044  13.090  20.426  0.00  0.00    +0.000 A 
ATOM     31  N   UNL     1      -2.903  12.530  19.968  0.00  0.00    +0.000 NA
ATOM     32  C   UNL     1      -2.936  11.766  18.846  0.00  0.00    +0.000 A 
ENDBRANCH  22  23
ENDBRANCH  21  22
ENDBRANCH   5  21
TORSDOF 7
ENDMDL
MODEL 3
REMARK VINA RESULT:      -8.3      2.527      2.723
REMARK  Name = 
REMARK  9 active torsions:
REMARK  status: ('A' for Active; 'I' for Inactive)
REMARK    1  A    between atoms: C_1  and  C_2
REMARK    2  A    between atoms: C_4  and  C_5
REMARK    3  A    between atoms: C_7  and  S_8
REMARK    4  A    between atoms: S_8  and  C_9
REMARK    5  A    between atoms: C_9  and  C_10
REMARK    6  A    between atoms: N_12  and  C_13
REMARK    7  A    between atoms: C_17  and  C_18
REMARK    8  A    between atoms: C_18  and  O_19
REMARK    9  A    between atoms: O_19  and  C_20
REMARK                            x       y       z     vdW  Elec       q    Type
REMARK                         _______ _______ _______ _____ _____    ______ ____
ROOT
ATOM      1  C   UNL     1       2.406   6.875  18.838  0.00  0.00    +0.000 A 
ATOM      2  C   UNL     1       2.359   7.809  17.801  0.00  0.00    +0.000 A 
ATOM      3  C   UNL     1       1.813   9.079  18.006  0.00  0.00    +0.000 A 
ATOM      4  C   UNL     1       1.302   9.428  19.250  0.00  0.00    +0.000 A 
ATOM      5  C   UNL     1       1.312   8.505  20.303  0.00  0.00    +0.000 A 
ATOM      6  C   UNL     1       1.864   7.225  20.084  0.00  0.00    +0.000 A 
ENDROOT
BRANCH   1   9
ATOM      7  C   UNL     1       2.316   4.488  18.096  0.00  0.00    +0.000 C 
ATOM      8  O   UNL     1       1.257   4.532  17.469  0.00  0.00    +0.000 OA
ATOM      9  N   UNL     1       2.947   5.579  18.676  0.00  0.00    +0.000 N 
ATOM     10  H   UNL     1       3.896   5.436  19.003  0.00  0.00    +0.000 HD
BRANCH   7  11
ATOM     11  C   UNL     1       3.093   3.180  18.151  0.00  0.00    +0.000 C 
BRANCH  11  12
ATOM     12  S   UNL     1       4.692   3.310  18.999  0.00  0.00    +0.000 S 
BRANCH  12  19
ATOM     13  C   UNL     1       6.197   3.936  14.202  0.00  0.00    +0.000 C 
ATOM     14  C   UNL     1       6.230   4.472  15.603  0.00  0.00    +0.000 A 
ATOM     15  C   UNL     1       6.906   5.643  15.898  0.00  0.00    +0.000 A 
ATOM     16  C   UNL     1       6.880   6.052  17.218  0.00  0.00    +0.000 A 
ATOM     17  C   UNL     1       7.575   7.309  17.650  0.00  0.00    +0.000 C 
ATOM     18  N   UNL     1       6.232   5.359  18.174  0.00  0.00    +0.000 NA
ATOM     19  C   UNL     1       5.595   4.245  17.785  0.00  0.00    +0.000 A 
ATOM     20  N   UNL     1       5.570   3.767  16.536  0.00  0.00    +0.000 NA
ENDBRANCH  12  19
ENDBRANCH  11  12
ENDBRANCH   7  11
ENDBRANCH   1   9
BRANCH   5  21
ATOM     21  C   UNL     1       0.769   8.911  21.658  0.00  0.00    +0.000 C 
BRANCH  21  22
ATOM     22  O   UNL     1       1.099  10.283  21.869  0.00  0.00    +0.000 OA
BRANCH  22  23
ATOM     23  C   UNL     1       0.074  11.199  21.968  0.00  0.00    +0.000 A 
ATOM     24  C   UNL     1      -0.871  10.817  22.936  0.00  0.00    +0.000 A 
ATOM     25  C   UNL     1      -2.008  11.580  23.168  0.00  0.00    +0.000 A 
ATOM     26  C   UNL     1      -2.232  12.710  22.395  0.00  0.00    +0.000 A 
ATOM     27  C   UNL     1      -1.311  13.089  21.406  0.00  0.00    +0.000 A 
ATOM     28  C   UNL     1      -1.597  14.177  20.569  0.00  0.00    +0.000 A 
ATOM     29  C   UNL     1      -0.687  14.569  19.600  0.00  0.00    +0.000 A 
ATOM     30  C   UNL     1       0.507  13.889  19.534  0.00  0.00    +0.000 A 
ATOM     31  N   UNL     1       0.804  12.819  20.304  0.00  0.00    +0.000 NA
ATOM     32  C   UNL     1      -0.103  12.375  21.210  0.00  0.00    +0.000 A 
ENDBRANCH  22  23
ENDBRANCH  21  22
ENDBRANCH   5  21
TORSDOF 7
ENDMDL
MODEL 4
REMARK VINA RESULT:      -8.2      3.009      9.578
REMARK  Name = 
REMARK  9 active torsions:
REMARK  status: ('A' for Active; 'I' for Inactive)
REMARK    1  A    between atoms: C_1  and  C_2
REMARK    2  A    between atoms: C_4  and  C_5
REMARK    3  A    between atoms: C_7  and  S_8
REMARK    4  A    between atoms: S_8  and  C_9
REMARK    5  A    between atoms: C_9  and  C_10
REMARK    6  A    between atoms: N_12  and  C_13
REMARK    7  A    between atoms: C_17  and  C_18
REMARK    8  A    between atoms: C_18  and  O_19
REMARK    9  A    between atoms: O_19  and  C_20
REMARK                            x       y       z     vdW  Elec       q    Type
REMARK                         _______ _______ _______ _____ _____    ______ ____
ROOT
ATOM      1  C   UNL     1       1.977   6.118  19.446  0.00  0.00    +0.000 A 
ATOM      2  C   UNL     1       1.947   5.653  20.762  0.00  0.00    +0.000 A 
ATOM      3  C   UNL     1       2.236   4.318  21.057  0.00  0.00    +0.000 A 
ATOM      4  C   UNL     1       2.554   3.429  20.036  0.00  0.00    +0.000 A 
ATOM      5  C   UNL     1       2.569   3.859  18.704  0.00  0.00    +0.000 A 
ATOM      6  C   UNL     1       2.274   5.209  18.418  0.00  0.00    +0.000 A 
ENDROOT
BRANCH   1   9
ATOM      7  C   UNL     1       2.426   8.265  18.245  0.00  0.00    +0.000 C 
ATOM      8  O   UNL     1       3.337   7.878  17.512  0.00  0.00    +0.000 OA
ATOM      9  N   UNL     1       1.691   7.458  19.101  0.00  0.00    +0.000 N 
ATOM     10  H   UNL     1       0.856   7.867  19.509  0.00  0.00    +0.000 HD
BRANCH   7  11
ATOM     11  C   UNL     1       1.950   9.708  18.138  0.00  0.00    +0.000 C 
BRANCH  11  12
ATOM     12  S   UNL     1       0.144   9.882  18.074  0.00  0.00    +0.000 S 
BRANCH  12  19
ATOM     13  C   UNL     1      -0.036   9.428  23.117  0.00  0.00    +0.000 C 
ATOM     14  C   UNL     1      -0.192  10.342  21.937  0.00  0.00    +0.000 A 
ATOM     15  C   UNL     1      -0.508  11.678  22.113  0.00  0.00    +0.000 A 
ATOM     16  C   UNL     1      -0.633  12.436  20.965  0.00  0.00    +0.000 A 
ATOM     17  C   UNL     1      -0.968  13.896  21.037  0.00  0.00    +0.000 C 
ATOM     18  N   UNL     1      -0.455  11.915  19.735  0.00  0.00    +0.000 NA
ATOM     19  C   UNL     1      -0.137  10.615  19.671  0.00  0.00    +0.000 A 
ATOM     20  N   UNL     1      -0.002   9.800  20.724  0.00  0.00    +0.000 NA
ENDBRANCH  12  19
ENDBRANCH  11  12
ENDBRANCH   7  11
ENDBRANCH   1   9
BRANCH   5  21
ATOM     21  C   UNL     1       2.939   2.881  17.607  0.00  0.00    +0.000 C 
BRANCH  21  22
ATOM     22  O   UNL     1       4.362   2.797  17.558  0.00  0.00    +0.000 OA
BRANCH  22  23
ATOM     23  C   UNL     1       5.066   3.853  17.020  0.00  0.00    +0.000 A 
ATOM     24  C   UNL     1       4.853   3.966  15.635  0.00  0.00    +0.000 A 
ATOM     25  C   UNL     1       5.502   4.942  14.888  0.00  0.00    +0.000 A 
ATOM     26  C   UNL     1       6.409   5.782  15.517  0.00  0.00    +0.000 A 
ATOM     27  C   UNL     1       6.653   5.663  16.895  0.00  0.00    +0.000 A 
ATOM     28  C   UNL     1       7.641   6.453  17.497  0.00  0.00    +0.000 A 
ATOM     29  C   UNL     1       7.878   6.354  18.860  0.00  0.00    +0.000 A 
ATOM     30  C   UNL     1       7.080   5.501  19.585  0.00  0.00    +0.000 A 
ATOM     31  N   UNL     1       6.139   4.703  19.034  0.00  0.00    +0.000 NA
ATOM     32  C   UNL     1       5.940   4.733  17.692  0.00  0.00    +0.000 A 
ENDBRANCH  22  23
ENDBRANCH  21  22
ENDBRANCH   5  21
TORSDOF 7
ENDMDL
MODEL 5
REMARK VINA RESULT:      -8.2      3.223      5.402
REMARK  Name = 
REMARK  9 active torsions:
REMARK  status: ('A' for Active; 'I' for Inactive)
REMARK    1  A    between atoms: C_1  and  C_2
REMARK    2  A    between atoms: C_4  and  C_5
REMARK    3  A    between atoms: C_7  and  S_8
REMARK    4  A    between atoms: S_8  and  C_9
REMARK    5  A    between atoms: C_9  and  C_10
REMARK    6  A    between atoms: N_12  and  C_13
REMARK    7  A    between atoms: C_17  and  C_18
REMARK    8  A    between atoms: C_18  and  O_19
REMARK    9  A    between atoms: O_19  and  C_20
REMARK                            x       y       z     vdW  Elec       q    Type
REMARK                         _______ _______ _______ _____ _____    ______ ____
ROOT
ATOM      1  C   UNL     1       3.437   3.247  18.257  0.00  0.00    +0.000 A 
ATOM      2  C   UNL     1       2.502   2.219  18.119  0.00  0.00    +0.000 A 
ATOM      3  C   UNL     1       1.292   2.254  18.816  0.00  0.00    +0.000 A 
ATOM      4  C   UNL     1       1.004   3.317  19.665  0.00  0.00    +0.000 A 
ATOM      5  C   UNL     1       1.931   4.350  19.843  0.00  0.00    +0.000 A 
ATOM      6  C   UNL     1       3.151   4.303  19.136  0.00  0.00    +0.000 A 
ENDROOT
BRANCH   1   9
ATOM      7  C   UNL     1       4.913   3.759  16.305  0.00  0.00    +0.000 C 
ATOM      8  O   UNL     1       4.125   4.446  15.655  0.00  0.00    +0.000 OA
ATOM      9  N   UNL     1       4.674   3.252  17.574  0.00  0.00    +0.000 N 
ATOM     10  H   UNL     1       5.470   2.860  18.066  0.00  0.00    +0.000 HD
BRANCH   7  11
ATOM     11  C   UNL     1       6.320   3.534  15.766  0.00  0.00    +0.000 C 
BRANCH  11  12
ATOM     12  S   UNL     1       7.095   5.029  15.089  0.00  0.00    +0.000 S 
BRANCH  12  19
ATOM     13  C   UNL     1       8.006   9.347  17.578  0.00  0.00    +0.000 C 
ATOM     14  C   UNL     1       7.879   7.855  17.668  0.00  0.00    +0.000 A 
ATOM     15  C   UNL     1       8.033   7.203  18.879  0.00  0.00    +0.000 A 
ATOM     16  C   UNL     1       7.902   5.827  18.857  0.00  0.00    +0.000 A 
ATOM     17  C   UNL     1       8.044   5.019  20.111  0.00  0.00    +0.000 C 
ATOM     18  N   UNL     1       7.633   5.147  17.725  0.00  0.00    +0.000 NA
ATOM     19  C   UNL     1       7.486   5.871  16.606  0.00  0.00    +0.000 A 
ATOM     20  N   UNL     1       7.604   7.202  16.527  0.00  0.00    +0.000 NA
ENDBRANCH  12  19
ENDBRANCH  11  12
ENDBRANCH   7  11
ENDBRANCH   1   9
BRANCH   5  21
ATOM     21  C   UNL     1       1.591   5.511  20.756  0.00  0.00    +0.000 C 
BRANCH  21  22
ATOM     22  O   UNL     1       2.461   6.594  20.431  0.00  0.00    +0.000 OA
BRANCH  22  23
ATOM     23  C   UNL     1       1.915   7.734  19.881  0.00  0.00    +0.000 A 
ATOM     24  C   UNL     1       2.216   7.847  18.513  0.00  0.00    +0.000 A 
ATOM     25  C   UNL     1       1.797   8.946  17.775  0.00  0.00    +0.000 A 
ATOM     26  C   UNL     1       1.111   9.968  18.416  0.00  0.00    +0.000 A 
ATOM     27  C   UNL     1       0.826   9.883  19.788  0.00  0.00    +0.000 A 
ATOM     28  C   UNL     1       0.219  10.964  20.441  0.00  0.00    +0.000 A 
ATOM     29  C   UNL     1      -0.081  10.883  21.792  0.00  0.00    +0.000 A 
ATOM     30  C   UNL     1       0.193   9.699  22.436  0.00  0.00    +0.000 A 
ATOM     31  N   UNL     1       0.804   8.648  21.846  0.00  0.00    +0.000 NA
ATOM     32  C   UNL     1       1.170   8.733  20.542  0.00  0.00    +0.000 A 
ENDBRANCH  22  23
ENDBRANCH  21  22
ENDBRANCH   5  21
TORSDOF 7
ENDMDL
MODEL 6
REMARK VINA RESULT:      -8.1      2.569      9.971
REMARK  Name = 
REMARK  9 active torsions:
REMARK  status: ('A' for Active; 'I' for Inactive)
REMARK    1  A    between atoms: C_1  and  C_2
REMARK    2  A    between atoms: C_4  and  C_5
REMARK    3  A    between atoms: C_7  and  S_8
REMARK    4  A    between atoms: S_8  and  C_9
REMARK    5  A    between atoms: C_9  and  C_10
REMARK    6  A    between atoms: N_12  and  C_13
REMARK    7  A    between atoms: C_17  and  C_18
REMARK    8  A    between atoms: C_18  and  O_19
REMARK    9  A    between atoms: O_19  and  C_20
REMARK                            x       y       z     vdW  Elec       q    Type
REMARK                         _______ _______ _______ _____ _____    ______ ____
ROOT
ATOM      1  C   UNL     1       1.055   9.048  19.668  0.00  0.00    +0.000 A 
ATOM      2  C   UNL     1       1.414   9.531  18.408  0.00  0.00    +0.000 A 
ATOM      3  C   UNL     1       2.303   8.822  17.596  0.00  0.00    +0.000 A 
ATOM      4  C   UNL     1       2.848   7.621  18.038  0.00  0.00    +0.000 A 
ATOM      5  C   UNL     1       2.525   7.123  19.306  0.00  0.00    +0.000 A 
ATOM      6  C   UNL     1       1.628   7.848  20.117  0.00  0.00    +0.000 A 
ENDROOT
BRANCH   1   9
ATOM      7  C   UNL     1       0.470  10.796  21.357  0.00  0.00    +0.000 C 
ATOM      8  O   UNL     1       1.528  11.425  21.343  0.00  0.00    +0.000 OA
ATOM      9  N   UNL     1       0.161   9.732  20.523  0.00  0.00    +0.000 N 
ATOM     10  H   UNL     1      -0.806   9.424  20.515  0.00  0.00    +0.000 HD
BRANCH   7  11
ATOM     11  C   UNL     1      -0.665  11.274  22.254  0.00  0.00    +0.000 C 
BRANCH  11  12
ATOM     12  S   UNL     1      -1.326  12.902  21.798  0.00  0.00    +0.000 S 
BRANCH  12  19
ATOM     13  C   UNL     1      -2.021  10.597  17.340  0.00  0.00    +0.000 C 
ATOM     14  C   UNL     1      -2.656  11.357  18.467  0.00  0.00    +0.000 A 
ATOM     15  C   UNL     1      -4.014  11.626  18.464  0.00  0.00    +0.000 A 
ATOM     16  C   UNL     1      -4.502  12.334  19.546  0.00  0.00    +0.000 A 
ATOM     17  C   UNL     1      -5.958  12.677  19.649  0.00  0.00    +0.000 C 
ATOM     18  N   UNL     1      -3.710  12.742  20.557  0.00  0.00    +0.000 NA
ATOM     19  C   UNL     1      -2.412  12.419  20.474  0.00  0.00    +0.000 A 
ATOM     20  N   UNL     1      -1.846  11.745  19.466  0.00  0.00    +0.000 NA
ENDBRANCH  12  19
ENDBRANCH  11  12
ENDBRANCH   7  11
ENDBRANCH   1   9
BRANCH   5  21
ATOM     21  C   UNL     1       3.113   5.802  19.761  0.00  0.00    +0.000 C 
BRANCH  21  22
ATOM     22  O   UNL     1       3.527   5.084  18.599  0.00  0.00    +0.000 OA
BRANCH  22  23
ATOM     23  C   UNL     1       4.868   5.071  18.277  0.00  0.00    +0.000 A 
ATOM     24  C   UNL     1       5.670   5.408  19.381  0.00  0.00    +0.000 A 
ATOM     25  C   UNL     1       7.051   5.494  19.264  0.00  0.00    +0.000 A 
ATOM     26  C   UNL     1       7.637   5.290  18.022  0.00  0.00    +0.000 A 
ATOM     27  C   UNL     1       6.846   4.980  16.904  0.00  0.00    +0.000 A 
ATOM     28  C   UNL     1       7.441   4.872  15.640  0.00  0.00    +0.000 A 
ATOM     29  C   UNL     1       6.672   4.551  14.533  0.00  0.00    +0.000 A 
ATOM     30  C   UNL     1       5.335   4.297  14.737  0.00  0.00    +0.000 A 
ATOM     31  N   UNL     1       4.723   4.420  15.936  0.00  0.00    +0.000 NA
ATOM     32  C   UNL     1       5.445   4.803  17.019  0.00  0.00    +0.000 A 
ENDBRANCH  22  23
ENDBRANCH  21  22
ENDBRANCH   5  21
TORSDOF 7
ENDMDL
MODEL 7
REMARK VINA RESULT:      -8.1      1.426      2.070
REMARK  Name = 
REMARK  9 active torsions:
REMARK  status: ('A' for Active; 'I' for Inactive)
REMARK    1  A    between atoms: C_1  and  C_2
REMARK    2  A    between atoms: C_4  and  C_5
REMARK    3  A    between atoms: C_7  and  S_8
REMARK    4  A    between atoms: S_8  and  C_9
REMARK    5  A    between atoms: C_9  and  C_10
REMARK    6  A    between atoms: N_12  and  C_13
REMARK    7  A    between atoms: C_17  and  C_18
REMARK    8  A    between atoms: C_18  and  O_19
REMARK    9  A    between atoms: O_19  and  C_20
REMARK                            x       y       z     vdW  Elec       q    Type
REMARK                         _______ _______ _______ _____ _____    ______ ____
ROOT
ATOM      1  C   UNL     1       2.387   7.237  19.415  0.00  0.00    +0.000 A 
ATOM      2  C   UNL     1       2.498   7.745  18.119  0.00  0.00    +0.000 A 
ATOM      3  C   UNL     1       1.928   8.975  17.781  0.00  0.00    +0.000 A 
ATOM      4  C   UNL     1       1.234   9.710  18.736  0.00  0.00    +0.000 A 
ATOM      5  C   UNL     1       1.084   9.216  20.037  0.00  0.00    +0.000 A 
ATOM      6  C   UNL     1       1.663   7.972  20.366  0.00  0.00    +0.000 A 
ENDROOT
BRANCH   1   9
ATOM      7  C   UNL     1       2.273   4.790  19.920  0.00  0.00    +0.000 C 
ATOM      8  O   UNL     1       1.124   4.577  19.530  0.00  0.00    +0.000 OA
ATOM      9  N   UNL     1       2.946   5.998  19.800  0.00  0.00    +0.000 N 
ATOM     10  H   UNL     1       3.942   5.986  19.995  0.00  0.00    +0.000 HD
BRANCH   7  11
ATOM     11  C   UNL     1       3.101   3.632  20.460  0.00  0.00    +0.000 C 
BRANCH  11  12
ATOM     12  S   UNL     1       3.987   2.701  19.178  0.00  0.00    +0.000 S 
BRANCH  12  19
ATOM     13  C   UNL     1       5.109   6.044  15.541  0.00  0.00    +0.000 C 
ATOM     14  C   UNL     1       5.484   5.480  16.879  0.00  0.00    +0.000 A 
ATOM     15  C   UNL     1       6.572   5.974  17.576  0.00  0.00    +0.000 A 
ATOM     16  C   UNL     1       6.838   5.386  18.798  0.00  0.00    +0.000 A 
ATOM     17  C   UNL     1       7.990   5.845  19.641  0.00  0.00    +0.000 C 
ATOM     18  N   UNL     1       6.082   4.388  19.297  0.00  0.00    +0.000 NA
ATOM     19  C   UNL     1       5.040   3.990  18.553  0.00  0.00    +0.000 A 
ATOM     20  N   UNL     1       4.710   4.492  17.357  0.00  0.00    +0.000 NA
ENDBRANCH  12  19
ENDBRANCH  11  12
ENDBRANCH   7  11
ENDBRANCH   1   9
BRANCH   5  21
ATOM     21  C   UNL     1       0.343  10.041  21.070  0.00  0.00    +0.000 C 
BRANCH  21  22
ATOM     22  O   UNL     1      -0.653  10.802  20.388  0.00  0.00    +0.000 OA
BRANCH  22  23
ATOM     23  C   UNL     1      -1.350  11.758  21.096  0.00  0.00    +0.000 A 
ATOM     24  C   UNL     1      -0.683  12.115  22.280  0.00  0.00    +0.000 A 
ATOM     25  C   UNL     1      -1.234  13.035  23.163  0.00  0.00    +0.000 A 
ATOM     26  C   UNL     1      -2.486  13.568  22.889  0.00  0.00    +0.000 A 
ATOM     27  C   UNL     1      -3.176  13.200  21.723  0.00  0.00    +0.000 A 
ATOM     28  C   UNL     1      -4.478  13.672  21.508  0.00  0.00    +0.000 A 
ATOM     29  C   UNL     1      -5.162  13.327  20.353  0.00  0.00    +0.000 A 
ATOM     30  C   UNL     1      -4.498  12.559  19.424  0.00  0.00    +0.000 A 
ATOM     31  N   UNL     1      -3.256  12.063  19.611  0.00  0.00    +0.000 NA
ATOM     32  C   UNL     1      -2.596  12.330  20.767  0.00  0.00    +0.000 A 
ENDBRANCH  22  23
ENDBRANCH  21  22
ENDBRANCH   5  21
TORSDOF 7
ENDMDL
MODEL 8
REMARK VINA RESULT:      -8.1      6.046      9.379
REMARK  Name = 
REMARK  9 active torsions:
REMARK  status: ('A' for Active; 'I' for Inactive)
REMARK    1  A    between atoms: C_1  and  C_2
REMARK    2  A    between atoms: C_4  and  C_5
REMARK    3  A    between atoms: C_7  and  S_8
REMARK    4  A    between atoms: S_8  and  C_9
REMARK    5  A    between atoms: C_9  and  C_10
REMARK    6  A    between atoms: N_12  and  C_13
REMARK    7  A    between atoms: C_17  and  C_18
REMARK    8  A    between atoms: C_18  and  O_19
REMARK    9  A    between atoms: O_19  and  C_20
REMARK                            x       y       z     vdW  Elec       q    Type
REMARK                         _______ _______ _______ _____ _____    ______ ____
ROOT
ATOM      1  C   UNL     1       7.524   7.608  17.813  0.00  0.00    +0.000 A 
ATOM      2  C   UNL     1       8.186   6.813  18.752  0.00  0.00    +0.000 A 
ATOM      3  C   UNL     1       7.739   5.521  19.037  0.00  0.00    +0.000 A 
ATOM      4  C   UNL     1       6.620   5.009  18.392  0.00  0.00    +0.000 A 
ATOM      5  C   UNL     1       5.920   5.790  17.464  0.00  0.00    +0.000 A 
ATOM      6  C   UNL     1       6.379   7.094  17.184  0.00  0.00    +0.000 A 
ENDROOT
BRANCH   1   9
ATOM      7  C   UNL     1       8.611   9.800  18.331  0.00  0.00    +0.000 C 
ATOM      8  O   UNL     1       9.111   9.504  19.417  0.00  0.00    +0.000 OA
ATOM      9  N   UNL     1       7.939   8.920  17.494  0.00  0.00    +0.000 N 
ATOM     10  H   UNL     1       7.739   9.248  16.555  0.00  0.00    +0.000 HD
BRANCH   7  11
ATOM     11  C   UNL     1       8.840  11.194  17.764  0.00  0.00    +0.000 C 
BRANCH  11  12
ATOM     12  S   UNL     1      10.566  11.749  17.852  0.00  0.00    +0.000 S 
BRANCH  12  19
ATOM     13  C   UNL     1      12.329  16.001  19.970  0.00  0.00    +0.000 C 
ATOM     14  C   UNL     1      11.168  15.325  19.301  0.00  0.00    +0.000 A 
ATOM     15  C   UNL     1       9.989  16.010  19.066  0.00  0.00    +0.000 A 
ATOM     16  C   UNL     1       8.978  15.300  18.448  0.00  0.00    +0.000 A 
ATOM     17  C   UNL     1       7.660  15.943  18.140  0.00  0.00    +0.000 C 
ATOM     18  N   UNL     1       9.122  14.010  18.085  0.00  0.00    +0.000 NA
ATOM     19  C   UNL     1      10.308  13.439  18.342  0.00  0.00    +0.000 A 
ATOM     20  N   UNL     1      11.341  14.042  18.943  0.00  0.00    +0.000 NA
ENDBRANCH  12  19
ENDBRANCH  11  12
ENDBRANCH   7  11
ENDBRANCH   1   9
BRANCH   5  21
ATOM     21  C   UNL     1       4.714   5.206  16.754  0.00  0.00    +0.000 C 
BRANCH  21  22
ATOM     22  O   UNL     1       3.600   6.059  17.012  0.00  0.00    +0.000 OA
BRANCH  22  23
ATOM     23  C   UNL     1       2.870   5.859  18.164  0.00  0.00    +0.000 A 
ATOM     24  C   UNL     1       2.811   7.023  18.949  0.00  0.00    +0.000 A 
ATOM     25  C   UNL     1       2.158   7.028  20.175  0.00  0.00    +0.000 A 
ATOM     26  C   UNL     1       1.599   5.848  20.648  0.00  0.00    +0.000 A 
ATOM     27  C   UNL     1       1.674   4.671  19.886  0.00  0.00    +0.000 A 
ATOM     28  C   UNL     1       1.191   3.468  20.418  0.00  0.00    +0.000 A 
ATOM     29  C   UNL     1       1.246   2.303  19.668  0.00  0.00    +0.000 A 
ATOM     30  C   UNL     1       1.738   2.392  18.387  0.00  0.00    +0.000 A 
ATOM     31  N   UNL     1       2.239   3.528  17.853  0.00  0.00    +0.000 NA
ATOM     32  C   UNL     1       2.260   4.663  18.596  0.00  0.00    +0.000 A 
ENDBRANCH  22  23
ENDBRANCH  21  22
ENDBRANCH   5  21
TORSDOF 7
ENDMDL
MODEL 9
REMARK VINA RESULT:      -8.1      2.483      9.547
REMARK  Name = 
REMARK  9 active torsions:
REMARK  status: ('A' for Active; 'I' for Inactive)
REMARK    1  A    between atoms: C_1  and  C_2
REMARK    2  A    between atoms: C_4  and  C_5
REMARK    3  A    between atoms: C_7  and  S_8
REMARK    4  A    between atoms: S_8  and  C_9
REMARK    5  A    between atoms: C_9  and  C_10
REMARK    6  A    between atoms: N_12  and  C_13
REMARK    7  A    between atoms: C_17  and  C_18
REMARK    8  A    between atoms: C_18  and  O_19
REMARK    9  A    between atoms: O_19  and  C_20
REMARK                            x       y       z     vdW  Elec       q    Type
REMARK                         _______ _______ _______ _____ _____    ______ ____
ROOT
ATOM      1  C   UNL     1       1.959   5.077  20.579  0.00  0.00    +0.000 A 
ATOM      2  C   UNL     1       2.018   4.011  21.479  0.00  0.00    +0.000 A 
ATOM      3  C   UNL     1       2.321   2.720  21.039  0.00  0.00    +0.000 A 
ATOM      4  C   UNL     1       2.564   2.479  19.692  0.00  0.00    +0.000 A 
ATOM      5  C   UNL     1       2.489   3.523  18.762  0.00  0.00    +0.000 A 
ATOM      6  C   UNL     1       2.180   4.822  19.217  0.00  0.00    +0.000 A 
ENDROOT
BRANCH   1   9
ATOM      7  C   UNL     1       1.954   7.560  20.282  0.00  0.00    +0.000 C 
ATOM      8  O   UNL     1       2.366   7.607  19.123  0.00  0.00    +0.000 OA
ATOM      9  N   UNL     1       1.654   6.398  20.979  0.00  0.00    +0.000 N 
ATOM     10  H   UNL     1       1.154   6.508  21.855  0.00  0.00    +0.000 HD
BRANCH   7  11
ATOM     11  C   UNL     1       1.606   8.859  20.998  0.00  0.00    +0.000 C 
BRANCH  11  12
ATOM     12  S   UNL     1      -0.178   9.150  21.166  0.00  0.00    +0.000 S 
BRANCH  12  19
ATOM     13  C   UNL     1      -2.470  11.215  17.147  0.00  0.00    +0.000 C 
ATOM     14  C   UNL     1      -1.441  11.388  18.226  0.00  0.00    +0.000 A 
ATOM     15  C   UNL     1      -0.714  12.560  18.330  0.00  0.00    +0.000 A 
ATOM     16  C   UNL     1       0.212  12.621  19.354  0.00  0.00    +0.000 A 
ATOM     17  C   UNL     1       1.051  13.845  19.565  0.00  0.00    +0.000 C 
ATOM     18  N   UNL     1       0.402  11.600  20.214  0.00  0.00    +0.000 NA
ATOM     19  C   UNL     1      -0.362  10.513  20.039  0.00  0.00    +0.000 A 
ATOM     20  N   UNL     1      -1.277  10.359  19.074  0.00  0.00    +0.000 NA
ENDBRANCH  12  19
ENDBRANCH  11  12
ENDBRANCH   7  11
ENDBRANCH   1   9
BRANCH   5  21
ATOM     21  C   UNL     1       2.778   3.244  17.301  0.00  0.00    +0.000 C 
BRANCH  21  22
ATOM     22  O   UNL     1       4.162   2.917  17.183  0.00  0.00    +0.000 OA
BRANCH  22  23
ATOM     23  C   UNL     1       5.036   3.896  16.760  0.00  0.00    +0.000 A 
ATOM     24  C   UNL     1       5.054   4.003  15.358  0.00  0.00    +0.000 A 
ATOM     25  C   UNL     1       5.899   4.902  14.720  0.00  0.00    +0.000 A 
ATOM     26  C   UNL     1       6.770   5.668  15.482  0.00  0.00    +0.000 A 
ATOM     27  C   UNL     1       6.783   5.551  16.881  0.00  0.00    +0.000 A 
ATOM     28  C   UNL     1       7.732   6.259  17.630  0.00  0.00    +0.000 A 
ATOM     29  C   UNL     1       7.742   6.164  19.012  0.00  0.00    +0.000 A 
ATOM     30  C   UNL     1       6.765   5.399  19.606  0.00  0.00    +0.000 A 
ATOM     31  N   UNL     1       5.852   4.681  18.915  0.00  0.00    +0.000 NA
ATOM     32  C   UNL     1       5.870   4.704  17.558  0.00  0.00    +0.000 A 
ENDBRANCH  22  23
ENDBRANCH  21  22
ENDBRANCH   5  21
TORSDOF 7
ENDMDL
