MODEL 1
REMARK VINA RESULT:      -8.6      0.000      0.000
REMARK  Name = 
REMARK  11 active torsions:
REMARK  status: ('A' for Active; 'I' for Inactive)
REMARK    1  A    between atoms: C_1  and  O_2
REMARK    2  A    between atoms: O_2  and  C_3
REMARK    3  A    between atoms: C_3  and  C_4
REMARK    4  A    between atoms: C_4  and  C_5
REMARK    5  A    between atoms: N_7  and  C_8
REMARK    6  A    between atoms: C_8  and  C_9
REMARK    7  A    between atoms: C_8  and  C_10
REMARK    8  A    between atoms: C_10  and  O_11
REMARK    9  A    between atoms: C_10  and  C_28
REMARK   10  A    between atoms: O_11  and  C_12
REMARK   11  A    between atoms: N_19  and  C_20
REMARK                            x       y       z     vdW  Elec       q    Type
REMARK                         _______ _______ _______ _____ _____    ______ ____
ROOT
ATOM      1  C   UNL     1       2.783   6.163  18.665  0.00  0.00    +0.000 C 
ENDROOT
BRANCH   1   2
ATOM      2  C   UNL     1       2.003   4.894  18.978  0.00  0.00    +0.000 A 
ATOM      3  C   UNL     1       1.675   4.619  20.317  0.00  0.00    +0.000 A 
ATOM      4  C   UNL     1       1.195   3.365  20.692  0.00  0.00    +0.000 A 
ATOM      5  C   UNL     1       1.007   2.377  19.729  0.00  0.00    +0.000 A 
ATOM      6  C   UNL     1       1.227   2.668  18.383  0.00  0.00    +0.000 A 
ATOM      7  C   UNL     1       1.709   3.925  18.006  0.00  0.00    +0.000 A 
ENDBRANCH   1   2
BRANCH   1   8
ATOM      8  C   UNL     1       4.268   5.967  18.253  0.00  0.00    +0.000 C 
ATOM      9  C   UNL     1       5.102   5.230  19.305  0.00  0.00    +0.000 C 
BRANCH   8  12
ATOM     10  C   UNL     1       5.353   5.580  16.024  0.00  0.00    +0.000 C 
ATOM     11  O   UNL     1       6.177   6.476  16.169  0.00  0.00    +0.000 OA
ATOM     12  N   UNL     1       4.375   5.275  16.953  0.00  0.00    +0.000 N 
ATOM     13  H   UNL     1       3.981   4.343  16.912  0.00  0.00    +0.000 HD
BRANCH  10  14
ATOM     14  C   UNL     1       5.313   4.725  14.783  0.00  0.00    +0.000 C 
BRANCH  14  15
ATOM     15  C   UNL     1       6.728   4.346  14.383  0.00  0.00    +0.000 C 
BRANCH  15  17
ATOM     16  C   UNL     1       5.631   3.429  12.526  0.00  0.00    +0.000 C 
ATOM     17  O   UNL     1       6.787   4.126  12.976  0.00  0.00    +0.000 OA
ENDBRANCH  15  17
ENDBRANCH  14  15
ENDBRANCH  10  14
ENDBRANCH   8  12
ENDBRANCH   1   8
BRANCH   1  18
ATOM     18  O   UNL     1       2.775   6.992  19.855  0.00  0.00    +0.000 OA
BRANCH  18  19
ATOM     19  C   UNL     1       1.916   8.060  19.889  0.00  0.00    +0.000 A 
ATOM     20  C   UNL     1       1.264   8.238  21.110  0.00  0.00    +0.000 A 
ATOM     21  C   UNL     1       0.326   9.261  21.296  0.00  0.00    +0.000 A 
ATOM     22  C   UNL     1       0.032  10.083  20.202  0.00  0.00    +0.000 A 
ATOM     23  C   UNL     1       0.627   9.884  18.957  0.00  0.00    +0.000 A 
ATOM     24  C   UNL     1      -0.006  10.812  18.105  0.00  0.00    +0.000 A 
ATOM     25  N   UNL     1      -0.973  11.499  18.713  0.00  0.00    +0.000 NA
ATOM     26  N   UNL     1      -0.876  11.127  20.013  0.00  0.00    +0.000 N 
ATOM     27  C   UNL     1       1.600   8.876  18.797  0.00  0.00    +0.000 A 
BRANCH  26  28
ATOM     28  C   UNL     1      -1.689  11.759  20.996  0.00  0.00    +0.000 A 
ATOM     29  C   UNL     1      -2.809  12.502  20.590  0.00  0.00    +0.000 A 
ATOM     30  C   UNL     1      -3.637  13.088  21.550  0.00  0.00    +0.000 A 
ATOM     31  C   UNL     1      -3.319  12.976  22.896  0.00  0.00    +0.000 A 
ATOM     32  F   UNL     1      -4.105  13.551  23.815  0.00  0.00    +0.000 F 
ATOM     33  C   UNL     1      -2.186  12.279  23.306  0.00  0.00    +0.000 A 
ATOM     34  C   UNL     1      -1.373  11.658  22.358  0.00  0.00    +0.000 A 
ENDBRANCH  26  28
ENDBRANCH  18  19
ENDBRANCH   1  18
TORSDOF 9
ENDMDL
MODEL 2
REMARK VINA RESULT:      -8.6      2.296      4.708
REMARK  Name = 
REMARK  11 active torsions:
REMARK  status: ('A' for Active; 'I' for Inactive)
REMARK    1  A    between atoms: C_1  and  O_2
REMARK    2  A    between atoms: O_2  and  C_3
REMARK    3  A    between atoms: C_3  and  C_4
REMARK    4  A    between atoms: C_4  and  C_5
REMARK    5  A    between atoms: N_7  and  C_8
REMARK    6  A    between atoms: C_8  and  C_9
REMARK    7  A    between atoms: C_8  and  C_10
REMARK    8  A    between atoms: C_10  and  O_11
REMARK    9  A    between atoms: C_10  and  C_28
REMARK   10  A    between atoms: O_11  and  C_12
REMARK   11  A    between atoms: N_19  and  C_20
REMARK                            x       y       z     vdW  Elec       q    Type
REMARK                         _______ _______ _______ _____ _____    ______ ____
ROOT
ATOM      1  C   UNL     1       4.072   5.690  17.840  0.00  0.00    +0.000 C 
ENDROOT
BRANCH   1   2
ATOM      2  C   UNL     1       5.559   5.972  18.001  0.00  0.00    +0.000 A 
ATOM      3  C   UNL     1       6.253   5.346  19.050  0.00  0.00    +0.000 A 
ATOM      4  C   UNL     1       7.538   5.757  19.403  0.00  0.00    +0.000 A 
ATOM      5  C   UNL     1       8.159   6.780  18.692  0.00  0.00    +0.000 A 
ATOM      6  C   UNL     1       7.526   7.339  17.582  0.00  0.00    +0.000 A 
ATOM      7  C   UNL     1       6.237   6.928  17.228  0.00  0.00    +0.000 A 
ENDBRANCH   1   2
BRANCH   1   8
ATOM      8  C   UNL     1       3.699   4.524  16.884  0.00  0.00    +0.000 C 
ATOM      9  C   UNL     1       4.903   3.689  16.439  0.00  0.00    +0.000 C 
BRANCH   8  12
ATOM     10  C   UNL     1       2.971   2.710  18.459  0.00  0.00    +0.000 C 
ATOM     11  O   UNL     1       4.104   2.489  18.871  0.00  0.00    +0.000 OA
ATOM     12  N   UNL     1       2.674   3.646  17.485  0.00  0.00    +0.000 N 
ATOM     13  H   UNL     1       1.723   3.992  17.459  0.00  0.00    +0.000 HD
BRANCH  10  14
ATOM     14  C   UNL     1       1.773   1.951  18.970  0.00  0.00    +0.000 C 
BRANCH  14  15
ATOM     15  C   UNL     1       0.901   2.878  19.798  0.00  0.00    +0.000 C 
BRANCH  15  17
ATOM     16  C   UNL     1       2.085   3.775  21.611  0.00  0.00    +0.000 C 
ATOM     17  O   UNL     1       1.678   3.979  20.262  0.00  0.00    +0.000 OA
ENDBRANCH  15  17
ENDBRANCH  14  15
ENDBRANCH  10  14
ENDBRANCH   8  12
ENDBRANCH   1   8
BRANCH   1  18
ATOM     18  O   UNL     1       3.448   6.889  17.316  0.00  0.00    +0.000 OA
BRANCH  18  19
ATOM     19  C   UNL     1       2.657   7.624  18.161  0.00  0.00    +0.000 A 
ATOM     20  C   UNL     1       2.223   8.840  17.633  0.00  0.00    +0.000 A 
ATOM     21  C   UNL     1       1.438   9.725  18.384  0.00  0.00    +0.000 A 
ATOM     22  C   UNL     1       1.130   9.366  19.701  0.00  0.00    +0.000 A 
ATOM     23  C   UNL     1       1.605   8.183  20.267  0.00  0.00    +0.000 A 
ATOM     24  C   UNL     1       1.194   8.241  21.614  0.00  0.00    +0.000 A 
ATOM     25  N   UNL     1       0.577   9.383  21.920  0.00  0.00    +0.000 NA
ATOM     26  N   UNL     1       0.448  10.019  20.731  0.00  0.00    +0.000 N 
ATOM     27  C   UNL     1       2.359   7.285  19.485  0.00  0.00    +0.000 A 
BRANCH  26  28
ATOM     28  C   UNL     1      -0.282  11.239  20.652  0.00  0.00    +0.000 A 
ATOM     29  C   UNL     1      -1.413  11.312  19.823  0.00  0.00    +0.000 A 
ATOM     30  C   UNL     1      -2.160  12.491  19.774  0.00  0.00    +0.000 A 
ATOM     31  C   UNL     1      -1.750  13.598  20.503  0.00  0.00    +0.000 A 
ATOM     32  F   UNL     1      -2.459  14.733  20.444  0.00  0.00    +0.000 F 
ATOM     33  C   UNL     1      -0.605  13.549  21.292  0.00  0.00    +0.000 A 
ATOM     34  C   UNL     1       0.127  12.364  21.379  0.00  0.00    +0.000 A 
ENDBRANCH  26  28
ENDBRANCH  18  19
ENDBRANCH   1  18
TORSDOF 9
ENDMDL
MODEL 3
REMARK VINA RESULT:      -8.5      1.625      2.275
REMARK  Name = 
REMARK  11 active torsions:
REMARK  status: ('A' for Active; 'I' for Inactive)
REMARK    1  A    between atoms: C_1  and  O_2
REMARK    2  A    between atoms: O_2  and  C_3
REMARK    3  A    between atoms: C_3  and  C_4
REMARK    4  A    between atoms: C_4  and  C_5
REMARK    5  A    between atoms: N_7  and  C_8
REMARK    6  A    between atoms: C_8  and  C_9
REMARK    7  A    between atoms: C_8  and  C_10
REMARK    8  A    between atoms: C_10  and  O_11
REMARK    9  A    between atoms: C_10  and  C_28
REMARK   10  A    between atoms: O_11  and  C_12
REMARK   11  A    between atoms: N_19  and  C_20
REMARK                            x       y       z     vdW  Elec       q    Type
REMARK                         _______ _______ _______ _____ _____    ______ ____
ROOT
ATOM      1  C   UNL     1       3.383   4.179  18.176  0.00  0.00    +0.000 C 
ENDROOT
BRANCH   1   2
ATOM      2  C   UNL     1       2.644   3.510  19.327  0.00  0.00    +0.000 A 
ATOM      3  C   UNL     1       1.240   3.458  19.284  0.00  0.00    +0.000 A 
ATOM      4  C   UNL     1       0.504   3.095  20.411  0.00  0.00    +0.000 A 
ATOM      5  C   UNL     1       1.162   2.750  21.588  0.00  0.00    +0.000 A 
ATOM      6  C   UNL     1       2.555   2.694  21.615  0.00  0.00    +0.000 A 
ATOM      7  C   UNL     1       3.295   3.059  20.486  0.00  0.00    +0.000 A 
ENDBRANCH   1   2
BRANCH   1   8
ATOM      8  C   UNL     1       4.474   3.322  17.477  0.00  0.00    +0.000 C 
ATOM      9  C   UNL     1       4.051   1.870  17.239  0.00  0.00    +0.000 C 
BRANCH   8  12
ATOM     10  C   UNL     1       6.191   4.383  15.985  0.00  0.00    +0.000 C 
ATOM     11  O   UNL     1       7.074   4.361  16.835  0.00  0.00    +0.000 OA
ATOM     12  N   UNL     1       4.900   3.935  16.203  0.00  0.00    +0.000 N 
ATOM     13  H   UNL     1       4.362   3.679  15.384  0.00  0.00    +0.000 HD
BRANCH  10  14
ATOM     14  C   UNL     1       6.428   4.934  14.602  0.00  0.00    +0.000 C 
BRANCH  14  15
ATOM     15  C   UNL     1       6.255   3.825  13.580  0.00  0.00    +0.000 C 
BRANCH  15  17
ATOM     16  C   UNL     1       4.842   3.200  11.817  0.00  0.00    +0.000 C 
ATOM     17  O   UNL     1       4.915   3.826  13.093  0.00  0.00    +0.000 OA
ENDBRANCH  15  17
ENDBRANCH  14  15
ENDBRANCH  10  14
ENDBRANCH   8  12
ENDBRANCH   1   8
BRANCH   1  18
ATOM     18  O   UNL     1       4.040   5.361  18.700  0.00  0.00    +0.000 OA
BRANCH  18  19
ATOM     19  C   UNL     1       3.272   6.473  18.933  0.00  0.00    +0.000 A 
ATOM     20  C   UNL     1       2.657   6.498  20.185  0.00  0.00    +0.000 A 
ATOM     21  C   UNL     1       1.809   7.548  20.562  0.00  0.00    +0.000 A 
ATOM     22  C   UNL     1       1.568   8.560  19.626  0.00  0.00    +0.000 A 
ATOM     23  C   UNL     1       2.125   8.522  18.348  0.00  0.00    +0.000 A 
ATOM     24  C   UNL     1       1.558   9.625  17.678  0.00  0.00    +0.000 A 
ATOM     25  N   UNL     1       0.660  10.276  18.418  0.00  0.00    +0.000 NA
ATOM     26  N   UNL     1       0.746   9.689  19.636  0.00  0.00    +0.000 N 
ATOM     27  C   UNL     1       3.008   7.480  17.999  0.00  0.00    +0.000 A 
BRANCH  26  28
ATOM     28  C   UNL     1       0.003  10.212  20.732  0.00  0.00    +0.000 A 
ATOM     29  C   UNL     1      -0.717  11.407  20.569  0.00  0.00    +0.000 A 
ATOM     30  C   UNL     1      -1.483  11.904  21.626  0.00  0.00    +0.000 A 
ATOM     31  C   UNL     1      -1.487  11.242  22.845  0.00  0.00    +0.000 A 
ATOM     32  F   UNL     1      -2.211  11.727  23.862  0.00  0.00    +0.000 F 
ATOM     33  C   UNL     1      -0.741  10.082  23.030  0.00  0.00    +0.000 A 
ATOM     34  C   UNL     1      -0.002   9.556  21.970  0.00  0.00    +0.000 A 
ENDBRANCH  26  28
ENDBRANCH  18  19
ENDBRANCH   1  18
TORSDOF 9
ENDMDL
MODEL 4
REMARK VINA RESULT:      -8.4      1.783      2.621
REMARK  Name = 
REMARK  11 active torsions:
REMARK  status: ('A' for Active; 'I' for Inactive)
REMARK    1  A    between atoms: C_1  and  O_2
REMARK    2  A    between atoms: O_2  and  C_3
REMARK    3  A    between atoms: C_3  and  C_4
REMARK    4  A    between atoms: C_4  and  C_5
REMARK    5  A    between atoms: N_7  and  C_8
REMARK    6  A    between atoms: C_8  and  C_9
REMARK    7  A    between atoms: C_8  and  C_10
REMARK    8  A    between atoms: C_10  and  O_11
REMARK    9  A    between atoms: C_10  and  C_28
REMARK   10  A    between atoms: O_11  and  C_12
REMARK   11  A    between atoms: N_19  and  C_20
REMARK                            x       y       z     vdW  Elec       q    Type
REMARK                         _______ _______ _______ _____ _____    ______ ____
ROOT
ATOM      1  C   UNL     1       3.194   5.361  18.254  0.00  0.00    +0.000 C 
ENDROOT
BRANCH   1   2
ATOM      2  C   UNL     1       2.263   4.327  18.872  0.00  0.00    +0.000 A 
ATOM      3  C   UNL     1       2.408   4.023  20.236  0.00  0.00    +0.000 A 
ATOM      4  C   UNL     1       1.768   2.917  20.794  0.00  0.00    +0.000 A 
ATOM      5  C   UNL     1       0.951   2.115  20.001  0.00  0.00    +0.000 A 
ATOM      6  C   UNL     1       0.714   2.464  18.672  0.00  0.00    +0.000 A 
ATOM      7  C   UNL     1       1.356   3.573  18.112  0.00  0.00    +0.000 A 
ENDBRANCH   1   2
BRANCH   1   8
ATOM      8  C   UNL     1       4.559   4.828  17.740  0.00  0.00    +0.000 C 
ATOM      9  C   UNL     1       4.504   4.282  16.310  0.00  0.00    +0.000 C 
BRANCH   8  12
ATOM     10  C   UNL     1       6.870   5.599  18.347  0.00  0.00    +0.000 C 
ATOM     11  O   UNL     1       7.210   4.512  18.801  0.00  0.00    +0.000 OA
ATOM     12  N   UNL     1       5.609   5.862  17.841  0.00  0.00    +0.000 N 
ATOM     13  H   UNL     1       5.529   6.642  17.200  0.00  0.00    +0.000 HD
BRANCH  10  14
ATOM     14  C   UNL     1       7.805   6.781  18.321  0.00  0.00    +0.000 C 
BRANCH  14  15
ATOM     15  C   UNL     1       7.199   7.885  17.473  0.00  0.00    +0.000 C 
BRANCH  15  17
ATOM     16  C   UNL     1       8.618   9.463  18.471  0.00  0.00    +0.000 C 
ATOM     17  O   UNL     1       8.173   8.900  17.241  0.00  0.00    +0.000 OA
ENDBRANCH  15  17
ENDBRANCH  14  15
ENDBRANCH  10  14
ENDBRANCH   8  12
ENDBRANCH   1   8
BRANCH   1  18
ATOM     18  O   UNL     1       3.479   6.361  19.264  0.00  0.00    +0.000 OA
BRANCH  18  19
ATOM     19  C   UNL     1       2.612   7.416  19.386  0.00  0.00    +0.000 A 
ATOM     20  C   UNL     1       2.084   7.585  20.667  0.00  0.00    +0.000 A 
ATOM     21  C   UNL     1       1.154   8.595  20.947  0.00  0.00    +0.000 A 
ATOM     22  C   UNL     1       0.742   9.414  19.889  0.00  0.00    +0.000 A 
ATOM     23  C   UNL     1       1.212   9.223  18.591  0.00  0.00    +0.000 A 
ATOM     24  C   UNL     1       0.484  10.143  17.808  0.00  0.00    +0.000 A 
ATOM     25  N   UNL     1      -0.427  10.816  18.511  0.00  0.00    +0.000 NA
ATOM     26  N   UNL     1      -0.195  10.445  19.794  0.00  0.00    +0.000 N 
ATOM     27  C   UNL     1       2.178   8.229  18.333  0.00  0.00    +0.000 A 
BRANCH  26  28
ATOM     28  C   UNL     1      -0.915  11.065  20.855  0.00  0.00    +0.000 A 
ATOM     29  C   UNL     1      -1.775  12.138  20.569  0.00  0.00    +0.000 A 
ATOM     30  C   UNL     1      -2.517  12.723  21.597  0.00  0.00    +0.000 A 
ATOM     31  C   UNL     1      -2.362  12.275  22.901  0.00  0.00    +0.000 A 
ATOM     32  F   UNL     1      -3.064  12.846  23.888  0.00  0.00    +0.000 F 
ATOM     33  C   UNL     1      -1.479  11.242  23.201  0.00  0.00    +0.000 A 
ATOM     34  C   UNL     1      -0.760  10.625  22.176  0.00  0.00    +0.000 A 
ENDBRANCH  26  28
ENDBRANCH  18  19
ENDBRANCH   1  18
TORSDOF 9
ENDMDL
MODEL 5
REMARK VINA RESULT:      -8.3      4.218     10.133
REMARK  Name = 
REMARK  11 active torsions:
REMARK  status: ('A' for Active; 'I' for Inactive)
REMARK    1  A    between atoms: C_1  and  O_2
REMARK    2  A    between atoms: O_2  and  C_3
REMARK    3  A    between atoms: C_3  and  C_4
REMARK    4  A    between atoms: C_4  and  C_5
REMARK    5  A    between atoms: N_7  and  C_8
REMARK    6  A    between atoms: C_8  and  C_9
REMARK    7  A    between atoms: C_8  and  C_10
REMARK    8  A    between atoms: C_10  and  O_11
REMARK    9  A    between atoms: C_10  and  C_28
REMARK   10  A    between atoms: O_11  and  C_12
REMARK   11  A    between atoms: N_19  and  C_20
REMARK                            x       y       z     vdW  Elec       q    Type
REMARK                         _______ _______ _______ _____ _____    ______ ____
ROOT
ATOM      1  C   UNL     1       0.425  11.182  18.742  0.00  0.00    +0.000 C 
ENDROOT
BRANCH   1   2
ATOM      2  C   UNL     1       1.335  12.348  19.102  0.00  0.00    +0.000 A 
ATOM      3  C   UNL     1       1.994  13.032  18.066  0.00  0.00    +0.000 A 
ATOM      4  C   UNL     1       3.025  13.928  18.343  0.00  0.00    +0.000 A 
ATOM      5  C   UNL     1       3.392  14.177  19.663  0.00  0.00    +0.000 A 
ATOM      6  C   UNL     1       2.678  13.587  20.705  0.00  0.00    +0.000 A 
ATOM      7  C   UNL     1       1.644  12.687  20.428  0.00  0.00    +0.000 A 
ENDBRANCH   1   2
BRANCH   1   8
ATOM      8  C   UNL     1      -1.090  11.508  18.636  0.00  0.00    +0.000 C 
ATOM      9  C   UNL     1      -1.853  10.571  17.695  0.00  0.00    +0.000 C 
BRANCH   8  12
ATOM     10  C   UNL     1      -2.014  12.679  20.655  0.00  0.00    +0.000 C 
ATOM     11  O   UNL     1      -1.715  13.798  20.253  0.00  0.00    +0.000 OA
ATOM     12  N   UNL     1      -1.731  11.513  19.966  0.00  0.00    +0.000 N 
ATOM     13  H   UNL     1      -2.295  10.702  20.191  0.00  0.00    +0.000 HD
BRANCH  10  14
ATOM     14  C   UNL     1      -2.710  12.464  21.975  0.00  0.00    +0.000 C 
BRANCH  14  15
ATOM     15  C   UNL     1      -1.708  12.617  23.105  0.00  0.00    +0.000 C 
BRANCH  15  17
ATOM     16  C   UNL     1      -0.947  10.404  23.223  0.00  0.00    +0.000 C 
ATOM     17  O   UNL     1      -0.603  11.744  22.889  0.00  0.00    +0.000 OA
ENDBRANCH  15  17
ENDBRANCH  14  15
ENDBRANCH  10  14
ENDBRANCH   8  12
ENDBRANCH   1   8
BRANCH   1  18
ATOM     18  O   UNL     1       0.573  10.171  19.770  0.00  0.00    +0.000 OA
BRANCH  18  19
ATOM     19  C   UNL     1       1.389   9.101  19.507  0.00  0.00    +0.000 A 
ATOM     20  C   UNL     1       2.046   9.165  18.277  0.00  0.00    +0.000 A 
ATOM     21  C   UNL     1       2.887   8.131  17.843  0.00  0.00    +0.000 A 
ATOM     22  C   UNL     1       3.021   7.009  18.669  0.00  0.00    +0.000 A 
ATOM     23  C   UNL     1       2.325   6.900  19.873  0.00  0.00    +0.000 A 
ATOM     24  C   UNL     1       2.621   5.603  20.340  0.00  0.00    +0.000 A 
ATOM     25  N   UNL     1       3.373   4.904  19.489  0.00  0.00    +0.000 NA
ATOM     26  N   UNL     1       3.701   5.798  18.525  0.00  0.00    +0.000 N 
ATOM     27  C   UNL     1       1.516   7.966  20.315  0.00  0.00    +0.000 A 
BRANCH  26  28
ATOM     28  C   UNL     1       4.610   5.430  17.493  0.00  0.00    +0.000 A 
ATOM     29  C   UNL     1       5.810   6.145  17.345  0.00  0.00    +0.000 A 
ATOM     30  C   UNL     1       6.727   5.763  16.363  0.00  0.00    +0.000 A 
ATOM     31  C   UNL     1       6.424   4.713  15.508  0.00  0.00    +0.000 A 
ATOM     32  F   UNL     1       7.298   4.356  14.559  0.00  0.00    +0.000 F 
ATOM     33  C   UNL     1       5.218   4.027  15.619  0.00  0.00    +0.000 A 
ATOM     34  C   UNL     1       4.311   4.375  16.620  0.00  0.00    +0.000 A 
ENDBRANCH  26  28
ENDBRANCH  18  19
ENDBRANCH   1  18
TORSDOF 9
ENDMDL
MODEL 6
REMARK VINA RESULT:      -8.2      1.953      3.711
REMARK  Name = 
REMARK  11 active torsions:
REMARK  status: ('A' for Active; 'I' for Inactive)
REMARK    1  A    between atoms: C_1  and  O_2
REMARK    2  A    between atoms: O_2  and  C_3
REMARK    3  A    between atoms: C_3  and  C_4
REMARK    4  A    between atoms: C_4  and  C_5
REMARK    5  A    between atoms: N_7  and  C_8
REMARK    6  A    between atoms: C_8  and  C_9
REMARK    7  A    between atoms: C_8  and  C_10
REMARK    8  A    between atoms: C_10  and  O_11
REMARK    9  A    between atoms: C_10  and  C_28
REMARK   10  A    between atoms: O_11  and  C_12
REMARK   11  A    between atoms: N_19  and  C_20
REMARK                            x       y       z     vdW  Elec       q    Type
REMARK                         _______ _______ _______ _____ _____    ______ ____
ROOT
ATOM      1  C   UNL     1       4.215   5.579  18.191  0.00  0.00    +0.000 C 
ENDROOT
BRANCH   1   2
ATOM      2  C   UNL     1       5.669   6.029  18.147  0.00  0.00    +0.000 A 
ATOM      3  C   UNL     1       6.571   5.479  19.073  0.00  0.00    +0.000 A 
ATOM      4  C   UNL     1       7.838   6.032  19.250  0.00  0.00    +0.000 A 
ATOM      5  C   UNL     1       8.233   7.125  18.483  0.00  0.00    +0.000 A 
ATOM      6  C   UNL     1       7.389   7.616  17.487  0.00  0.00    +0.000 A 
ATOM      7  C   UNL     1       6.117   7.063  17.309  0.00  0.00    +0.000 A 
ENDBRANCH   1   2
BRANCH   1   8
ATOM      8  C   UNL     1       3.894   4.242  17.468  0.00  0.00    +0.000 C 
ATOM      9  C   UNL     1       2.478   3.725  17.740  0.00  0.00    +0.000 C 
BRANCH   8  12
ATOM     10  C   UNL     1       5.312   4.010  15.410  0.00  0.00    +0.000 C 
ATOM     11  O   UNL     1       6.303   3.634  16.027  0.00  0.00    +0.000 OA
ATOM     12  N   UNL     1       4.115   4.355  16.012  0.00  0.00    +0.000 N 
ATOM     13  H   UNL     1       3.286   4.318  15.432  0.00  0.00    +0.000 HD
BRANCH  10  14
ATOM     14  C   UNL     1       5.313   4.156  13.910  0.00  0.00    +0.000 C 
BRANCH  14  15
ATOM     15  C   UNL     1       6.728   3.988  13.387  0.00  0.00    +0.000 C 
BRANCH  15  17
ATOM     16  C   UNL     1       5.817   2.593  11.738  0.00  0.00    +0.000 C 
ATOM     17  O   UNL     1       6.692   3.686  11.994  0.00  0.00    +0.000 OA
ENDBRANCH  15  17
ENDBRANCH  14  15
ENDBRANCH  10  14
ENDBRANCH   8  12
ENDBRANCH   1   8
BRANCH   1  18
ATOM     18  O   UNL     1       3.414   6.610  17.560  0.00  0.00    +0.000 OA
BRANCH  18  19
ATOM     19  C   UNL     1       2.627   7.394  18.363  0.00  0.00    +0.000 A 
ATOM     20  C   UNL     1       2.181   8.572  17.762  0.00  0.00    +0.000 A 
ATOM     21  C   UNL     1       1.398   9.499  18.462  0.00  0.00    +0.000 A 
ATOM     22  C   UNL     1       1.104   9.224  19.803  0.00  0.00    +0.000 A 
ATOM     23  C   UNL     1       1.591   8.083  20.439  0.00  0.00    +0.000 A 
ATOM     24  C   UNL     1       1.192   8.225  21.783  0.00  0.00    +0.000 A 
ATOM     25  N   UNL     1       0.572   9.381  22.021  0.00  0.00    +0.000 NA
ATOM     26  N   UNL     1       0.428   9.939  20.794  0.00  0.00    +0.000 N 
ATOM     27  C   UNL     1       2.342   7.139  19.709  0.00  0.00    +0.000 A 
BRANCH  26  28
ATOM     28  C   UNL     1      -0.309  11.147  20.644  0.00  0.00    +0.000 A 
ATOM     29  C   UNL     1      -0.172  12.162  21.605  0.00  0.00    +0.000 A 
ATOM     30  C   UNL     1      -0.857  13.368  21.442  0.00  0.00    +0.000 A 
ATOM     31  C   UNL     1      -1.708  13.536  20.359  0.00  0.00    +0.000 A 
ATOM     32  F   UNL     1      -2.376  14.687  20.211  0.00  0.00    +0.000 F 
ATOM     33  C   UNL     1      -1.885  12.519  19.425  0.00  0.00    +0.000 A 
ATOM     34  C   UNL     1      -1.176  11.325  19.557  0.00  0.00    +0.000 A 
ENDBRANCH  26  28
ENDBRANCH  18  19
ENDBRANCH   1  18
TORSDOF 9
ENDMDL
MODEL 7
REMARK VINA RESULT:      -8.2      1.818      2.564
REMARK  Name = 
REMARK  11 active torsions:
REMARK  status: ('A' for Active; 'I' for Inactive)
REMARK    1  A    between atoms: C_1  and  O_2
REMARK    2  A    between atoms: O_2  and  C_3
REMARK    3  A    between atoms: C_3  and  C_4
REMARK    4  A    between atoms: C_4  and  C_5
REMARK    5  A    between atoms: N_7  and  C_8
REMARK    6  A    between atoms: C_8  and  C_9
REMARK    7  A    between atoms: C_8  and  C_10
REMARK    8  A    between atoms: C_10  and  O_11
REMARK    9  A    between atoms: C_10  and  C_28
REMARK   10  A    between atoms: O_11  and  C_12
REMARK   11  A    between atoms: N_19  and  C_20
REMARK                            x       y       z     vdW  Elec       q    Type
REMARK                         _______ _______ _______ _____ _____    ______ ____
ROOT
ATOM      1  C   UNL     1       2.444   6.159  18.616  0.00  0.00    +0.000 C 
ENDROOT
BRANCH   1   2
ATOM      2  C   UNL     1       2.042   4.806  19.186  0.00  0.00    +0.000 A 
ATOM      3  C   UNL     1       1.513   3.840  18.314  0.00  0.00    +0.000 A 
ATOM      4  C   UNL     1       0.897   2.692  18.809  0.00  0.00    +0.000 A 
ATOM      5  C   UNL     1       0.827   2.479  20.183  0.00  0.00    +0.000 A 
ATOM      6  C   UNL     1       1.440   3.375  21.057  0.00  0.00    +0.000 A 
ATOM      7  C   UNL     1       2.058   4.528  20.562  0.00  0.00    +0.000 A 
ENDBRANCH   1   2
BRANCH   1   8
ATOM      8  C   UNL     1       3.736   6.180  17.754  0.00  0.00    +0.000 C 
ATOM      9  C   UNL     1       3.819   7.380  16.806  0.00  0.00    +0.000 C 
BRANCH   8  12
ATOM     10  C   UNL     1       5.942   5.183  18.417  0.00  0.00    +0.000 C 
ATOM     11  O   UNL     1       5.891   4.288  17.580  0.00  0.00    +0.000 OA
ATOM     12  N   UNL     1       4.945   6.124  18.600  0.00  0.00    +0.000 N 
ATOM     13  H   UNL     1       5.213   6.991  19.050  0.00  0.00    +0.000 HD
BRANCH  10  14
ATOM     14  C   UNL     1       7.110   5.330  19.358  0.00  0.00    +0.000 C 
BRANCH  14  15
ATOM     15  C   UNL     1       8.032   6.425  18.853  0.00  0.00    +0.000 C 
BRANCH  15  17
ATOM     16  C   UNL     1       7.819   8.434  17.665  0.00  0.00    +0.000 C 
ATOM     17  O   UNL     1       7.446   7.062  17.721  0.00  0.00    +0.000 OA
ENDBRANCH  15  17
ENDBRANCH  14  15
ENDBRANCH  10  14
ENDBRANCH   8  12
ENDBRANCH   1   8
BRANCH   1  18
ATOM     18  O   UNL     1       2.660   7.062  19.730  0.00  0.00    +0.000 OA
BRANCH  18  19
ATOM     19  C   UNL     1       1.824   8.142  19.854  0.00  0.00    +0.000 A 
ATOM     20  C   UNL     1       1.103   8.181  21.048  0.00  0.00    +0.000 A 
ATOM     21  C   UNL     1       0.179   9.200  21.311  0.00  0.00    +0.000 A 
ATOM     22  C   UNL     1      -0.028  10.165  20.319  0.00  0.00    +0.000 A 
ATOM     23  C   UNL     1       0.637  10.109  19.095  0.00  0.00    +0.000 A 
ATOM     24  C   UNL     1       0.080  11.159  18.336  0.00  0.00    +0.000 A 
ATOM     25  N   UNL     1      -0.908  11.791  18.972  0.00  0.00    +0.000 NA
ATOM     26  N   UNL     1      -0.899  11.252  20.216  0.00  0.00    +0.000 N 
ATOM     27  C   UNL     1       1.595   9.101  18.862  0.00  0.00    +0.000 A 
BRANCH  26  28
ATOM     28  C   UNL     1      -1.756  11.776  21.224  0.00  0.00    +0.000 A 
ATOM     29  C   UNL     1      -1.458  11.536  22.575  0.00  0.00    +0.000 A 
ATOM     30  C   UNL     1      -2.270  12.084  23.571  0.00  0.00    +0.000 A 
ATOM     31  C   UNL     1      -3.393  12.818  23.219  0.00  0.00    +0.000 A 
ATOM     32  F   UNL     1      -4.178  13.331  24.175  0.00  0.00    +0.000 F 
ATOM     33  C   UNL     1      -3.721  13.024  21.883  0.00  0.00    +0.000 A 
ATOM     34  C   UNL     1      -2.897  12.514  20.879  0.00  0.00    +0.000 A 
ENDBRANCH  26  28
ENDBRANCH  18  19
ENDBRANCH   1  18
TORSDOF 9
ENDMDL
MODEL 8
REMARK VINA RESULT:      -8.2      0.329      1.218
REMARK  Name = 
REMARK  11 active torsions:
REMARK  status: ('A' for Active; 'I' for Inactive)
REMARK    1  A    between atoms: C_1  and  O_2
REMARK    2  A    between atoms: O_2  and  C_3
REMARK    3  A    between atoms: C_3  and  C_4
REMARK    4  A    between atoms: C_4  and  C_5
REMARK    5  A    between atoms: N_7  and  C_8
REMARK    6  A    between atoms: C_8  and  C_9
REMARK    7  A    between atoms: C_8  and  C_10
REMARK    8  A    between atoms: C_10  and  O_11
REMARK    9  A    between atoms: C_10  and  C_28
REMARK   10  A    between atoms: O_11  and  C_12
REMARK   11  A    between atoms: N_19  and  C_20
REMARK                            x       y       z     vdW  Elec       q    Type
REMARK                         _______ _______ _______ _____ _____    ______ ____
ROOT
ATOM      1  C   UNL     1       2.806   6.125  18.852  0.00  0.00    +0.000 C 
ENDROOT
BRANCH   1   2
ATOM      2  C   UNL     1       2.199   4.769  19.183  0.00  0.00    +0.000 A 
ATOM      3  C   UNL     1       1.843   3.916  18.125  0.00  0.00    +0.000 A 
ATOM      4  C   UNL     1       1.059   2.786  18.351  0.00  0.00    +0.000 A 
ATOM      5  C   UNL     1       0.644   2.476  19.644  0.00  0.00    +0.000 A 
ATOM      6  C   UNL     1       1.077   3.253  20.717  0.00  0.00    +0.000 A 
ATOM      7  C   UNL     1       1.863   4.388  20.491  0.00  0.00    +0.000 A 
ENDBRANCH   1   2
BRANCH   1   8
ATOM      8  C   UNL     1       4.289   6.115  18.391  0.00  0.00    +0.000 C 
ATOM      9  C   UNL     1       5.206   5.289  19.296  0.00  0.00    +0.000 C 
BRANCH   8  12
ATOM     10  C   UNL     1       5.430   6.064  16.156  0.00  0.00    +0.000 C 
ATOM     11  O   UNL     1       6.285   6.884  16.473  0.00  0.00    +0.000 OA
ATOM     12  N   UNL     1       4.411   5.650  16.994  0.00  0.00    +0.000 N 
ATOM     13  H   UNL     1       3.981   4.757  16.784  0.00  0.00    +0.000 HD
BRANCH  10  14
ATOM     14  C   UNL     1       5.397   5.435  14.786  0.00  0.00    +0.000 C 
BRANCH  14  15
ATOM     15  C   UNL     1       6.538   4.443  14.657  0.00  0.00    +0.000 C 
BRANCH  15  17
ATOM     16  C   UNL     1       6.084   3.423  12.596  0.00  0.00    +0.000 C 
ATOM     17  O   UNL     1       6.928   4.334  13.290  0.00  0.00    +0.000 OA
ENDBRANCH  15  17
ENDBRANCH  14  15
ENDBRANCH  10  14
ENDBRANCH   8  12
ENDBRANCH   1   8
BRANCH   1  18
ATOM     18  O   UNL     1       2.736   6.944  20.047  0.00  0.00    +0.000 OA
BRANCH  18  19
ATOM     19  C   UNL     1       1.887   8.021  20.040  0.00  0.00    +0.000 A 
ATOM     20  C   UNL     1       1.285   8.290  21.270  0.00  0.00    +0.000 A 
ATOM     21  C   UNL     1       0.363   9.334  21.420  0.00  0.00    +0.000 A 
ATOM     22  C   UNL     1       0.033  10.081  20.283  0.00  0.00    +0.000 A 
ATOM     23  C   UNL     1       0.577   9.789  19.033  0.00  0.00    +0.000 A 
ATOM     24  C   UNL     1      -0.081  10.663  18.144  0.00  0.00    +0.000 A 
ATOM     25  N   UNL     1      -1.019  11.400  18.739  0.00  0.00    +0.000 NA
ATOM     26  N   UNL     1      -0.873  11.119  20.057  0.00  0.00    +0.000 N 
ATOM     27  C   UNL     1       1.535   8.762  18.907  0.00  0.00    +0.000 A 
BRANCH  26  28
ATOM     28  C   UNL     1      -1.642  11.827  21.024  0.00  0.00    +0.000 A 
ATOM     29  C   UNL     1      -1.575  11.442  22.373  0.00  0.00    +0.000 A 
ATOM     30  C   UNL     1      -2.292  12.158  23.334  0.00  0.00    +0.000 A 
ATOM     31  C   UNL     1      -3.105  13.212  22.944  0.00  0.00    +0.000 A 
ATOM     32  F   UNL     1      -3.803  13.889  23.865  0.00  0.00    +0.000 F 
ATOM     33  C   UNL     1      -3.213  13.572  21.604  0.00  0.00    +0.000 A 
ATOM     34  C   UNL     1      -2.472  12.888  20.640  0.00  0.00    +0.000 A 
ENDBRANCH  26  28
ENDBRANCH  18  19
ENDBRANCH   1  18
TORSDOF 9
ENDMDL
MODEL 9
REMARK VINA RESULT:      -8.1      1.806      2.502
REMARK  Name = 
REMARK  11 active torsions:
REMARK  status: ('A' for Active; 'I' for Inactive)
REMARK    1  A    between atoms: C_1  and  O_2
REMARK    2  A    between atoms: O_2  and  C_3
REMARK    3  A    between atoms: C_3  and  C_4
REMARK    4  A    between atoms: C_4  and  C_5
REMARK    5  A    between atoms: N_7  and  C_8
REMARK    6  A    between atoms: C_8  and  C_9
REMARK    7  A    between atoms: C_8  and  C_10
REMARK    8  A    between atoms: C_10  and  O_11
REMARK    9  A    between atoms: C_10  and  C_28
REMARK   10  A    between atoms: O_11  and  C_12
REMARK   11  A    between atoms: N_19  and  C_20
REMARK                            x       y       z     vdW  Elec       q    Type
REMARK                         _______ _______ _______ _____ _____    ______ ____
ROOT
ATOM      1  C   UNL     1       2.433   6.117  18.480  0.00  0.00    +0.000 C 
ENDROOT
BRANCH   1   2
ATOM      2  C   UNL     1       2.014   4.738  18.970  0.00  0.00    +0.000 A 
ATOM      3  C   UNL     1       2.087   3.656  18.076  0.00  0.00    +0.000 A 
ATOM      4  C   UNL     1       1.484   2.436  18.380  0.00  0.00    +0.000 A 
ATOM      5  C   UNL     1       0.824   2.272  19.594  0.00  0.00    +0.000 A 
ATOM      6  C   UNL     1       0.834   3.300  20.535  0.00  0.00    +0.000 A 
ATOM      7  C   UNL     1       1.438   4.525  20.232  0.00  0.00    +0.000 A 
ENDBRANCH   1   2
BRANCH   1   8
ATOM      8  C   UNL     1       3.693   6.164  17.572  0.00  0.00    +0.000 C 
ATOM      9  C   UNL     1       3.817   7.459  16.765  0.00  0.00    +0.000 C 
BRANCH   8  12
ATOM     10  C   UNL     1       5.868   4.990  18.010  0.00  0.00    +0.000 C 
ATOM     11  O   UNL     1       5.745   4.219  17.065  0.00  0.00    +0.000 OA
ATOM     12  N   UNL     1       4.925   5.942  18.356  0.00  0.00    +0.000 N 
ATOM     13  H   UNL     1       5.250   6.728  18.905  0.00  0.00    +0.000 HD
BRANCH  10  14
ATOM     14  C   UNL     1       7.072   4.957  18.916  0.00  0.00    +0.000 C 
BRANCH  14  15
ATOM     15  C   UNL     1       7.780   6.299  18.866  0.00  0.00    +0.000 C 
BRANCH  15  17
ATOM     16  C   UNL     1       7.762   8.290  17.629  0.00  0.00    +0.000 C 
ATOM     17  O   UNL     1       7.626   6.875  17.571  0.00  0.00    +0.000 OA
ENDBRANCH  15  17
ENDBRANCH  14  15
ENDBRANCH  10  14
ENDBRANCH   8  12
ENDBRANCH   1   8
BRANCH   1  18
ATOM     18  O   UNL     1       2.715   6.933  19.645  0.00  0.00    +0.000 OA
BRANCH  18  19
ATOM     19  C   UNL     1       1.994   8.087  19.810  0.00  0.00    +0.000 A 
ATOM     20  C   UNL     1       1.633   8.358  21.130  0.00  0.00    +0.000 A 
ATOM     21  C   UNL     1       0.862   9.481  21.462  0.00  0.00    +0.000 A 
ATOM     22  C   UNL     1       0.431  10.308  20.418  0.00  0.00    +0.000 A 
ATOM     23  C   UNL     1       0.730  10.021  19.087  0.00  0.00    +0.000 A 
ATOM     24  C   UNL     1       0.031  10.995  18.345  0.00  0.00    +0.000 A 
ATOM     25  N   UNL     1      -0.714  11.793  19.110  0.00  0.00    +0.000 NA
ATOM     26  N   UNL     1      -0.386  11.440  20.376  0.00  0.00    +0.000 N 
ATOM     27  C   UNL     1       1.542   8.911  18.773  0.00  0.00    +0.000 A 
BRANCH  26  28
ATOM     28  C   UNL     1      -0.908  12.174  21.478  0.00  0.00    +0.000 A 
ATOM     29  C   UNL     1      -2.060  11.709  22.133  0.00  0.00    +0.000 A 
ATOM     30  C   UNL     1      -2.553  12.400  23.242  0.00  0.00    +0.000 A 
ATOM     31  C   UNL     1      -1.933  13.569  23.658  0.00  0.00    +0.000 A 
ATOM     32  F   UNL     1      -2.415  14.239  24.712  0.00  0.00    +0.000 F 
ATOM     33  C   UNL     1      -0.818  14.063  22.988  0.00  0.00    +0.000 A 
ATOM     34  C   UNL     1      -0.293  13.360  21.902  0.00  0.00    +0.000 A 
ENDBRANCH  26  28
ENDBRANCH  18  19
ENDBRANCH   1  18
TORSDOF 9
ENDMDL
