MODEL 1
REMARK VINA RESULT:      -8.8      0.000      0.000
REMARK  Name = 
REMARK  2 active torsions:
REMARK  status: ('A' for Active; 'I' for Inactive)
REMARK    1  A    between atoms: C_2  and  C_17
REMARK    2  A    between atoms: N_3  and  N_4
REMARK                            x       y       z     vdW  Elec       q    Type
REMARK                         _______ _______ _______ _____ _____    ______ ____
ROOT
ATOM      1  N   UNL     1       1.650   7.135  20.986  0.00  0.00    +0.000 N 
ATOM      2  C   UNL     1       2.266   6.381  20.019  0.00  0.00    +0.000 C 
ATOM      3  N   UNL     1       3.017   6.761  19.005  0.00  0.00    +0.000 NA
ATOM      4  C   UNL     1       3.337   5.564  18.376  0.00  0.00    +0.000 A 
ATOM      5  C   UNL     1       4.093   5.348  17.224  0.00  0.00    +0.000 A 
ATOM      6  C   UNL     1       4.226   4.011  16.786  0.00  0.00    +0.000 A 
ATOM      7  C   UNL     1       3.628   2.931  17.470  0.00  0.00    +0.000 A 
ATOM      8  C   UNL     1       2.870   3.172  18.628  0.00  0.00    +0.000 A 
ATOM      9  C   UNL     1       2.177   2.250  19.434  0.00  0.00    +0.000 A 
ATOM     10  C   UNL     1       1.441   2.704  20.551  0.00  0.00    +0.000 A 
ATOM     11  C   UNL     1       1.372   4.069  20.903  0.00  0.00    +0.000 A 
ATOM     12  C   UNL     1       2.071   4.953  20.088  0.00  0.00    +0.000 A 
ATOM     13  C   UNL     1       2.778   4.474  19.013  0.00  0.00    +0.000 A 
ATOM     14  H   UNL     1       0.926   6.679  21.538  0.00  0.00    +0.000 HD
ENDROOT
BRANCH   1  17
ATOM     15  O   UNL     1      -0.737   8.162  21.679  0.00  0.00    +0.000 OA
ATOM     16  C   UNL     1       0.020   8.872  21.021  0.00  0.00    +0.000 C 
ATOM     17  N   UNL     1       1.253   8.422  20.587  0.00  0.00    +0.000 N 
ATOM     18  H   UNL     1       1.956   8.992  20.117  0.00  0.00    +0.000 HD
BRANCH  16  19
ATOM     19  C   UNL     1      -0.403  10.242  20.603  0.00  0.00    +0.000 A 
ATOM     20  C   UNL     1      -0.331  10.532  19.228  0.00  0.00    +0.000 A 
ATOM     21  C   UNL     1      -0.696  11.790  18.733  0.00  0.00    +0.000 A 
ATOM     22  C   UNL     1      -1.140  12.774  19.610  0.00  0.00    +0.000 A 
ATOM     23  C   UNL     1      -1.226  12.497  20.974  0.00  0.00    +0.000 A 
ATOM     24  C   UNL     1      -0.867  11.237  21.475  0.00  0.00    +0.000 A 
ATOM     25 CL   UNL     1      -1.085  11.005  23.173  0.00  0.00    +0.000 Cl
ENDBRANCH  16  19
ENDBRANCH   1  17
TORSDOF 2
ENDMDL
MODEL 2
REMARK VINA RESULT:      -8.7      1.177      1.565
REMARK  Name = 
REMARK  2 active torsions:
REMARK  status: ('A' for Active; 'I' for Inactive)
REMARK    1  A    between atoms: C_2  and  C_17
REMARK    2  A    between atoms: N_3  and  N_4
REMARK                            x       y       z     vdW  Elec       q    Type
REMARK                         _______ _______ _______ _____ _____    ______ ____
ROOT
ATOM      1  N   UNL     1       1.501   7.033  21.085  0.00  0.00    +0.000 N 
ATOM      2  C   UNL     1       2.172   6.409  20.063  0.00  0.00    +0.000 C 
ATOM      3  N   UNL     1       3.040   6.899  19.202  0.00  0.00    +0.000 NA
ATOM      4  C   UNL     1       3.358   5.804  18.408  0.00  0.00    +0.000 A 
ATOM      5  C   UNL     1       4.214   5.731  17.309  0.00  0.00    +0.000 A 
ATOM      6  C   UNL     1       4.320   4.479  16.662  0.00  0.00    +0.000 A 
ATOM      7  C   UNL     1       3.600   3.344  17.092  0.00  0.00    +0.000 A 
ATOM      8  C   UNL     1       2.742   3.442  18.201  0.00  0.00    +0.000 A 
ATOM      9  C   UNL     1       1.924   2.449  18.770  0.00  0.00    +0.000 A 
ATOM     10  C   UNL     1       1.103   2.761  19.876  0.00  0.00    +0.000 A 
ATOM     11  C   UNL     1       1.071   4.050  20.451  0.00  0.00    +0.000 A 
ATOM     12  C   UNL     1       1.895   5.007  19.868  0.00  0.00    +0.000 A 
ATOM     13  C   UNL     1       2.681   4.665  18.794  0.00  0.00    +0.000 A 
ATOM     14  H   UNL     1       0.702   6.543  21.483  0.00  0.00    +0.000 HD
ENDROOT
BRANCH   1  17
ATOM     15  O   UNL     1      -0.832   8.125  21.860  0.00  0.00    +0.000 OA
ATOM     16  C   UNL     1       0.002   8.865  21.342  0.00  0.00    +0.000 C 
ATOM     17  N   UNL     1       1.216   8.393  20.880  0.00  0.00    +0.000 N 
ATOM     18  H   UNL     1       1.977   8.971  20.525  0.00  0.00    +0.000 HD
BRANCH  16  19
ATOM     19  C   UNL     1      -0.303  10.312  21.129  0.00  0.00    +0.000 A 
ATOM     20  C   UNL     1      -0.425  11.106  22.284  0.00  0.00    +0.000 A 
ATOM     21  C   UNL     1      -0.719  12.473  22.195  0.00  0.00    +0.000 A 
ATOM     22  C   UNL     1      -0.893  13.062  20.947  0.00  0.00    +0.000 A 
ATOM     23  C   UNL     1      -0.765  12.288  19.794  0.00  0.00    +0.000 A 
ATOM     24  C   UNL     1      -0.465  10.920  19.876  0.00  0.00    +0.000 A 
ATOM     25 CL   UNL     1      -0.267  10.094  18.372  0.00  0.00    +0.000 Cl
ENDBRANCH  16  19
ENDBRANCH   1  17
TORSDOF 2
ENDMDL
MODEL 3
REMARK VINA RESULT:      -8.2      1.840      2.261
REMARK  Name = 
REMARK  2 active torsions:
REMARK  status: ('A' for Active; 'I' for Inactive)
REMARK    1  A    between atoms: C_2  and  C_17
REMARK    2  A    between atoms: N_3  and  N_4
REMARK                            x       y       z     vdW  Elec       q    Type
REMARK                         _______ _______ _______ _____ _____    ______ ____
ROOT
ATOM      1  N   UNL     1       1.949   7.604  19.316  0.00  0.00    +0.000 N 
ATOM      2  C   UNL     1       2.825   6.964  18.476  0.00  0.00    +0.000 C 
ATOM      3  N   UNL     1       3.745   7.465  17.677  0.00  0.00    +0.000 NA
ATOM      4  C   UNL     1       4.297   6.340  17.077  0.00  0.00    +0.000 A 
ATOM      5  C   UNL     1       5.303   6.258  16.114  0.00  0.00    +0.000 A 
ATOM      6  C   UNL     1       5.643   4.967  15.651  0.00  0.00    +0.000 A 
ATOM      7  C   UNL     1       5.005   3.802  16.128  0.00  0.00    +0.000 A 
ATOM      8  C   UNL     1       3.992   3.909  17.097  0.00  0.00    +0.000 A 
ATOM      9  C   UNL     1       3.221   2.887  17.679  0.00  0.00    +0.000 A 
ATOM     10  C   UNL     1       2.222   3.209  18.624  0.00  0.00    +0.000 A 
ATOM     11  C   UNL     1       1.960   4.538  19.019  0.00  0.00    +0.000 A 
ATOM     12  C   UNL     1       2.743   5.524  18.428  0.00  0.00    +0.000 A 
ATOM     13  C   UNL     1       3.707   5.172  17.516  0.00  0.00    +0.000 A 
ATOM     14  H   UNL     1       1.163   7.060  19.669  0.00  0.00    +0.000 HD
ENDROOT
BRANCH   1  17
ATOM     15  O   UNL     1       0.303   9.118  20.810  0.00  0.00    +0.000 OA
ATOM     16  C   UNL     1       0.719   9.596  19.756  0.00  0.00    +0.000 C 
ATOM     17  N   UNL     1       1.541   8.883  18.903  0.00  0.00    +0.000 N 
ATOM     18  H   UNL     1       1.987   9.257  18.065  0.00  0.00    +0.000 HD
BRANCH  16  19
ATOM     19  C   UNL     1       0.287  10.958  19.323  0.00  0.00    +0.000 A 
ATOM     20  C   UNL     1       1.095  12.035  19.732  0.00  0.00    +0.000 A 
ATOM     21  C   UNL     1       0.773  13.353  19.387  0.00  0.00    +0.000 A 
ATOM     22  C   UNL     1      -0.362  13.610  18.625  0.00  0.00    +0.000 A 
ATOM     23  C   UNL     1      -1.166  12.551  18.205  0.00  0.00    +0.000 A 
ATOM     24  C   UNL     1      -0.846  11.228  18.543  0.00  0.00    +0.000 A 
ATOM     25 CL   UNL     1      -1.887  10.007  17.901  0.00  0.00    +0.000 Cl
ENDBRANCH  16  19
ENDBRANCH   1  17
TORSDOF 2
ENDMDL
MODEL 4
REMARK VINA RESULT:      -8.2      1.863      3.253
REMARK  Name = 
REMARK  2 active torsions:
REMARK  status: ('A' for Active; 'I' for Inactive)
REMARK    1  A    between atoms: C_2  and  C_17
REMARK    2  A    between atoms: N_3  and  N_4
REMARK                            x       y       z     vdW  Elec       q    Type
REMARK                         _______ _______ _______ _____ _____    ______ ____
ROOT
ATOM      1  N   UNL     1       2.537   7.962  18.347  0.00  0.00    +0.000 N 
ATOM      2  C   UNL     1       2.571   6.593  18.258  0.00  0.00    +0.000 C 
ATOM      3  N   UNL     1       1.751   5.695  18.767  0.00  0.00    +0.000 NA
ATOM      4  C   UNL     1       2.303   4.488  18.356  0.00  0.00    +0.000 A 
ATOM      5  C   UNL     1       1.874   3.187  18.621  0.00  0.00    +0.000 A 
ATOM      6  C   UNL     1       2.660   2.134  18.100  0.00  0.00    +0.000 A 
ATOM      7  C   UNL     1       3.829   2.369  17.344  0.00  0.00    +0.000 A 
ATOM      8  C   UNL     1       4.242   3.689  17.090  0.00  0.00    +0.000 A 
ATOM      9  C   UNL     1       5.377   4.134  16.389  0.00  0.00    +0.000 A 
ATOM     10  C   UNL     1       5.633   5.518  16.270  0.00  0.00    +0.000 A 
ATOM     11  C   UNL     1       4.781   6.493  16.832  0.00  0.00    +0.000 A 
ATOM     12  C   UNL     1       3.665   6.018  17.515  0.00  0.00    +0.000 A 
ATOM     13  C   UNL     1       3.449   4.665  17.607  0.00  0.00    +0.000 A 
ATOM     14  H   UNL     1       3.384   8.465  18.089  0.00  0.00    +0.000 HD
ENDROOT
BRANCH   1  17
ATOM     15  O   UNL     1       0.499   9.716  18.299  0.00  0.00    +0.000 OA
ATOM     16  C   UNL     1       0.911   9.349  19.397  0.00  0.00    +0.000 C 
ATOM     17  N   UNL     1       1.976   8.478  19.527  0.00  0.00    +0.000 N 
ATOM     18  H   UNL     1       2.302   8.071  20.404  0.00  0.00    +0.000 HD
BRANCH  16  19
ATOM     19  C   UNL     1       0.308   9.896  20.650  0.00  0.00    +0.000 A 
ATOM     20  C   UNL     1      -0.023   8.963  21.649  0.00  0.00    +0.000 A 
ATOM     21  C   UNL     1      -0.602   9.371  22.857  0.00  0.00    +0.000 A 
ATOM     22  C   UNL     1      -0.854  10.720  23.081  0.00  0.00    +0.000 A 
ATOM     23  C   UNL     1      -0.522  11.657  22.103  0.00  0.00    +0.000 A 
ATOM     24  C   UNL     1       0.063  11.255  20.893  0.00  0.00    +0.000 A 
ATOM     25 CL   UNL     1       0.488  12.522  19.797  0.00  0.00    +0.000 Cl
ENDBRANCH  16  19
ENDBRANCH   1  17
TORSDOF 2
ENDMDL
MODEL 5
REMARK VINA RESULT:      -8.2      1.243      1.293
REMARK  Name = 
REMARK  2 active torsions:
REMARK  status: ('A' for Active; 'I' for Inactive)
REMARK    1  A    between atoms: C_2  and  C_17
REMARK    2  A    between atoms: N_3  and  N_4
REMARK                            x       y       z     vdW  Elec       q    Type
REMARK                         _______ _______ _______ _____ _____    ______ ____
ROOT
ATOM      1  N   UNL     1       1.943   7.589  20.378  0.00  0.00    +0.000 N 
ATOM      2  C   UNL     1       2.526   6.637  19.580  0.00  0.00    +0.000 C 
ATOM      3  N   UNL     1       3.201   6.777  18.458  0.00  0.00    +0.000 NA
ATOM      4  C   UNL     1       3.523   5.471  18.111  0.00  0.00    +0.000 A 
ATOM      5  C   UNL     1       4.215   4.999  16.996  0.00  0.00    +0.000 A 
ATOM      6  C   UNL     1       4.367   3.599  16.880  0.00  0.00    +0.000 A 
ATOM      7  C   UNL     1       3.847   2.702  17.838  0.00  0.00    +0.000 A 
ATOM      8  C   UNL     1       3.151   3.200  18.954  0.00  0.00    +0.000 A 
ATOM      9  C   UNL     1       2.539   2.485  19.999  0.00  0.00    +0.000 A 
ATOM     10  C   UNL     1       1.856   3.179  21.022  0.00  0.00    +0.000 A 
ATOM     11  C   UNL     1       1.763   4.587  21.045  0.00  0.00    +0.000 A 
ATOM     12  C   UNL     1       2.382   5.264  19.999  0.00  0.00    +0.000 A 
ATOM     13  C   UNL     1       3.039   4.555  19.024  0.00  0.00    +0.000 A 
ATOM     14  H   UNL     1       1.269   7.265  21.070  0.00  0.00    +0.000 HD
ENDROOT
BRANCH   1  17
ATOM     15  O   UNL     1      -0.196   8.968  21.248  0.00  0.00    +0.000 OA
ATOM     16  C   UNL     1       0.393   9.393  20.256  0.00  0.00    +0.000 C 
ATOM     17  N   UNL     1       1.481   8.736  19.712  0.00  0.00    +0.000 N 
ATOM     18  H   UNL     1       2.061   9.087  18.950  0.00  0.00    +0.000 HD
BRANCH  16  19
ATOM     19  C   UNL     1      -0.099  10.616  19.553  0.00  0.00    +0.000 A 
ATOM     20  C   UNL     1      -1.164  10.439  18.652  0.00  0.00    +0.000 A 
ATOM     21  C   UNL     1      -1.693  11.520  17.935  0.00  0.00    +0.000 A 
ATOM     22  C   UNL     1      -1.161  12.793  18.114  0.00  0.00    +0.000 A 
ATOM     23  C   UNL     1      -0.111  12.984  19.011  0.00  0.00    +0.000 A 
ATOM     24  C   UNL     1       0.419  11.906  19.736  0.00  0.00    +0.000 A 
ATOM     25 CL   UNL     1       1.670  12.292  20.863  0.00  0.00    +0.000 Cl
ENDBRANCH  16  19
ENDBRANCH   1  17
TORSDOF 2
ENDMDL
MODEL 6
REMARK VINA RESULT:      -8.2      2.829      8.081
REMARK  Name = 
REMARK  2 active torsions:
REMARK  status: ('A' for Active; 'I' for Inactive)
REMARK    1  A    between atoms: C_2  and  C_17
REMARK    2  A    between atoms: N_3  and  N_4
REMARK                            x       y       z     vdW  Elec       q    Type
REMARK                         _______ _______ _______ _____ _____    ______ ____
ROOT
ATOM      1  N   UNL     1       2.027   8.315  18.996  0.00  0.00    +0.000 N 
ATOM      2  C   UNL     1       1.293   8.901  19.996  0.00  0.00    +0.000 C 
ATOM      3  N   UNL     1       1.136   8.533  21.252  0.00  0.00    +0.000 NA
ATOM      4  C   UNL     1       0.279   9.498  21.764  0.00  0.00    +0.000 A 
ATOM      5  C   UNL     1      -0.259   9.609  23.047  0.00  0.00    +0.000 A 
ATOM      6  C   UNL     1      -1.143  10.686  23.280  0.00  0.00    +0.000 A 
ATOM      7  C   UNL     1      -1.480  11.617  22.274  0.00  0.00    +0.000 A 
ATOM      8  C   UNL     1      -0.926  11.486  20.989  0.00  0.00    +0.000 A 
ATOM      9  C   UNL     1      -1.149  12.282  19.850  0.00  0.00    +0.000 A 
ATOM     10  C   UNL     1      -0.512  11.960  18.631  0.00  0.00    +0.000 A 
ATOM     11  C   UNL     1       0.357  10.856  18.503  0.00  0.00    +0.000 A 
ATOM     12  C   UNL     1       0.558  10.092  19.649  0.00  0.00    +0.000 A 
ATOM     13  C   UNL     1      -0.076  10.438  20.817  0.00  0.00    +0.000 A 
ATOM     14  H   UNL     1       1.832   8.613  18.042  0.00  0.00    +0.000 HD
ENDROOT
BRANCH   1  17
ATOM     15  O   UNL     1       3.675   6.945  17.370  0.00  0.00    +0.000 OA
ATOM     16  C   UNL     1       3.053   6.310  18.220  0.00  0.00    +0.000 C 
ATOM     17  N   UNL     1       2.156   6.919  19.078  0.00  0.00    +0.000 N 
ATOM     18  H   UNL     1       1.682   6.461  19.856  0.00  0.00    +0.000 HD
BRANCH  16  19
ATOM     19  C   UNL     1       3.197   4.826  18.308  0.00  0.00    +0.000 A 
ATOM     20  C   UNL     1       2.115   4.059  17.837  0.00  0.00    +0.000 A 
ATOM     21  C   UNL     1       2.145   2.660  17.883  0.00  0.00    +0.000 A 
ATOM     22  C   UNL     1       3.261   2.010  18.400  0.00  0.00    +0.000 A 
ATOM     23  C   UNL     1       4.344   2.758  18.861  0.00  0.00    +0.000 A 
ATOM     24  C   UNL     1       4.322   4.159  18.813  0.00  0.00    +0.000 A 
ATOM     25 CL   UNL     1       5.755   4.961  19.352  0.00  0.00    +0.000 Cl
ENDBRANCH  16  19
ENDBRANCH   1  17
TORSDOF 2
ENDMDL
MODEL 7
REMARK VINA RESULT:      -8.1      2.719      8.126
REMARK  Name = 
REMARK  2 active torsions:
REMARK  status: ('A' for Active; 'I' for Inactive)
REMARK    1  A    between atoms: C_2  and  C_17
REMARK    2  A    between atoms: N_3  and  N_4
REMARK                            x       y       z     vdW  Elec       q    Type
REMARK                         _______ _______ _______ _____ _____    ______ ____
ROOT
ATOM      1  N   UNL     1       1.776   8.368  19.810  0.00  0.00    +0.000 N 
ATOM      2  C   UNL     1       0.943   9.174  20.545  0.00  0.00    +0.000 C 
ATOM      3  N   UNL     1       0.752   9.223  21.848  0.00  0.00    +0.000 NA
ATOM      4  C   UNL     1      -0.210  10.214  21.995  0.00  0.00    +0.000 A 
ATOM      5  C   UNL     1      -0.823  10.684  23.157  0.00  0.00    +0.000 A 
ATOM      6  C   UNL     1      -1.806  11.687  23.003  0.00  0.00    +0.000 A 
ATOM      7  C   UNL     1      -2.166  12.202  21.739  0.00  0.00    +0.000 A 
ATOM      8  C   UNL     1      -1.537  11.712  20.582  0.00  0.00    +0.000 A 
ATOM      9  C   UNL     1      -1.765  12.068  19.240  0.00  0.00    +0.000 A 
ATOM     10  C   UNL     1      -1.041  11.430  18.209  0.00  0.00    +0.000 A 
ATOM     11  C   UNL     1      -0.075  10.435  18.471  0.00  0.00    +0.000 A 
ATOM     12  C   UNL     1       0.129  10.110  19.809  0.00  0.00    +0.000 A 
ATOM     13  C   UNL     1      -0.593  10.754  20.783  0.00  0.00    +0.000 A 
ATOM     14  H   UNL     1       1.607   8.319  18.807  0.00  0.00    +0.000 HD
ENDROOT
BRANCH   1  17
ATOM     15  O   UNL     1       2.248   6.231  18.247  0.00  0.00    +0.000 OA
ATOM     16  C   UNL     1       2.281   6.067  19.465  0.00  0.00    +0.000 C 
ATOM     17  N   UNL     1       2.018   7.095  20.351  0.00  0.00    +0.000 N 
ATOM     18  H   UNL     1       2.118   7.040  21.364  0.00  0.00    +0.000 HD
BRANCH  16  19
ATOM     19  C   UNL     1       2.544   4.712  20.037  0.00  0.00    +0.000 A 
ATOM     20  C   UNL     1       1.582   4.208  20.930  0.00  0.00    +0.000 A 
ATOM     21  C   UNL     1       1.738   2.951  21.529  0.00  0.00    +0.000 A 
ATOM     22  C   UNL     1       2.861   2.183  21.238  0.00  0.00    +0.000 A 
ATOM     23  C   UNL     1       3.817   2.666  20.346  0.00  0.00    +0.000 A 
ATOM     24  C   UNL     1       3.664   3.922  19.740  0.00  0.00    +0.000 A 
ATOM     25 CL   UNL     1       4.886   4.371  18.604  0.00  0.00    +0.000 Cl
ENDBRANCH  16  19
ENDBRANCH   1  17
TORSDOF 2
ENDMDL
MODEL 8
REMARK VINA RESULT:      -8.0      5.054      8.655
REMARK  Name = 
REMARK  2 active torsions:
REMARK  status: ('A' for Active; 'I' for Inactive)
REMARK    1  A    between atoms: C_2  and  C_17
REMARK    2  A    between atoms: N_3  and  N_4
REMARK                            x       y       z     vdW  Elec       q    Type
REMARK                         _______ _______ _______ _____ _____    ______ ____
ROOT
ATOM      1  N   UNL     1       4.818   5.725  16.740  0.00  0.00    +0.000 N 
ATOM      2  C   UNL     1       4.112   4.980  17.652  0.00  0.00    +0.000 C 
ATOM      3  N   UNL     1       4.026   3.673  17.785  0.00  0.00    +0.000 NA
ATOM      4  C   UNL     1       3.162   3.515  18.862  0.00  0.00    +0.000 A 
ATOM      5  C   UNL     1       2.681   2.342  19.443  0.00  0.00    +0.000 A 
ATOM      6  C   UNL     1       1.774   2.483  20.517  0.00  0.00    +0.000 A 
ATOM      7  C   UNL     1       1.361   3.746  20.993  0.00  0.00    +0.000 A 
ATOM      8  C   UNL     1       1.858   4.915  20.392  0.00  0.00    +0.000 A 
ATOM      9  C   UNL     1       1.557   6.256  20.694  0.00  0.00    +0.000 A 
ATOM     10  C   UNL     1       2.145   7.297  19.944  0.00  0.00    +0.000 A 
ATOM     11  C   UNL     1       3.044   7.046  18.884  0.00  0.00    +0.000 A 
ATOM     12  C   UNL     1       3.323   5.710  18.614  0.00  0.00    +0.000 A 
ATOM     13  C   UNL     1       2.733   4.726  19.368  0.00  0.00    +0.000 A 
ATOM     14  H   UNL     1       4.569   6.709  16.653  0.00  0.00    +0.000 HD
ENDROOT
BRANCH   1  17
ATOM     15  O   UNL     1       7.242   5.536  15.592  0.00  0.00    +0.000 OA
ATOM     16  C   UNL     1       6.286   5.052  14.990  0.00  0.00    +0.000 C 
ATOM     17  N   UNL     1       4.996   5.129  15.481  0.00  0.00    +0.000 N 
ATOM     18  H   UNL     1       4.182   4.670  15.073  0.00  0.00    +0.000 HD
BRANCH  16  19
ATOM     19  C   UNL     1       6.480   4.414  13.653  0.00  0.00    +0.000 A 
ATOM     20  C   UNL     1       5.549   3.425  13.286  0.00  0.00    +0.000 A 
ATOM     21  C   UNL     1       5.648   2.760  12.058  0.00  0.00    +0.000 A 
ATOM     22  C   UNL     1       6.680   3.077  11.181  0.00  0.00    +0.000 A 
ATOM     23  C   UNL     1       7.604   4.062  11.529  0.00  0.00    +0.000 A 
ATOM     24  C   UNL     1       7.507   4.736  12.755  0.00  0.00    +0.000 A 
ATOM     25 CL   UNL     1       8.675   5.979  13.032  0.00  0.00    +0.000 Cl
ENDBRANCH  16  19
ENDBRANCH   1  17
TORSDOF 2
ENDMDL
MODEL 9
REMARK VINA RESULT:      -8.0      3.059      7.769
REMARK  Name = 
REMARK  2 active torsions:
REMARK  status: ('A' for Active; 'I' for Inactive)
REMARK    1  A    between atoms: C_2  and  C_17
REMARK    2  A    between atoms: N_3  and  N_4
REMARK                            x       y       z     vdW  Elec       q    Type
REMARK                         _______ _______ _______ _____ _____    ______ ____
ROOT
ATOM      1  N   UNL     1       2.183   7.021  20.379  0.00  0.00    +0.000 N 
ATOM      2  C   UNL     1       1.550   8.200  20.075  0.00  0.00    +0.000 C 
ATOM      3  N   UNL     1       1.482   8.849  18.931  0.00  0.00    +0.000 NA
ATOM      4  C   UNL     1       0.725   9.972  19.243  0.00  0.00    +0.000 A 
ATOM      5  C   UNL     1       0.348  11.037  18.424  0.00  0.00    +0.000 A 
ATOM      6  C   UNL     1      -0.400  12.074  19.025  0.00  0.00    +0.000 A 
ATOM      7  C   UNL     1      -0.758  12.051  20.390  0.00  0.00    +0.000 A 
ATOM      8  C   UNL     1      -0.367  10.968  21.197  0.00  0.00    +0.000 A 
ATOM      9  C   UNL     1      -0.596  10.767  22.570  0.00  0.00    +0.000 A 
ATOM     10  C   UNL     1      -0.087   9.613  23.207  0.00  0.00    +0.000 A 
ATOM     11  C   UNL     1       0.652   8.633  22.511  0.00  0.00    +0.000 A 
ATOM     12  C   UNL     1       0.857   8.861  21.154  0.00  0.00    +0.000 A 
ATOM     13  C   UNL     1       0.345   9.993  20.570  0.00  0.00    +0.000 A 
ATOM     14  H   UNL     1       2.318   6.808  21.366  0.00  0.00    +0.000 HD
ENDROOT
BRANCH   1  17
ATOM     15  O   UNL     1       3.178   4.531  20.168  0.00  0.00    +0.000 OA
ATOM     16  C   UNL     1       3.755   5.430  19.561  0.00  0.00    +0.000 C 
ATOM     17  N   UNL     1       3.341   6.747  19.634  0.00  0.00    +0.000 N 
ATOM     18  H   UNL     1       3.724   7.516  19.084  0.00  0.00    +0.000 HD
BRANCH  16  19
ATOM     19  C   UNL     1       4.984   5.134  18.765  0.00  0.00    +0.000 A 
ATOM     20  C   UNL     1       6.205   5.581  19.301  0.00  0.00    +0.000 A 
ATOM     21  C   UNL     1       7.414   5.363  18.630  0.00  0.00    +0.000 A 
ATOM     22  C   UNL     1       7.416   4.692  17.412  0.00  0.00    +0.000 A 
ATOM     23  C   UNL     1       6.214   4.234  16.873  0.00  0.00    +0.000 A 
ATOM     24  C   UNL     1       5.000   4.445  17.544  0.00  0.00    +0.000 A 
ATOM     25 CL   UNL     1       3.594   3.768  16.801  0.00  0.00    +0.000 Cl
ENDBRANCH  16  19
ENDBRANCH   1  17
TORSDOF 2
ENDMDL
