MODEL 1
REMARK VINA RESULT:      -8.0      0.000      0.000
REMARK  Name = 
REMARK  14 active torsions:
REMARK  status: ('A' for Active; 'I' for Inactive)
REMARK    1  A    between atoms: C_1  and  C_2
REMARK    2  A    between atoms: C_2  and  C_4
REMARK    3  A    between atoms: C_4  and  C_5
REMARK    4  A    between atoms: C_4  and  C_13
REMARK    5  A    between atoms: C_5  and  C_6
REMARK    6  A    between atoms: C_9  and  O_10
REMARK    7  A    between atoms: N_15  and  C_16
REMARK    8  A    between atoms: C_16  and  C_17
REMARK    9  A    between atoms: C_17  and  C_18
REMARK   10  A    between atoms: C_18  and  C_19
REMARK   11  A    between atoms: C_19  and  C_20
REMARK   12  A    between atoms: C_20  and  C_21
REMARK   13  A    between atoms: C_21  and  N_22
REMARK   14  A    between atoms: N_22  and  C_23
REMARK                            x       y       z     vdW  Elec       q    Type
REMARK                         _______ _______ _______ _____ _____    ______ ____
ROOT
ATOM      1  C   UNL     1       0.953   9.725  18.127  0.00  0.00    +0.000 C 
ENDROOT
BRANCH   1   2
ATOM      2  C   UNL     1       1.757   8.537  17.608  0.00  0.00    +0.000 C 
BRANCH   2   3
ATOM      3  C   UNL     1       2.478   7.855  18.761  0.00  0.00    +0.000 C 
BRANCH   3   6
ATOM      4  C   UNL     1       2.177   5.590  19.682  0.00  0.00    +0.000 C 
ATOM      5  O   UNL     1       1.717   6.032  20.736  0.00  0.00    +0.000 OA
ATOM      6  N   UNL     1       2.473   6.418  18.630  0.00  0.00    +0.000 N 
ATOM      7  H   UNL     1       2.830   6.008  17.765  0.00  0.00    +0.000 HD
BRANCH   4   8
ATOM      8  C   UNL     1       2.420   4.093  19.478  0.00  0.00    +0.000 C 
BRANCH   8  10
ATOM      9  C   UNL     1       2.027   1.981  17.968  0.00  0.00    +0.000 C 
ATOM     10  C   UNL     1       1.853   3.464  18.202  0.00  0.00    +0.000 C 
ATOM     11  O   UNL     1       1.225   4.131  17.373  0.00  0.00    +0.000 OA
ENDBRANCH   8  10
BRANCH   8  12
ATOM     12  C   UNL     1       3.924   3.812  19.679  0.00  0.00    +0.000 C 
BRANCH  12  13
ATOM     13  C   UNL     1       4.893   4.396  18.665  0.00  0.00    +0.000 A 
ATOM     14  C   UNL     1       4.887   4.070  17.298  0.00  0.00    +0.000 A 
ATOM     15  C   UNL     1       5.768   4.677  16.407  0.00  0.00    +0.000 A 
ATOM     16  C   UNL     1       6.673   5.616  16.875  0.00  0.00    +0.000 A 
ATOM     17  C   UNL     1       6.717   5.945  18.223  0.00  0.00    +0.000 A 
ATOM     18  C   UNL     1       5.832   5.336  19.115  0.00  0.00    +0.000 A 
BRANCH  16  19
ATOM     19  O   UNL     1       7.534   6.246  16.026  0.00  0.00    +0.000 OA
ATOM     20  H   UNL     1       7.058   6.982  15.606  0.00  0.00    +0.000 HD
ENDBRANCH  16  19
ENDBRANCH  12  13
ENDBRANCH   8  12
ENDBRANCH   4   8
ENDBRANCH   3   6
ENDBRANCH   2   3
ENDBRANCH   1   2
BRANCH   1  21
ATOM     21  C   UNL     1       1.107   9.892  19.637  0.00  0.00    +0.000 C 
BRANCH  21  22
ATOM     22  C   UNL     1      -0.215   9.751  20.396  0.00  0.00    +0.000 C 
BRANCH  22  23
ATOM     23  C   UNL     1      -0.579  10.967  21.242  0.00  0.00    +0.000 C 
BRANCH  23  24
ATOM     24  N   UNL     1      -1.116  12.059  20.435  0.00  0.00    +0.000 N 
ATOM     25  H   UNL     1      -0.641  12.150  19.538  0.00  0.00    +0.000 HD
BRANCH  24  26
ATOM     26  C   UNL     1      -2.517  12.198  20.249  0.00  0.00    +0.000 A 
ATOM     27  C   UNL     1      -3.424  12.547  21.277  0.00  0.00    +0.000 A 
ATOM     28  C   UNL     1      -4.776  12.692  20.935  0.00  0.00    +0.000 A 
ATOM     29  N   UNL     1      -5.266  12.429  19.702  0.00  0.00    +0.000 NA
ATOM     30  C   UNL     1      -4.430  12.008  18.754  0.00  0.00    +0.000 A 
ATOM     31  C   UNL     1      -4.982  11.715  17.510  0.00  0.00    +0.000 A 
ATOM     32  C   UNL     1      -4.205  11.257  16.448  0.00  0.00    +0.000 A 
ATOM     33  C   UNL     1      -2.840  11.089  16.630  0.00  0.00    +0.000 A 
ATOM     34  C   UNL     1      -2.268  11.389  17.868  0.00  0.00    +0.000 A 
ATOM     35  C   UNL     1      -3.045  11.855  18.962  0.00  0.00    +0.000 A 
ATOM     36  C   UNL     1      -5.831  13.088  21.939  0.00  0.00    +0.000 C 
ATOM     37  C   UNL     1      -5.281  13.633  23.249  0.00  0.00    +0.000 C 
ATOM     38  C   UNL     1      -4.139  12.759  23.727  0.00  0.00    +0.000 C 
ATOM     39  C   UNL     1      -3.009  12.803  22.708  0.00  0.00    +0.000 C 
ENDBRANCH  24  26
ENDBRANCH  23  24
ENDBRANCH  22  23
ENDBRANCH  21  22
ENDBRANCH   1  21
TORSDOF 13
ENDMDL
MODEL 2
REMARK VINA RESULT:      -8.0      1.641      3.509
REMARK  Name = 
REMARK  14 active torsions:
REMARK  status: ('A' for Active; 'I' for Inactive)
REMARK    1  A    between atoms: C_1  and  C_2
REMARK    2  A    between atoms: C_2  and  C_4
REMARK    3  A    between atoms: C_4  and  C_5
REMARK    4  A    between atoms: C_4  and  C_13
REMARK    5  A    between atoms: C_5  and  C_6
REMARK    6  A    between atoms: C_9  and  O_10
REMARK    7  A    between atoms: N_15  and  C_16
REMARK    8  A    between atoms: C_16  and  C_17
REMARK    9  A    between atoms: C_17  and  C_18
REMARK   10  A    between atoms: C_18  and  C_19
REMARK   11  A    between atoms: C_19  and  C_20
REMARK   12  A    between atoms: C_20  and  C_21
REMARK   13  A    between atoms: C_21  and  N_22
REMARK   14  A    between atoms: N_22  and  C_23
REMARK                            x       y       z     vdW  Elec       q    Type
REMARK                         _______ _______ _______ _____ _____    ______ ____
ROOT
ATOM      1  C   UNL     1       0.544   8.999  21.196  0.00  0.00    +0.000 C 
ENDROOT
BRANCH   1   2
ATOM      2  C   UNL     1       1.640   8.230  20.466  0.00  0.00    +0.000 C 
BRANCH   2   3
ATOM      3  C   UNL     1       1.492   6.739  20.728  0.00  0.00    +0.000 C 
BRANCH   3   6
ATOM      4  C   UNL     1       2.829   4.729  20.238  0.00  0.00    +0.000 C 
ATOM      5  O   UNL     1       2.435   4.163  21.259  0.00  0.00    +0.000 OA
ATOM      6  N   UNL     1       2.330   5.948  19.859  0.00  0.00    +0.000 N 
ATOM      7  H   UNL     1       2.665   6.371  18.992  0.00  0.00    +0.000 HD
BRANCH   4   8
ATOM      8  C   UNL     1       3.876   4.092  19.322  0.00  0.00    +0.000 C 
BRANCH   8  10
ATOM      9  C   UNL     1       3.425   1.631  18.525  0.00  0.00    +0.000 C 
ATOM     10  C   UNL     1       4.111   2.587  19.474  0.00  0.00    +0.000 C 
ATOM     11  O   UNL     1       4.877   2.132  20.331  0.00  0.00    +0.000 OA
ENDBRANCH   8  10
BRANCH   8  12
ATOM     12  C   UNL     1       3.576   4.518  17.869  0.00  0.00    +0.000 C 
BRANCH  12  13
ATOM     13  C   UNL     1       4.754   4.681  16.923  0.00  0.00    +0.000 A 
ATOM     14  C   UNL     1       4.857   4.030  15.682  0.00  0.00    +0.000 A 
ATOM     15  C   UNL     1       5.937   4.258  14.834  0.00  0.00    +0.000 A 
ATOM     16  C   UNL     1       6.934   5.140  15.221  0.00  0.00    +0.000 A 
ATOM     17  C   UNL     1       6.871   5.784  16.449  0.00  0.00    +0.000 A 
ATOM     18  C   UNL     1       5.786   5.554  17.298  0.00  0.00    +0.000 A 
BRANCH  16  19
ATOM     19  O   UNL     1       7.994   5.404  14.405  0.00  0.00    +0.000 OA
ATOM     20  H   UNL     1       7.647   5.699  13.547  0.00  0.00    +0.000 HD
ENDBRANCH  16  19
ENDBRANCH  12  13
ENDBRANCH   8  12
ENDBRANCH   4   8
ENDBRANCH   3   6
ENDBRANCH   2   3
ENDBRANCH   1   2
BRANCH   1  21
ATOM     21  C   UNL     1      -0.465   9.603  20.221  0.00  0.00    +0.000 C 
BRANCH  21  22
ATOM     22  C   UNL     1      -0.839  11.048  20.562  0.00  0.00    +0.000 C 
BRANCH  22  23
ATOM     23  C   UNL     1      -1.100  11.927  19.344  0.00  0.00    +0.000 C 
BRANCH  23  24
ATOM     24  N   UNL     1      -2.029  13.015  19.639  0.00  0.00    +0.000 N 
ATOM     25  H   UNL     1      -2.194  13.615  18.832  0.00  0.00    +0.000 HD
BRANCH  24  26
ATOM     26  C   UNL     1      -3.258  12.756  20.301  0.00  0.00    +0.000 A 
ATOM     27  C   UNL     1      -4.411  12.242  19.664  0.00  0.00    +0.000 A 
ATOM     28  C   UNL     1      -5.541  11.994  20.457  0.00  0.00    +0.000 A 
ATOM     29  N   UNL     1      -5.612  12.303  21.771  0.00  0.00    +0.000 NA
ATOM     30  C   UNL     1      -4.561  12.877  22.355  0.00  0.00    +0.000 A 
ATOM     31  C   UNL     1      -4.690  13.212  23.700  0.00  0.00    +0.000 A 
ATOM     32  C   UNL     1      -3.659  13.825  24.410  0.00  0.00    +0.000 A 
ATOM     33  C   UNL     1      -2.466  14.109  23.761  0.00  0.00    +0.000 A 
ATOM     34  C   UNL     1      -2.315  13.770  22.416  0.00  0.00    +0.000 A 
ATOM     35  C   UNL     1      -3.356  13.146  21.676  0.00  0.00    +0.000 A 
ATOM     36  C   UNL     1      -6.818  11.420  19.895  0.00  0.00    +0.000 C 
ATOM     37  C   UNL     1      -6.683  10.829  18.498  0.00  0.00    +0.000 C 
ATOM     38  C   UNL     1      -5.882  11.769  17.621  0.00  0.00    +0.000 C 
ATOM     39  C   UNL     1      -4.477  11.915  18.190  0.00  0.00    +0.000 C 
ENDBRANCH  24  26
ENDBRANCH  23  24
ENDBRANCH  22  23
ENDBRANCH  21  22
ENDBRANCH   1  21
TORSDOF 13
ENDMDL
MODEL 3
REMARK VINA RESULT:      -8.0      1.191      1.617
REMARK  Name = 
REMARK  14 active torsions:
REMARK  status: ('A' for Active; 'I' for Inactive)
REMARK    1  A    between atoms: C_1  and  C_2
REMARK    2  A    between atoms: C_2  and  C_4
REMARK    3  A    between atoms: C_4  and  C_5
REMARK    4  A    between atoms: C_4  and  C_13
REMARK    5  A    between atoms: C_5  and  C_6
REMARK    6  A    between atoms: C_9  and  O_10
REMARK    7  A    between atoms: N_15  and  C_16
REMARK    8  A    between atoms: C_16  and  C_17
REMARK    9  A    between atoms: C_17  and  C_18
REMARK   10  A    between atoms: C_18  and  C_19
REMARK   11  A    between atoms: C_19  and  C_20
REMARK   12  A    between atoms: C_20  and  C_21
REMARK   13  A    between atoms: C_21  and  N_22
REMARK   14  A    between atoms: N_22  and  C_23
REMARK                            x       y       z     vdW  Elec       q    Type
REMARK                         _______ _______ _______ _____ _____    ______ ____
ROOT
ATOM      1  C   UNL     1       1.232   9.923  18.322  0.00  0.00    +0.000 C 
ENDROOT
BRANCH   1   2
ATOM      2  C   UNL     1       2.311   8.954  17.849  0.00  0.00    +0.000 C 
BRANCH   2   3
ATOM      3  C   UNL     1       1.762   7.535  17.829  0.00  0.00    +0.000 C 
BRANCH   3   6
ATOM      4  C   UNL     1       2.508   5.218  18.210  0.00  0.00    +0.000 C 
ATOM      5  O   UNL     1       1.535   4.759  17.609  0.00  0.00    +0.000 OA
ATOM      6  N   UNL     1       2.740   6.568  18.267  0.00  0.00    +0.000 N 
ATOM      7  H   UNL     1       3.572   6.905  18.755  0.00  0.00    +0.000 HD
BRANCH   4   8
ATOM      8  C   UNL     1       3.524   4.308  18.904  0.00  0.00    +0.000 C 
BRANCH   8  10
ATOM      9  C   UNL     1       2.029   4.268  21.063  0.00  0.00    +0.000 C 
ATOM     10  C   UNL     1       3.070   3.608  20.188  0.00  0.00    +0.000 C 
ATOM     11  O   UNL     1       3.506   2.498  20.512  0.00  0.00    +0.000 OA
ENDBRANCH   8  10
BRANCH   8  12
ATOM     12  C   UNL     1       4.103   3.336  17.854  0.00  0.00    +0.000 C 
BRANCH  12  13
ATOM     13  C   UNL     1       5.131   3.882  16.877  0.00  0.00    +0.000 A 
ATOM     14  C   UNL     1       5.048   3.723  15.483  0.00  0.00    +0.000 A 
ATOM     15  C   UNL     1       5.993   4.291  14.634  0.00  0.00    +0.000 A 
ATOM     16  C   UNL     1       7.041   5.023  15.170  0.00  0.00    +0.000 A 
ATOM     17  C   UNL     1       7.162   5.182  16.544  0.00  0.00    +0.000 A 
ATOM     18  C   UNL     1       6.211   4.612  17.394  0.00  0.00    +0.000 A 
BRANCH  16  19
ATOM     19  O   UNL     1       7.972   5.611  14.366  0.00  0.00    +0.000 OA
ATOM     20  H   UNL     1       7.631   6.481  14.098  0.00  0.00    +0.000 HD
ENDBRANCH  16  19
ENDBRANCH  12  13
ENDBRANCH   8  12
ENDBRANCH   4   8
ENDBRANCH   3   6
ENDBRANCH   2   3
ENDBRANCH   1   2
BRANCH   1  21
ATOM     21  C   UNL     1       1.095   9.913  19.843  0.00  0.00    +0.000 C 
BRANCH  21  22
ATOM     22  C   UNL     1      -0.361   9.939  20.315  0.00  0.00    +0.000 C 
BRANCH  22  23
ATOM     23  C   UNL     1      -0.768  11.239  21.002  0.00  0.00    +0.000 C 
BRANCH  23  24
ATOM     24  N   UNL     1      -1.276  12.227  20.053  0.00  0.00    +0.000 N 
ATOM     25  H   UNL     1      -0.704  12.289  19.212  0.00  0.00    +0.000 HD
BRANCH  24  26
ATOM     26  C   UNL     1      -2.651  12.249  19.700  0.00  0.00    +0.000 A 
ATOM     27  C   UNL     1      -3.691  12.640  20.575  0.00  0.00    +0.000 A 
ATOM     28  C   UNL     1      -4.999  12.654  20.072  0.00  0.00    +0.000 A 
ATOM     29  N   UNL     1      -5.324  12.232  18.830  0.00  0.00    +0.000 NA
ATOM     30  C   UNL     1      -4.361  11.773  18.032  0.00  0.00    +0.000 A 
ATOM     31  C   UNL     1      -4.745  11.315  16.775  0.00  0.00    +0.000 A 
ATOM     32  C   UNL     1      -3.824  10.804  15.863  0.00  0.00    +0.000 A 
ATOM     33  C   UNL     1      -2.482  10.751  16.213  0.00  0.00    +0.000 A 
ATOM     34  C   UNL     1      -2.078  11.217  17.465  0.00  0.00    +0.000 A 
ATOM     35  C   UNL     1      -3.003  11.739  18.408  0.00  0.00    +0.000 A 
ATOM     36  C   UNL     1      -6.185  13.079  20.903  0.00  0.00    +0.000 C 
ATOM     37  C   UNL     1      -5.825  13.794  22.197  0.00  0.00    +0.000 C 
ATOM     38  C   UNL     1      -4.699  13.056  22.893  0.00  0.00    +0.000 C 
ATOM     39  C   UNL     1      -3.462  13.071  22.006  0.00  0.00    +0.000 C 
ENDBRANCH  24  26
ENDBRANCH  23  24
ENDBRANCH  22  23
ENDBRANCH  21  22
ENDBRANCH   1  21
TORSDOF 13
ENDMDL
MODEL 4
REMARK VINA RESULT:      -7.9      5.790      9.984
REMARK  Name = 
REMARK  14 active torsions:
REMARK  status: ('A' for Active; 'I' for Inactive)
REMARK    1  A    between atoms: C_1  and  C_2
REMARK    2  A    between atoms: C_2  and  C_4
REMARK    3  A    between atoms: C_4  and  C_5
REMARK    4  A    between atoms: C_4  and  C_13
REMARK    5  A    between atoms: C_5  and  C_6
REMARK    6  A    between atoms: C_9  and  O_10
REMARK    7  A    between atoms: N_15  and  C_16
REMARK    8  A    between atoms: C_16  and  C_17
REMARK    9  A    between atoms: C_17  and  C_18
REMARK   10  A    between atoms: C_18  and  C_19
REMARK   11  A    between atoms: C_19  and  C_20
REMARK   12  A    between atoms: C_20  and  C_21
REMARK   13  A    between atoms: C_21  and  N_22
REMARK   14  A    between atoms: N_22  and  C_23
REMARK                            x       y       z     vdW  Elec       q    Type
REMARK                         _______ _______ _______ _____ _____    ______ ____
ROOT
ATOM      1  C   UNL     1       6.780   6.903  16.808  0.00  0.00    +0.000 C 
ENDROOT
BRANCH   1   2
ATOM      2  C   UNL     1       7.364   5.534  16.475  0.00  0.00    +0.000 C 
BRANCH   2   3
ATOM      3  C   UNL     1       6.421   4.438  16.950  0.00  0.00    +0.000 C 
BRANCH   3   6
ATOM      4  C   UNL     1       4.444   4.717  18.394  0.00  0.00    +0.000 C 
ATOM      5  O   UNL     1       5.033   4.245  19.368  0.00  0.00    +0.000 OA
ATOM      6  N   UNL     1       5.091   4.939  17.206  0.00  0.00    +0.000 N 
ATOM      7  H   UNL     1       4.572   5.356  16.432  0.00  0.00    +0.000 HD
BRANCH   4   8
ATOM      8  C   UNL     1       2.966   5.105  18.463  0.00  0.00    +0.000 C 
BRANCH   8  10
ATOM      9  C   UNL     1       1.061   3.817  19.732  0.00  0.00    +0.000 C 
ATOM     10  C   UNL     1       1.947   3.963  18.516  0.00  0.00    +0.000 C 
ATOM     11  O   UNL     1       1.805   3.175  17.574  0.00  0.00    +0.000 OA
ENDBRANCH   8  10
BRANCH   8  12
ATOM     12  C   UNL     1       2.785   6.135  19.599  0.00  0.00    +0.000 C 
BRANCH  12  13
ATOM     13  C   UNL     1       2.257   7.510  19.229  0.00  0.00    +0.000 A 
ATOM     14  C   UNL     1       2.428   8.100  17.965  0.00  0.00    +0.000 A 
ATOM     15  C   UNL     1       1.876   9.343  17.667  0.00  0.00    +0.000 A 
ATOM     16  C   UNL     1       1.149  10.017  18.636  0.00  0.00    +0.000 A 
ATOM     17  C   UNL     1       0.979   9.469  19.901  0.00  0.00    +0.000 A 
ATOM     18  C   UNL     1       1.533   8.222  20.196  0.00  0.00    +0.000 A 
BRANCH  16  19
ATOM     19  O   UNL     1       0.576  11.225  18.371  0.00  0.00    +0.000 OA
ATOM     20  H   UNL     1      -0.093  11.096  17.678  0.00  0.00    +0.000 HD
ENDBRANCH  16  19
ENDBRANCH  12  13
ENDBRANCH   8  12
ENDBRANCH   4   8
ENDBRANCH   3   6
ENDBRANCH   2   3
ENDBRANCH   1   2
BRANCH   1  21
ATOM     21  C   UNL     1       7.505   7.553  17.984  0.00  0.00    +0.000 C 
BRANCH  21  22
ATOM     22  C   UNL     1       8.418   8.707  17.564  0.00  0.00    +0.000 C 
BRANCH  22  23
ATOM     23  C   UNL     1       8.297   9.948  18.443  0.00  0.00    +0.000 C 
BRANCH  23  24
ATOM     24  N   UNL     1       9.565  10.300  19.077  0.00  0.00    +0.000 N 
ATOM     25  H   UNL     1      10.369  10.044  18.506  0.00  0.00    +0.000 HD
BRANCH  24  26
ATOM     26  C   UNL     1       9.763  11.594  19.628  0.00  0.00    +0.000 A 
ATOM     27  C   UNL     1       9.309  11.990  20.907  0.00  0.00    +0.000 A 
ATOM     28  C   UNL     1       9.617  13.288  21.337  0.00  0.00    +0.000 A 
ATOM     29  N   UNL     1      10.242  14.202  20.562  0.00  0.00    +0.000 NA
ATOM     30  C   UNL     1      10.587  13.864  19.320  0.00  0.00    +0.000 A 
ATOM     31  C   UNL     1      11.196  14.846  18.544  0.00  0.00    +0.000 A 
ATOM     32  C   UNL     1      11.590  14.608  17.228  0.00  0.00    +0.000 A 
ATOM     33  C   UNL     1      11.372  13.356  16.672  0.00  0.00    +0.000 A 
ATOM     34  C   UNL     1      10.773  12.356  17.440  0.00  0.00    +0.000 A 
ATOM     35  C   UNL     1      10.365  12.581  18.782  0.00  0.00    +0.000 A 
ATOM     36  C   UNL     1       9.211  13.814  22.692  0.00  0.00    +0.000 C 
ATOM     37  C   UNL     1       8.744  12.744  23.669  0.00  0.00    +0.000 C 
ATOM     38  C   UNL     1       7.801  11.788  22.968  0.00  0.00    +0.000 C 
ATOM     39  C   UNL     1       8.544  11.081  21.842  0.00  0.00    +0.000 C 
ENDBRANCH  24  26
ENDBRANCH  23  24
ENDBRANCH  22  23
ENDBRANCH  21  22
ENDBRANCH   1  21
TORSDOF 13
ENDMDL
MODEL 5
REMARK VINA RESULT:      -7.9      7.387     10.122
REMARK  Name = 
REMARK  14 active torsions:
REMARK  status: ('A' for Active; 'I' for Inactive)
REMARK    1  A    between atoms: C_1  and  C_2
REMARK    2  A    between atoms: C_2  and  C_4
REMARK    3  A    between atoms: C_4  and  C_5
REMARK    4  A    between atoms: C_4  and  C_13
REMARK    5  A    between atoms: C_5  and  C_6
REMARK    6  A    between atoms: C_9  and  O_10
REMARK    7  A    between atoms: N_15  and  C_16
REMARK    8  A    between atoms: C_16  and  C_17
REMARK    9  A    between atoms: C_17  and  C_18
REMARK   10  A    between atoms: C_18  and  C_19
REMARK   11  A    between atoms: C_19  and  C_20
REMARK   12  A    between atoms: C_20  and  C_21
REMARK   13  A    between atoms: C_21  and  N_22
REMARK   14  A    between atoms: N_22  and  C_23
REMARK                            x       y       z     vdW  Elec       q    Type
REMARK                         _______ _______ _______ _____ _____    ______ ____
ROOT
ATOM      1  C   UNL     1       8.671   9.786  18.520  0.00  0.00    +0.000 C 
ENDROOT
BRANCH   1   2
ATOM      2  C   UNL     1       7.897   8.895  17.553  0.00  0.00    +0.000 C 
BRANCH   2   3
ATOM      3  C   UNL     1       7.893   7.460  18.061  0.00  0.00    +0.000 C 
BRANCH   3   6
ATOM      4  C   UNL     1       6.023   6.366  16.890  0.00  0.00    +0.000 C 
ATOM      5  O   UNL     1       5.198   7.122  17.405  0.00  0.00    +0.000 OA
ATOM      6  N   UNL     1       7.368   6.539  17.082  0.00  0.00    +0.000 N 
ATOM      7  H   UNL     1       8.019   5.904  16.616  0.00  0.00    +0.000 HD
BRANCH   4   8
ATOM      8  C   UNL     1       5.593   5.208  15.985  0.00  0.00    +0.000 C 
BRANCH   8  10
ATOM      9  C   UNL     1       6.014   3.906  13.744  0.00  0.00    +0.000 C 
ATOM     10  C   UNL     1       6.489   4.894  14.784  0.00  0.00    +0.000 C 
ATOM     11  O   UNL     1       7.579   5.454  14.622  0.00  0.00    +0.000 OA
ENDBRANCH   8  10
BRANCH   8  12
ATOM     12  C   UNL     1       5.310   3.977  16.872  0.00  0.00    +0.000 C 
BRANCH  12  13
ATOM     13  C   UNL     1       4.038   3.981  17.702  0.00  0.00    +0.000 A 
ATOM     14  C   UNL     1       2.745   3.994  17.152  0.00  0.00    +0.000 A 
ATOM     15  C   UNL     1       1.615   3.946  17.964  0.00  0.00    +0.000 A 
ATOM     16  C   UNL     1       1.764   3.890  19.340  0.00  0.00    +0.000 A 
ATOM     17  C   UNL     1       3.028   3.896  19.915  0.00  0.00    +0.000 A 
ATOM     18  C   UNL     1       4.161   3.943  19.099  0.00  0.00    +0.000 A 
BRANCH  16  19
ATOM     19  O   UNL     1       0.679   3.819  20.163  0.00  0.00    +0.000 OA
ATOM     20  H   UNL     1       0.988   3.926  21.079  0.00  0.00    +0.000 HD
ENDBRANCH  16  19
ENDBRANCH  12  13
ENDBRANCH   8  12
ENDBRANCH   4   8
ENDBRANCH   3   6
ENDBRANCH   2   3
ENDBRANCH   1   2
BRANCH   1  21
ATOM     21  C   UNL     1       9.889  10.418  17.850  0.00  0.00    +0.000 C 
BRANCH  21  22
ATOM     22  C   UNL     1      10.230  11.802  18.407  0.00  0.00    +0.000 C 
BRANCH  22  23
ATOM     23  C   UNL     1      11.494  11.836  19.260  0.00  0.00    +0.000 C 
BRANCH  23  24
ATOM     24  N   UNL     1      11.641  13.099  19.977  0.00  0.00    +0.000 N 
ATOM     25  H   UNL     1      12.450  13.634  19.662  0.00  0.00    +0.000 HD
BRANCH  24  26
ATOM     26  C   UNL     1      10.531  13.968  20.145  0.00  0.00    +0.000 A 
ATOM     27  C   UNL     1       9.478  13.743  21.062  0.00  0.00    +0.000 A 
ATOM     28  C   UNL     1       8.469  14.712  21.150  0.00  0.00    +0.000 A 
ATOM     29  N   UNL     1       8.405  15.797  20.346  0.00  0.00    +0.000 NA
ATOM     30  C   UNL     1       9.343  15.965  19.415  0.00  0.00    +0.000 A 
ATOM     31  C   UNL     1       9.218  17.075  18.586  0.00  0.00    +0.000 A 
ATOM     32  C   UNL     1      10.135  17.344  17.571  0.00  0.00    +0.000 A 
ATOM     33  C   UNL     1      11.206  16.483  17.380  0.00  0.00    +0.000 A 
ATOM     34  C   UNL     1      11.353  15.371  18.211  0.00  0.00    +0.000 A 
ATOM     35  C   UNL     1      10.427  15.080  19.249  0.00  0.00    +0.000 A 
ATOM     36  C   UNL     1       7.311  14.595  22.111  0.00  0.00    +0.000 C 
ATOM     37  C   UNL     1       7.491  13.537  23.190  0.00  0.00    +0.000 C 
ATOM     38  C   UNL     1       8.031  12.264  22.572  0.00  0.00    +0.000 C 
ATOM     39  C   UNL     1       9.403  12.537  21.971  0.00  0.00    +0.000 C 
ENDBRANCH  24  26
ENDBRANCH  23  24
ENDBRANCH  22  23
ENDBRANCH  21  22
ENDBRANCH   1  21
TORSDOF 13
ENDMDL
MODEL 6
REMARK VINA RESULT:      -7.9      1.765      4.730
REMARK  Name = 
REMARK  14 active torsions:
REMARK  status: ('A' for Active; 'I' for Inactive)
REMARK    1  A    between atoms: C_1  and  C_2
REMARK    2  A    between atoms: C_2  and  C_4
REMARK    3  A    between atoms: C_4  and  C_5
REMARK    4  A    between atoms: C_4  and  C_13
REMARK    5  A    between atoms: C_5  and  C_6
REMARK    6  A    between atoms: C_9  and  O_10
REMARK    7  A    between atoms: N_15  and  C_16
REMARK    8  A    between atoms: C_16  and  C_17
REMARK    9  A    between atoms: C_17  and  C_18
REMARK   10  A    between atoms: C_18  and  C_19
REMARK   11  A    between atoms: C_19  and  C_20
REMARK   12  A    between atoms: C_20  and  C_21
REMARK   13  A    between atoms: C_21  and  N_22
REMARK   14  A    between atoms: N_22  and  C_23
REMARK                            x       y       z     vdW  Elec       q    Type
REMARK                         _______ _______ _______ _____ _____    ______ ____
ROOT
ATOM      1  C   UNL     1       1.808   8.458  19.285  0.00  0.00    +0.000 C 
ENDROOT
BRANCH   1   2
ATOM      2  C   UNL     1       2.028   7.429  18.181  0.00  0.00    +0.000 C 
BRANCH   2   3
ATOM      3  C   UNL     1       3.341   7.709  17.465  0.00  0.00    +0.000 C 
BRANCH   3   6
ATOM      4  C   UNL     1       4.992   5.882  17.408  0.00  0.00    +0.000 C 
ATOM      5  O   UNL     1       4.708   5.601  16.243  0.00  0.00    +0.000 OA
ATOM      6  N   UNL     1       4.440   6.968  18.036  0.00  0.00    +0.000 N 
ATOM      7  H   UNL     1       4.723   7.180  18.995  0.00  0.00    +0.000 HD
BRANCH   4   8
ATOM      8  C   UNL     1       5.997   5.052  18.211  0.00  0.00    +0.000 C 
BRANCH   8  10
ATOM      9  C   UNL     1       7.776   6.931  17.759  0.00  0.00    +0.000 C 
ATOM     10  C   UNL     1       7.340   5.711  18.538  0.00  0.00    +0.000 C 
ATOM     11  O   UNL     1       8.064   5.292  19.448  0.00  0.00    +0.000 OA
ENDBRANCH   8  10
BRANCH   8  12
ATOM     12  C   UNL     1       5.278   4.486  19.454  0.00  0.00    +0.000 C 
BRANCH  12  13
ATOM     13  C   UNL     1       3.909   3.859  19.254  0.00  0.00    +0.000 A 
ATOM     14  C   UNL     1       2.745   4.297  19.908  0.00  0.00    +0.000 A 
ATOM     15  C   UNL     1       1.507   3.715  19.645  0.00  0.00    +0.000 A 
ATOM     16  C   UNL     1       1.420   2.682  18.726  0.00  0.00    +0.000 A 
ATOM     17  C   UNL     1       2.555   2.214  18.078  0.00  0.00    +0.000 A 
ATOM     18  C   UNL     1       3.795   2.799  18.343  0.00  0.00    +0.000 A 
BRANCH  16  19
ATOM     19  O   UNL     1       0.220   2.105  18.429  0.00  0.00    +0.000 OA
ATOM     20  H   UNL     1      -0.483   2.678  18.778  0.00  0.00    +0.000 HD
ENDBRANCH  16  19
ENDBRANCH  12  13
ENDBRANCH   8  12
ENDBRANCH   4   8
ENDBRANCH   3   6
ENDBRANCH   2   3
ENDBRANCH   1   2
BRANCH   1  21
ATOM     21  C   UNL     1       1.354   7.800  20.586  0.00  0.00    +0.000 C 
BRANCH  21  22
ATOM     22  C   UNL     1       1.358   8.759  21.779  0.00  0.00    +0.000 C 
BRANCH  22  23
ATOM     23  C   UNL     1       0.061   9.543  21.950  0.00  0.00    +0.000 C 
BRANCH  23  24
ATOM     24  N   UNL     1       0.111  10.843  21.285  0.00  0.00    +0.000 N 
ATOM     25  H   UNL     1       0.820  10.879  20.555  0.00  0.00    +0.000 HD
BRANCH  24  26
ATOM     26  C   UNL     1      -1.080  11.466  20.827  0.00  0.00    +0.000 A 
ATOM     27  C   UNL     1      -1.705  11.176  19.592  0.00  0.00    +0.000 A 
ATOM     28  C   UNL     1      -2.903  11.839  19.293  0.00  0.00    +0.000 A 
ATOM     29  N   UNL     1      -3.439  12.800  20.078  0.00  0.00    +0.000 NA
ATOM     30  C   UNL     1      -2.804  13.147  21.197  0.00  0.00    +0.000 A 
ATOM     31  C   UNL     1      -3.372  14.165  21.957  0.00  0.00    +0.000 A 
ATOM     32  C   UNL     1      -2.789  14.615  23.140  0.00  0.00    +0.000 A 
ATOM     33  C   UNL     1      -1.608  14.032  23.578  0.00  0.00    +0.000 A 
ATOM     34  C   UNL     1      -1.031  13.001  22.834  0.00  0.00    +0.000 A 
ATOM     35  C   UNL     1      -1.611  12.531  21.626  0.00  0.00    +0.000 A 
ATOM     36  C   UNL     1      -3.674  11.591  18.020  0.00  0.00    +0.000 C 
ATOM     37  C   UNL     1      -3.241  10.349  17.253  0.00  0.00    +0.000 C 
ATOM     38  C   UNL     1      -1.729  10.289  17.189  0.00  0.00    +0.000 C 
ATOM     39  C   UNL     1      -1.169  10.169  18.600  0.00  0.00    +0.000 C 
ENDBRANCH  24  26
ENDBRANCH  23  24
ENDBRANCH  22  23
ENDBRANCH  21  22
ENDBRANCH   1  21
TORSDOF 13
ENDMDL
MODEL 7
REMARK VINA RESULT:      -7.9      0.984      1.393
REMARK  Name = 
REMARK  14 active torsions:
REMARK  status: ('A' for Active; 'I' for Inactive)
REMARK    1  A    between atoms: C_1  and  C_2
REMARK    2  A    between atoms: C_2  and  C_4
REMARK    3  A    between atoms: C_4  and  C_5
REMARK    4  A    between atoms: C_4  and  C_13
REMARK    5  A    between atoms: C_5  and  C_6
REMARK    6  A    between atoms: C_9  and  O_10
REMARK    7  A    between atoms: N_15  and  C_16
REMARK    8  A    between atoms: C_16  and  C_17
REMARK    9  A    between atoms: C_17  and  C_18
REMARK   10  A    between atoms: C_18  and  C_19
REMARK   11  A    between atoms: C_19  and  C_20
REMARK   12  A    between atoms: C_20  and  C_21
REMARK   13  A    between atoms: C_21  and  N_22
REMARK   14  A    between atoms: N_22  and  C_23
REMARK                            x       y       z     vdW  Elec       q    Type
REMARK                         _______ _______ _______ _____ _____    ______ ____
ROOT
ATOM      1  C   UNL     1       1.049   9.773  17.943  0.00  0.00    +0.000 C 
ENDROOT
BRANCH   1   2
ATOM      2  C   UNL     1       2.220   8.796  17.972  0.00  0.00    +0.000 C 
BRANCH   2   3
ATOM      3  C   UNL     1       2.187   7.986  19.259  0.00  0.00    +0.000 C 
BRANCH   3   6
ATOM      4  C   UNL     1       1.998   5.632  19.962  0.00  0.00    +0.000 C 
ATOM      5  O   UNL     1       1.414   5.942  21.001  0.00  0.00    +0.000 OA
ATOM      6  N   UNL     1       2.314   6.569  19.013  0.00  0.00    +0.000 N 
ATOM      7  H   UNL     1       2.776   6.265  18.154  0.00  0.00    +0.000 HD
BRANCH   4   8
ATOM      8  C   UNL     1       2.381   4.182  19.661  0.00  0.00    +0.000 C 
BRANCH   8  10
ATOM      9  C   UNL     1       1.620   2.575  21.594  0.00  0.00    +0.000 C 
ATOM     10  C   UNL     1       1.443   3.090  20.184  0.00  0.00    +0.000 C 
ATOM     11  O   UNL     1       0.519   2.643  19.495  0.00  0.00    +0.000 OA
ENDBRANCH   8  10
BRANCH   8  12
ATOM     12  C   UNL     1       2.674   4.059  18.150  0.00  0.00    +0.000 C 
BRANCH  12  13
ATOM     13  C   UNL     1       4.112   4.232  17.692  0.00  0.00    +0.000 A 
ATOM     14  C   UNL     1       5.176   4.543  18.556  0.00  0.00    +0.000 A 
ATOM     15  C   UNL     1       6.483   4.639  18.086  0.00  0.00    +0.000 A 
ATOM     16  C   UNL     1       6.742   4.429  16.741  0.00  0.00    +0.000 A 
ATOM     17  C   UNL     1       5.710   4.139  15.859  0.00  0.00    +0.000 A 
ATOM     18  C   UNL     1       4.400   4.043  16.333  0.00  0.00    +0.000 A 
BRANCH  16  19
ATOM     19  O   UNL     1       8.013   4.492  16.252  0.00  0.00    +0.000 OA
ATOM     20  H   UNL     1       8.143   3.739  15.651  0.00  0.00    +0.000 HD
ENDBRANCH  16  19
ENDBRANCH  12  13
ENDBRANCH   8  12
ENDBRANCH   4   8
ENDBRANCH   3   6
ENDBRANCH   2   3
ENDBRANCH   1   2
BRANCH   1  21
ATOM     21  C   UNL     1       1.188  10.850  19.017  0.00  0.00    +0.000 C 
BRANCH  21  22
ATOM     22  C   UNL     1       0.392  10.539  20.287  0.00  0.00    +0.000 C 
BRANCH  22  23
ATOM     23  C   UNL     1      -0.223  11.766  20.953  0.00  0.00    +0.000 C 
BRANCH  23  24
ATOM     24  N   UNL     1      -0.972  12.588  20.006  0.00  0.00    +0.000 N 
ATOM     25  H   UNL     1      -0.537  12.614  19.085  0.00  0.00    +0.000 HD
BRANCH  24  26
ATOM     26  C   UNL     1      -2.376  12.432  19.868  0.00  0.00    +0.000 A 
ATOM     27  C   UNL     1      -3.308  12.674  20.904  0.00  0.00    +0.000 A 
ATOM     28  C   UNL     1      -4.670  12.521  20.607  0.00  0.00    +0.000 A 
ATOM     29  N   UNL     1      -5.128  12.072  19.417  0.00  0.00    +0.000 NA
ATOM     30  C   UNL     1      -4.250  11.751  18.468  0.00  0.00    +0.000 A 
ATOM     31  C   UNL     1      -4.763  11.259  17.272  0.00  0.00    +0.000 A 
ATOM     32  C   UNL     1      -3.937  10.882  16.214  0.00  0.00    +0.000 A 
ATOM     33  C   UNL     1      -2.562  11.003  16.353  0.00  0.00    +0.000 A 
ATOM     34  C   UNL     1      -2.030  11.505  17.542  0.00  0.00    +0.000 A 
ATOM     35  C   UNL     1      -2.857  11.893  18.631  0.00  0.00    +0.000 A 
ATOM     36  C   UNL     1      -5.757  12.778  21.622  0.00  0.00    +0.000 C 
ATOM     37  C   UNL     1      -5.294  13.522  22.867  0.00  0.00    +0.000 C 
ATOM     38  C   UNL     1      -3.989  12.931  23.359  0.00  0.00    +0.000 C 
ATOM     39  C   UNL     1      -2.917  13.118  22.294  0.00  0.00    +0.000 C 
ENDBRANCH  24  26
ENDBRANCH  23  24
ENDBRANCH  22  23
ENDBRANCH  21  22
ENDBRANCH   1  21
TORSDOF 13
ENDMDL
MODEL 8
REMARK VINA RESULT:      -7.9      1.320      1.881
REMARK  Name = 
REMARK  14 active torsions:
REMARK  status: ('A' for Active; 'I' for Inactive)
REMARK    1  A    between atoms: C_1  and  C_2
REMARK    2  A    between atoms: C_2  and  C_4
REMARK    3  A    between atoms: C_4  and  C_5
REMARK    4  A    between atoms: C_4  and  C_13
REMARK    5  A    between atoms: C_5  and  C_6
REMARK    6  A    between atoms: C_9  and  O_10
REMARK    7  A    between atoms: N_15  and  C_16
REMARK    8  A    between atoms: C_16  and  C_17
REMARK    9  A    between atoms: C_17  and  C_18
REMARK   10  A    between atoms: C_18  and  C_19
REMARK   11  A    between atoms: C_19  and  C_20
REMARK   12  A    between atoms: C_20  and  C_21
REMARK   13  A    between atoms: C_21  and  N_22
REMARK   14  A    between atoms: N_22  and  C_23
REMARK                            x       y       z     vdW  Elec       q    Type
REMARK                         _______ _______ _______ _____ _____    ______ ____
ROOT
ATOM      1  C   UNL     1       1.280   9.649  17.875  0.00  0.00    +0.000 C 
ENDROOT
BRANCH   1   2
ATOM      2  C   UNL     1       1.780   8.531  18.784  0.00  0.00    +0.000 C 
BRANCH   2   3
ATOM      3  C   UNL     1       2.717   7.614  18.011  0.00  0.00    +0.000 C 
BRANCH   3   6
ATOM      4  C   UNL     1       3.101   5.438  19.100  0.00  0.00    +0.000 C 
ATOM      5  O   UNL     1       3.900   5.928  19.899  0.00  0.00    +0.000 OA
ATOM      6  N   UNL     1       2.404   6.220  18.216  0.00  0.00    +0.000 N 
ATOM      7  H   UNL     1       1.733   5.776  17.587  0.00  0.00    +0.000 HD
BRANCH   4   8
ATOM      8  C   UNL     1       2.823   3.934  19.066  0.00  0.00    +0.000 C 
BRANCH   8  10
ATOM      9  C   UNL     1       0.628   2.499  18.912  0.00  0.00    +0.000 C 
ATOM     10  C   UNL     1       1.595   3.470  18.276  0.00  0.00    +0.000 C 
ATOM     11  O   UNL     1       1.354   3.898  17.141  0.00  0.00    +0.000 OA
ENDBRANCH   8  10
BRANCH   8  12
ATOM     12  C   UNL     1       4.121   3.207  18.654  0.00  0.00    +0.000 C 
BRANCH  12  13
ATOM     13  C   UNL     1       5.048   3.916  17.681  0.00  0.00    +0.000 A 
ATOM     14  C   UNL     1       6.284   4.477  18.046  0.00  0.00    +0.000 A 
ATOM     15  C   UNL     1       7.116   5.069  17.100  0.00  0.00    +0.000 A 
ATOM     16  C   UNL     1       6.718   5.113  15.773  0.00  0.00    +0.000 A 
ATOM     17  C   UNL     1       5.494   4.585  15.384  0.00  0.00    +0.000 A 
ATOM     18  C   UNL     1       4.662   3.990  16.335  0.00  0.00    +0.000 A 
BRANCH  16  19
ATOM     19  O   UNL     1       7.518   5.666  14.817  0.00  0.00    +0.000 OA
ATOM     20  H   UNL     1       7.822   4.953  14.230  0.00  0.00    +0.000 HD
ENDBRANCH  16  19
ENDBRANCH  12  13
ENDBRANCH   8  12
ENDBRANCH   4   8
ENDBRANCH   3   6
ENDBRANCH   2   3
ENDBRANCH   1   2
BRANCH   1  21
ATOM     21  C   UNL     1      -0.239   9.791  17.940  0.00  0.00    +0.000 C 
BRANCH  21  22
ATOM     22  C   UNL     1      -0.724  10.476  19.221  0.00  0.00    +0.000 C 
BRANCH  22  23
ATOM     23  C   UNL     1      -0.602  11.996  19.197  0.00  0.00    +0.000 C 
BRANCH  23  24
ATOM     24  N   UNL     1      -1.876  12.646  18.897  0.00  0.00    +0.000 N 
ATOM     25  H   UNL     1      -2.214  12.425  17.962  0.00  0.00    +0.000 HD
BRANCH  24  26
ATOM     26  C   UNL     1      -2.952  12.587  19.822  0.00  0.00    +0.000 A 
ATOM     27  C   UNL     1      -2.831  12.873  21.202  0.00  0.00    +0.000 A 
ATOM     28  C   UNL     1      -3.992  12.817  21.985  0.00  0.00    +0.000 A 
ATOM     29  N   UNL     1      -5.193  12.418  21.511  0.00  0.00    +0.000 NA
ATOM     30  C   UNL     1      -5.293  12.054  20.233  0.00  0.00    +0.000 A 
ATOM     31  C   UNL     1      -6.539  11.616  19.796  0.00  0.00    +0.000 A 
ATOM     32  C   UNL     1      -6.756  11.202  18.482  0.00  0.00    +0.000 A 
ATOM     33  C   UNL     1      -5.702  11.228  17.581  0.00  0.00    +0.000 A 
ATOM     34  C   UNL     1      -4.448  11.675  18.000  0.00  0.00    +0.000 A 
ATOM     35  C   UNL     1      -4.208  12.100  19.334  0.00  0.00    +0.000 A 
ATOM     36  C   UNL     1      -3.992  13.129  23.462  0.00  0.00    +0.000 C 
ATOM     37  C   UNL     1      -2.731  13.821  23.960  0.00  0.00    +0.000 C 
ATOM     38  C   UNL     1      -1.510  13.137  23.380  0.00  0.00    +0.000 C 
ATOM     39  C   UNL     1      -1.531  13.269  21.863  0.00  0.00    +0.000 C 
ENDBRANCH  24  26
ENDBRANCH  23  24
ENDBRANCH  22  23
ENDBRANCH  21  22
ENDBRANCH   1  21
TORSDOF 13
ENDMDL
MODEL 9
REMARK VINA RESULT:      -7.9      3.293      9.475
REMARK  Name = 
REMARK  14 active torsions:
REMARK  status: ('A' for Active; 'I' for Inactive)
REMARK    1  A    between atoms: C_1  and  C_2
REMARK    2  A    between atoms: C_2  and  C_4
REMARK    3  A    between atoms: C_4  and  C_5
REMARK    4  A    between atoms: C_4  and  C_13
REMARK    5  A    between atoms: C_5  and  C_6
REMARK    6  A    between atoms: C_9  and  O_10
REMARK    7  A    between atoms: N_15  and  C_16
REMARK    8  A    between atoms: C_16  and  C_17
REMARK    9  A    between atoms: C_17  and  C_18
REMARK   10  A    between atoms: C_18  and  C_19
REMARK   11  A    between atoms: C_19  and  C_20
REMARK   12  A    between atoms: C_20  and  C_21
REMARK   13  A    between atoms: C_21  and  N_22
REMARK   14  A    between atoms: N_22  and  C_23
REMARK                            x       y       z     vdW  Elec       q    Type
REMARK                         _______ _______ _______ _____ _____    ______ ____
ROOT
ATOM      1  C   UNL     1      -0.565   8.578  21.974  0.00  0.00    +0.000 C 
ENDROOT
BRANCH   1   2
ATOM      2  C   UNL     1      -0.167   9.708  22.918  0.00  0.00    +0.000 C 
BRANCH   2   3
ATOM      3  C   UNL     1      -0.692  11.035  22.389  0.00  0.00    +0.000 C 
BRANCH   3   6
ATOM      4  C   UNL     1      -1.341  11.704  20.109  0.00  0.00    +0.000 C 
ATOM      5  O   UNL     1      -2.398  12.197  20.506  0.00  0.00    +0.000 OA
ATOM      6  N   UNL     1      -0.409  11.211  20.985  0.00  0.00    +0.000 N 
ATOM      7  H   UNL     1       0.465  10.834  20.615  0.00  0.00    +0.000 HD
BRANCH   4   8
ATOM      8  C   UNL     1      -0.998  11.637  18.619  0.00  0.00    +0.000 C 
BRANCH   8  10
ATOM      9  C   UNL     1      -3.295  11.424  17.364  0.00  0.00    +0.000 C 
ATOM     10  C   UNL     1      -1.948  10.839  17.721  0.00  0.00    +0.000 C 
ATOM     11  O   UNL     1      -1.628   9.742  17.249  0.00  0.00    +0.000 OA
ENDBRANCH   8  10
BRANCH   8  12
ATOM     12  C   UNL     1      -0.744  13.073  18.113  0.00  0.00    +0.000 C 
BRANCH  12  13
ATOM     13  C   UNL     1       0.585  13.720  18.461  0.00  0.00    +0.000 A 
ATOM     14  C   UNL     1       1.828  13.080  18.321  0.00  0.00    +0.000 A 
ATOM     15  C   UNL     1       3.019  13.742  18.608  0.00  0.00    +0.000 A 
ATOM     16  C   UNL     1       2.980  15.056  19.047  0.00  0.00    +0.000 A 
ATOM     17  C   UNL     1       1.767  15.710  19.215  0.00  0.00    +0.000 A 
ATOM     18  C   UNL     1       0.574  15.044  18.925  0.00  0.00    +0.000 A 
BRANCH  16  19
ATOM     19  O   UNL     1       4.128  15.741  19.316  0.00  0.00    +0.000 OA
ATOM     20  H   UNL     1       4.504  16.041  18.471  0.00  0.00    +0.000 HD
ENDBRANCH  16  19
ENDBRANCH  12  13
ENDBRANCH   8  12
ENDBRANCH   4   8
ENDBRANCH   3   6
ENDBRANCH   2   3
ENDBRANCH   1   2
BRANCH   1  21
ATOM     21  C   UNL     1       0.653   7.801  21.480  0.00  0.00    +0.000 C 
BRANCH  21  22
ATOM     22  C   UNL     1       1.568   8.630  20.575  0.00  0.00    +0.000 C 
BRANCH  22  23
ATOM     23  C   UNL     1       2.005   7.910  19.304  0.00  0.00    +0.000 C 
BRANCH  23  24
ATOM     24  N   UNL     1       3.058   6.931  19.560  0.00  0.00    +0.000 N 
ATOM     25  H   UNL     1       3.162   6.722  20.552  0.00  0.00    +0.000 HD
BRANCH  24  26
ATOM     26  C   UNL     1       3.124   5.728  18.808  0.00  0.00    +0.000 A 
ATOM     27  C   UNL     1       2.364   4.570  19.093  0.00  0.00    +0.000 A 
ATOM     28  C   UNL     1       2.502   3.470  18.235  0.00  0.00    +0.000 A 
ATOM     29  N   UNL     1       3.383   3.429  17.210  0.00  0.00    +0.000 NA
ATOM     30  C   UNL     1       4.170   4.482  16.995  0.00  0.00    +0.000 A 
ATOM     31  C   UNL     1       5.087   4.383  15.953  0.00  0.00    +0.000 A 
ATOM     32  C   UNL     1       5.967   5.419  15.645  0.00  0.00    +0.000 A 
ATOM     33  C   UNL     1       5.929   6.586  16.394  0.00  0.00    +0.000 A 
ATOM     34  C   UNL     1       5.008   6.706  17.436  0.00  0.00    +0.000 A 
ATOM     35  C   UNL     1       4.105   5.660  17.766  0.00  0.00    +0.000 A 
ATOM     36  C   UNL     1       1.723   2.191  18.421  0.00  0.00    +0.000 C 
ATOM     37  C   UNL     1       0.555   2.300  19.391  0.00  0.00    +0.000 C 
ATOM     38  C   UNL     1       0.990   3.053  20.632  0.00  0.00    +0.000 C 
ATOM     39  C   UNL     1       1.393   4.469  20.247  0.00  0.00    +0.000 C 
ENDBRANCH  24  26
ENDBRANCH  23  24
ENDBRANCH  22  23
ENDBRANCH  21  22
ENDBRANCH   1  21
TORSDOF 13
ENDMDL
