MODEL 1
REMARK VINA RESULT:      -6.3      0.000      0.000
REMARK  Name = 
REMARK  2 active torsions:
REMARK  status: ('A' for Active; 'I' for Inactive)
REMARK    1  A    between atoms: C_2  and  S_3
REMARK    2  A    between atoms: N_4  and  C_5
REMARK                            x       y       z     vdW  Elec       q    Type
REMARK                         _______ _______ _______ _____ _____    ______ ____
ROOT
ATOM      1  C   UNL     1       4.362   4.881  16.859  0.00  0.00    +0.000 A 
ATOM      2  C   UNL     1       3.693   5.860  17.602  0.00  0.00    +0.000 A 
ATOM      3  C   UNL     1       2.648   5.542  18.480  0.00  0.00    +0.000 A 
ATOM      4  C   UNL     1       2.198   4.214  18.559  0.00  0.00    +0.000 A 
ATOM      5  C   UNL     1       1.175   3.564  19.300  0.00  0.00    +0.000 A 
ATOM      6  C   UNL     1       1.153   2.246  18.909  0.00  0.00    +0.000 A 
ATOM      7  N   UNL     1       2.141   2.068  17.974  0.00  0.00    +0.000 N 
ATOM      8  C   UNL     1       2.813   3.252  17.761  0.00  0.00    +0.000 A 
ATOM      9  C   UNL     1       3.897   3.553  16.923  0.00  0.00    +0.000 A 
ATOM     10  H   UNL     1       2.337   1.200  17.495  0.00  0.00    +0.000 HD
ENDROOT
BRANCH   1  13
ATOM     11  N   UNL     1       7.563   5.573  15.303  0.00  0.00    +0.000 N 
ATOM     12  C   UNL     1       6.650   5.205  16.244  0.00  0.00    +0.000 C 
ATOM     13  N   UNL     1       5.389   5.188  15.950  0.00  0.00    +0.000 NA
ATOM     14  H   UNL     1       8.483   5.172  15.426  0.00  0.00    +0.000 HD
ATOM     15  H   UNL     1       7.197   5.487  14.362  0.00  0.00    +0.000 HD
BRANCH  12  16
ATOM     16  S   UNL     1       7.409   4.769  17.754  0.00  0.00    +0.000 S 
ATOM     17  H   UNL     1       6.447   3.920  18.140  0.00  0.00    +0.000 HD
ENDBRANCH  12  16
ENDBRANCH   1  13
TORSDOF 2
ENDMDL
MODEL 2
REMARK VINA RESULT:      -6.2      1.713      1.805
REMARK  Name = 
REMARK  2 active torsions:
REMARK  status: ('A' for Active; 'I' for Inactive)
REMARK    1  A    between atoms: C_2  and  S_3
REMARK    2  A    between atoms: N_4  and  C_5
REMARK                            x       y       z     vdW  Elec       q    Type
REMARK                         _______ _______ _______ _____ _____    ______ ____
ROOT
ATOM      1  C   UNL     1       4.477   4.159  18.003  0.00  0.00    +0.000 A 
ATOM      2  C   UNL     1       3.371   4.927  17.624  0.00  0.00    +0.000 A 
ATOM      3  C   UNL     1       2.205   4.987  18.400  0.00  0.00    +0.000 A 
ATOM      4  C   UNL     1       2.107   4.189  19.551  0.00  0.00    +0.000 A 
ATOM      5  C   UNL     1       1.091   3.987  20.525  0.00  0.00    +0.000 A 
ATOM      6  C   UNL     1       1.538   3.021  21.395  0.00  0.00    +0.000 A 
ATOM      7  N   UNL     1       2.797   2.646  20.998  0.00  0.00    +0.000 N 
ATOM      8  C   UNL     1       3.178   3.365  19.886  0.00  0.00    +0.000 A 
ATOM      9  C   UNL     1       4.370   3.344  19.146  0.00  0.00    +0.000 A 
ATOM     10  H   UNL     1       3.357   1.932  21.443  0.00  0.00    +0.000 HD
ENDROOT
BRANCH   1  13
ATOM     11  N   UNL     1       7.803   4.563  16.617  0.00  0.00    +0.000 N 
ATOM     12  C   UNL     1       6.752   4.677  17.474  0.00  0.00    +0.000 C 
ATOM     13  N   UNL     1       5.639   4.064  17.218  0.00  0.00    +0.000 NA
ATOM     14  H   UNL     1       8.712   4.677  17.045  0.00  0.00    +0.000 HD
ATOM     15  H   UNL     1       7.726   3.746  16.024  0.00  0.00    +0.000 HD
BRANCH  12  16
ATOM     16  S   UNL     1       7.141   5.668  18.858  0.00  0.00    +0.000 S 
ATOM     17  H   UNL     1       6.813   6.831  18.278  0.00  0.00    +0.000 HD
ENDBRANCH  12  16
ENDBRANCH   1  13
TORSDOF 2
ENDMDL
MODEL 3
REMARK VINA RESULT:      -6.0      1.665      1.666
REMARK  Name = 
REMARK  2 active torsions:
REMARK  status: ('A' for Active; 'I' for Inactive)
REMARK    1  A    between atoms: C_2  and  S_3
REMARK    2  A    between atoms: N_4  and  C_5
REMARK                            x       y       z     vdW  Elec       q    Type
REMARK                         _______ _______ _______ _____ _____    ______ ____
ROOT
ATOM      1  C   UNL     1       4.873   4.132  18.801  0.00  0.00    +0.000 A 
ATOM      2  C   UNL     1       4.211   5.167  19.470  0.00  0.00    +0.000 A 
ATOM      3  C   UNL     1       2.870   5.060  19.865  0.00  0.00    +0.000 A 
ATOM      4  C   UNL     1       2.139   3.916  19.506  0.00  0.00    +0.000 A 
ATOM      5  C   UNL     1       0.795   3.502  19.711  0.00  0.00    +0.000 A 
ATOM      6  C   UNL     1       0.628   2.301  19.064  0.00  0.00    +0.000 A 
ATOM      7  N   UNL     1       1.828   1.959  18.494  0.00  0.00    +0.000 N 
ATOM      8  C   UNL     1       2.777   2.919  18.772  0.00  0.00    +0.000 A 
ATOM      9  C   UNL     1       4.134   2.994  18.424  0.00  0.00    +0.000 A 
ATOM     10  H   UNL     1       1.990   1.134  17.934  0.00  0.00    +0.000 HD
ENDROOT
BRANCH   1  13
ATOM     11  N   UNL     1       7.888   4.593  16.840  0.00  0.00    +0.000 N 
ATOM     12  C   UNL     1       6.568   4.575  17.172  0.00  0.00    +0.000 C 
ATOM     13  N   UNL     1       6.206   4.238  18.370  0.00  0.00    +0.000 NA
ATOM     14  H   UNL     1       8.129   5.239  16.101  0.00  0.00    +0.000 HD
ATOM     15  H   UNL     1       8.486   4.655  17.655  0.00  0.00    +0.000 HD
BRANCH  12  16
ATOM     16  S   UNL     1       5.552   5.072  15.842  0.00  0.00    +0.000 S 
ATOM     17  H   UNL     1       6.533   5.664  15.146  0.00  0.00    +0.000 HD
ENDBRANCH  12  16
ENDBRANCH   1  13
TORSDOF 2
ENDMDL
MODEL 4
REMARK VINA RESULT:      -6.0      2.083      2.083
REMARK  Name = 
REMARK  2 active torsions:
REMARK  status: ('A' for Active; 'I' for Inactive)
REMARK    1  A    between atoms: C_2  and  S_3
REMARK    2  A    between atoms: N_4  and  C_5
REMARK                            x       y       z     vdW  Elec       q    Type
REMARK                         _______ _______ _______ _____ _____    ______ ____
ROOT
ATOM      1  C   UNL     1       5.060   4.609  19.103  0.00  0.00    +0.000 A 
ATOM      2  C   UNL     1       4.284   5.774  19.109  0.00  0.00    +0.000 A 
ATOM      3  C   UNL     1       2.971   5.791  19.599  0.00  0.00    +0.000 A 
ATOM      4  C   UNL     1       2.381   4.588  20.020  0.00  0.00    +0.000 A 
ATOM      5  C   UNL     1       1.099   4.246  20.531  0.00  0.00    +0.000 A 
ATOM      6  C   UNL     1       1.073   2.883  20.705  0.00  0.00    +0.000 A 
ATOM      7  N   UNL     1       2.299   2.388  20.340  0.00  0.00    +0.000 N 
ATOM      8  C   UNL     1       3.127   3.415  19.941  0.00  0.00    +0.000 A 
ATOM      9  C   UNL     1       4.461   3.401  19.507  0.00  0.00    +0.000 A 
ATOM     10  H   UNL     1       2.554   1.410  20.343  0.00  0.00    +0.000 HD
ENDROOT
BRANCH   1  13
ATOM     11  N   UNL     1       7.955   4.337  16.938  0.00  0.00    +0.000 N 
ATOM     12  C   UNL     1       6.655   4.420  17.331  0.00  0.00    +0.000 C 
ATOM     13  N   UNL     1       6.365   4.570  18.585  0.00  0.00    +0.000 NA
ATOM     14  H   UNL     1       8.132   4.648  15.993  0.00  0.00    +0.000 HD
ATOM     15  H   UNL     1       8.587   4.728  17.627  0.00  0.00    +0.000 HD
BRANCH  12  16
ATOM     16  S   UNL     1       5.556   4.332  15.977  0.00  0.00    +0.000 S 
ATOM     17  H   UNL     1       6.102   3.232  15.441  0.00  0.00    +0.000 HD
ENDBRANCH  12  16
ENDBRANCH   1  13
TORSDOF 2
ENDMDL
MODEL 5
REMARK VINA RESULT:      -5.9      1.565      2.223
REMARK  Name = 
REMARK  2 active torsions:
REMARK  status: ('A' for Active; 'I' for Inactive)
REMARK    1  A    between atoms: C_2  and  S_3
REMARK    2  A    between atoms: N_4  and  C_5
REMARK                            x       y       z     vdW  Elec       q    Type
REMARK                         _______ _______ _______ _____ _____    ______ ____
ROOT
ATOM      1  C   UNL     1       4.362   5.025  16.923  0.00  0.00    +0.000 A 
ATOM      2  C   UNL     1       3.751   3.769  17.019  0.00  0.00    +0.000 A 
ATOM      3  C   UNL     1       2.781   3.487  17.990  0.00  0.00    +0.000 A 
ATOM      4  C   UNL     1       2.469   4.462  18.951  0.00  0.00    +0.000 A 
ATOM      5  C   UNL     1       1.581   4.502  20.061  0.00  0.00    +0.000 A 
ATOM      6  C   UNL     1       1.756   5.713  20.688  0.00  0.00    +0.000 A 
ATOM      7  N   UNL     1       2.701   6.419  19.986  0.00  0.00    +0.000 N 
ATOM      8  C   UNL     1       3.134   5.685  18.903  0.00  0.00    +0.000 A 
ATOM      9  C   UNL     1       4.063   5.994  17.899  0.00  0.00    +0.000 A 
ATOM     10  H   UNL     1       3.045   7.335  20.236  0.00  0.00    +0.000 HD
ENDROOT
BRANCH   1  13
ATOM     11  N   UNL     1       7.520   5.600  15.236  0.00  0.00    +0.000 N 
ATOM     12  C   UNL     1       6.633   5.245  16.206  0.00  0.00    +0.000 C 
ATOM     13  N   UNL     1       5.360   5.311  15.976  0.00  0.00    +0.000 NA
ATOM     14  H   UNL     1       8.419   5.143  15.297  0.00  0.00    +0.000 HD
ATOM     15  H   UNL     1       7.105   5.573  14.312  0.00  0.00    +0.000 HD
BRANCH  12  16
ATOM     16  S   UNL     1       7.437   4.705  17.659  0.00  0.00    +0.000 S 
ATOM     17  H   UNL     1       6.856   5.603  18.468  0.00  0.00    +0.000 HD
ENDBRANCH  12  16
ENDBRANCH   1  13
TORSDOF 2
ENDMDL
MODEL 6
REMARK VINA RESULT:      -5.9      2.170      2.442
REMARK  Name = 
REMARK  2 active torsions:
REMARK  status: ('A' for Active; 'I' for Inactive)
REMARK    1  A    between atoms: C_2  and  S_3
REMARK    2  A    between atoms: N_4  and  C_5
REMARK                            x       y       z     vdW  Elec       q    Type
REMARK                         _______ _______ _______ _____ _____    ______ ____
ROOT
ATOM      1  C   UNL     1       6.046   5.552  16.632  0.00  0.00    +0.000 A 
ATOM      2  C   UNL     1       4.831   6.243  16.681  0.00  0.00    +0.000 A 
ATOM      3  C   UNL     1       3.836   5.934  17.618  0.00  0.00    +0.000 A 
ATOM      4  C   UNL     1       4.025   4.843  18.482  0.00  0.00    +0.000 A 
ATOM      5  C   UNL     1       3.236   4.249  19.505  0.00  0.00    +0.000 A 
ATOM      6  C   UNL     1       3.916   3.148  19.967  0.00  0.00    +0.000 A 
ATOM      7  N   UNL     1       5.100   3.065  19.278  0.00  0.00    +0.000 N 
ATOM      8  C   UNL     1       5.202   4.106  18.382  0.00  0.00    +0.000 A 
ATOM      9  C   UNL     1       6.226   4.446  17.485  0.00  0.00    +0.000 A 
ATOM     10  H   UNL     1       5.790   2.336  19.395  0.00  0.00    +0.000 HD
ENDROOT
BRANCH   1  13
ATOM     11  N   UNL     1       8.195   5.517  13.711  0.00  0.00    +0.000 N 
ATOM     12  C   UNL     1       7.162   5.211  14.544  0.00  0.00    +0.000 C 
ATOM     13  N   UNL     1       7.039   5.829  15.675  0.00  0.00    +0.000 NA
ATOM     14  H   UNL     1       8.012   5.351  12.731  0.00  0.00    +0.000 HD
ATOM     15  H   UNL     1       8.586   6.430  13.908  0.00  0.00    +0.000 HD
BRANCH  12  16
ATOM     16  S   UNL     1       6.118   3.987  13.867  0.00  0.00    +0.000 S 
ATOM     17  H   UNL     1       7.098   3.308  13.254  0.00  0.00    +0.000 HD
ENDBRANCH  12  16
ENDBRANCH   1  13
TORSDOF 2
ENDMDL
MODEL 7
REMARK VINA RESULT:      -5.8      2.049      4.922
REMARK  Name = 
REMARK  2 active torsions:
REMARK  status: ('A' for Active; 'I' for Inactive)
REMARK    1  A    between atoms: C_2  and  S_3
REMARK    2  A    between atoms: N_4  and  C_5
REMARK                            x       y       z     vdW  Elec       q    Type
REMARK                         _______ _______ _______ _____ _____    ______ ____
ROOT
ATOM      1  C   UNL     1       2.760   4.584  17.811  0.00  0.00    +0.000 A 
ATOM      2  C   UNL     1       3.179   5.905  18.005  0.00  0.00    +0.000 A 
ATOM      3  C   UNL     1       4.383   6.389  17.476  0.00  0.00    +0.000 A 
ATOM      4  C   UNL     1       5.238   5.505  16.799  0.00  0.00    +0.000 A 
ATOM      5  C   UNL     1       6.509   5.647  16.178  0.00  0.00    +0.000 A 
ATOM      6  C   UNL     1       6.895   4.404  15.735  0.00  0.00    +0.000 A 
ATOM      7  N   UNL     1       5.894   3.517  16.043  0.00  0.00    +0.000 N 
ATOM      8  C   UNL     1       4.857   4.172  16.673  0.00  0.00    +0.000 A 
ATOM      9  C   UNL     1       3.627   3.694  17.150  0.00  0.00    +0.000 A 
ATOM     10  H   UNL     1       5.920   2.525  15.856  0.00  0.00    +0.000 HD
ENDROOT
BRANCH   1  13
ATOM     11  N   UNL     1       0.296   2.998  19.947  0.00  0.00    +0.000 N 
ATOM     12  C   UNL     1       1.485   3.510  19.526  0.00  0.00    +0.000 C 
ATOM     13  N   UNL     1       1.572   4.076  18.364  0.00  0.00    +0.000 NA
ATOM     14  H   UNL     1       0.177   2.975  20.950  0.00  0.00    +0.000 HD
ATOM     15  H   UNL     1      -0.489   3.398  19.447  0.00  0.00    +0.000 HD
BRANCH  12  16
ATOM     16  S   UNL     1       2.740   3.319  20.726  0.00  0.00    +0.000 S 
ATOM     17  H   UNL     1       1.984   2.630  21.592  0.00  0.00    +0.000 HD
ENDBRANCH  12  16
ENDBRANCH   1  13
TORSDOF 2
ENDMDL
MODEL 8
REMARK VINA RESULT:      -5.8      2.423      5.088
REMARK  Name = 
REMARK  2 active torsions:
REMARK  status: ('A' for Active; 'I' for Inactive)
REMARK    1  A    between atoms: C_2  and  S_3
REMARK    2  A    between atoms: N_4  and  C_5
REMARK                            x       y       z     vdW  Elec       q    Type
REMARK                         _______ _______ _______ _____ _____    ______ ____
ROOT
ATOM      1  C   UNL     1       3.016   4.574  18.158  0.00  0.00    +0.000 A 
ATOM      2  C   UNL     1       3.050   5.947  17.891  0.00  0.00    +0.000 A 
ATOM      3  C   UNL     1       4.247   6.623  17.616  0.00  0.00    +0.000 A 
ATOM      4  C   UNL     1       5.461   5.923  17.692  0.00  0.00    +0.000 A 
ATOM      5  C   UNL     1       6.822   6.290  17.507  0.00  0.00    +0.000 A 
ATOM      6  C   UNL     1       7.591   5.185  17.785  0.00  0.00    +0.000 A 
ATOM      7  N   UNL     1       6.745   4.154  18.110  0.00  0.00    +0.000 N 
ATOM      8  C   UNL     1       5.435   4.573  18.034  0.00  0.00    +0.000 A 
ATOM      9  C   UNL     1       4.236   3.878  18.254  0.00  0.00    +0.000 A 
ATOM     10  H   UNL     1       7.039   3.226  18.384  0.00  0.00    +0.000 HD
ENDROOT
BRANCH   1  13
ATOM     11  N   UNL     1       0.269   2.934  19.864  0.00  0.00    +0.000 N 
ATOM     12  C   UNL     1       1.406   3.657  19.670  0.00  0.00    +0.000 C 
ATOM     13  N   UNL     1       1.828   3.890  18.468  0.00  0.00    +0.000 NA
ATOM     14  H   UNL     1      -0.224   3.143  20.721  0.00  0.00    +0.000 HD
ATOM     15  H   UNL     1      -0.321   2.922  19.040  0.00  0.00    +0.000 HD
BRANCH  12  16
ATOM     16  S   UNL     1       2.106   4.190  21.178  0.00  0.00    +0.000 S 
ATOM     17  H   UNL     1       1.041   3.879  21.931  0.00  0.00    +0.000 HD
ENDBRANCH  12  16
ENDBRANCH   1  13
TORSDOF 2
ENDMDL
MODEL 9
REMARK VINA RESULT:      -5.8      2.604      5.212
REMARK  Name = 
REMARK  2 active torsions:
REMARK  status: ('A' for Active; 'I' for Inactive)
REMARK    1  A    between atoms: C_2  and  S_3
REMARK    2  A    between atoms: N_4  and  C_5
REMARK                            x       y       z     vdW  Elec       q    Type
REMARK                         _______ _______ _______ _____ _____    ______ ____
ROOT
ATOM      1  C   UNL     1       3.426   4.542  19.297  0.00  0.00    +0.000 A 
ATOM      2  C   UNL     1       3.070   5.748  18.682  0.00  0.00    +0.000 A 
ATOM      3  C   UNL     1       3.805   6.285  17.616  0.00  0.00    +0.000 A 
ATOM      4  C   UNL     1       4.983   5.643  17.204  0.00  0.00    +0.000 A 
ATOM      5  C   UNL     1       5.958   5.918  16.207  0.00  0.00    +0.000 A 
ATOM      6  C   UNL     1       6.941   4.964  16.313  0.00  0.00    +0.000 A 
ATOM      7  N   UNL     1       6.589   4.106  17.324  0.00  0.00    +0.000 N 
ATOM      8  C   UNL     1       5.381   4.485  17.868  0.00  0.00    +0.000 A 
ATOM      9  C   UNL     1       4.619   3.910  18.897  0.00  0.00    +0.000 A 
ATOM     10  H   UNL     1       7.142   3.321  17.639  0.00  0.00    +0.000 HD
ENDROOT
BRANCH   1  13
ATOM     11  N   UNL     1       1.042   2.805  21.406  0.00  0.00    +0.000 N 
ATOM     12  C   UNL     1       1.695   3.221  20.286  0.00  0.00    +0.000 C 
ATOM     13  N   UNL     1       2.718   4.009  20.388  0.00  0.00    +0.000 NA
ATOM     14  H   UNL     1       0.576   1.913  21.317  0.00  0.00    +0.000 HD
ATOM     15  H   UNL     1       1.617   2.889  22.236  0.00  0.00    +0.000 HD
BRANCH  12  16
ATOM     16  S   UNL     1       0.999   2.543  18.835  0.00  0.00    +0.000 S 
ATOM     17  H   UNL     1       0.395   3.673  18.442  0.00  0.00    +0.000 HD
ENDBRANCH  12  16
ENDBRANCH   1  13
TORSDOF 2
ENDMDL
