MODEL 1
REMARK VINA RESULT:      -8.3      0.000      0.000
REMARK  Name = 
REMARK  7 active torsions:
REMARK  status: ('A' for Active; 'I' for Inactive)
REMARK    1  A    between atoms: C_1  and  C_2
REMARK    2  A    between atoms: C_4  and  S_5
REMARK    3  A    between atoms: S_5  and  N_8
REMARK    4  A    between atoms: N_8  and  C_9
REMARK    5  A    between atoms: C_9  and  C_10
REMARK    6  A    between atoms: C_9  and  C_16
REMARK    7  A    between atoms: C_19  and  C_20
REMARK                            x       y       z     vdW  Elec       q    Type
REMARK                         _______ _______ _______ _____ _____    ______ ____
ROOT
ATOM      1  N   UNL     1       4.198   5.734  19.745  0.00  0.00    +0.000 NA
ATOM      2  H   UNL     1       4.583   6.653  19.953  0.00  0.00    +0.000 HD
ENDROOT
BRANCH   1   3
ATOM      3  S   UNL     1       5.310   4.704  19.100  0.00  0.00    +0.000 S 
ATOM      4  O   UNL     1       4.785   3.351  19.162  0.00  0.00    +0.000 OA
ATOM      5  O   UNL     1       6.572   5.049  19.722  0.00  0.00    +0.000 OA
BRANCH   3   9
ATOM      6  C   UNL     1       6.026   4.060  13.894  0.00  0.00    +0.000 C 
ATOM      7  C   UNL     1       5.850   4.590  15.261  0.00  0.00    +0.000 A 
ATOM      8  C   UNL     1       5.181   4.141  16.377  0.00  0.00    +0.000 A 
ATOM      9  C   UNL     1       5.588   4.988  17.441  0.00  0.00    +0.000 A 
ATOM     10  C   UNL     1       6.348   5.992  16.880  0.00  0.00    +0.000 A 
ATOM     11  C   UNL     1       7.036   7.196  17.385  0.00  0.00    +0.000 C 
ATOM     12  O   UNL     1       6.517   5.743  15.547  0.00  0.00    +0.000 OA
ENDBRANCH   3   9
ENDBRANCH   1   3
BRANCH   1  13
ATOM     13  C   UNL     1       2.767   5.661  19.488  0.00  0.00    +0.000 C 
BRANCH  13  14
ATOM     14  C   UNL     1       2.282   7.084  19.234  0.00  0.00    +0.000 A 
ATOM     15  C   UNL     1       2.473   7.699  17.984  0.00  0.00    +0.000 A 
ATOM     16  C   UNL     1       2.059   9.007  17.777  0.00  0.00    +0.000 A 
ATOM     17  C   UNL     1       1.435   9.662  18.823  0.00  0.00    +0.000 A 
ATOM     18  N   UNL     1       1.218   9.103  20.036  0.00  0.00    +0.000 NA
ATOM     19  C   UNL     1       1.650   7.834  20.218  0.00  0.00    +0.000 A 
ENDBRANCH  13  14
BRANCH  13  20
ATOM     20  C   UNL     1       1.954   5.134  20.647  0.00  0.00    +0.000 C 
ATOM     21  C   UNL     1       1.095   3.917  20.358  0.00  0.00    +0.000 C 
ATOM     22  C   UNL     1       2.155   3.845  21.413  0.00  0.00    +0.000 C 
ENDBRANCH  13  20
ENDBRANCH   1  13
TORSDOF 5
ENDMDL
MODEL 2
REMARK VINA RESULT:      -8.2      0.677      1.072
REMARK  Name = 
REMARK  7 active torsions:
REMARK  status: ('A' for Active; 'I' for Inactive)
REMARK    1  A    between atoms: C_1  and  C_2
REMARK    2  A    between atoms: C_4  and  S_5
REMARK    3  A    between atoms: S_5  and  N_8
REMARK    4  A    between atoms: N_8  and  C_9
REMARK    5  A    between atoms: C_9  and  C_10
REMARK    6  A    between atoms: C_9  and  C_16
REMARK    7  A    between atoms: C_19  and  C_20
REMARK                            x       y       z     vdW  Elec       q    Type
REMARK                         _______ _______ _______ _____ _____    ______ ____
ROOT
ATOM      1  N   UNL     1       4.344   5.736  19.828  0.00  0.00    +0.000 NA
ATOM      2  H   UNL     1       4.690   6.653  20.102  0.00  0.00    +0.000 HD
ENDROOT
BRANCH   1   3
ATOM      3  S   UNL     1       5.520   4.770  19.197  0.00  0.00    +0.000 S 
ATOM      4  O   UNL     1       5.089   3.387  19.293  0.00  0.00    +0.000 OA
ATOM      5  O   UNL     1       6.759   5.215  19.801  0.00  0.00    +0.000 OA
BRANCH   3   9
ATOM      6  C   UNL     1       6.093   4.072  13.980  0.00  0.00    +0.000 C 
ATOM      7  C   UNL     1       5.966   4.616  15.347  0.00  0.00    +0.000 A 
ATOM      8  C   UNL     1       5.309   4.194  16.482  0.00  0.00    +0.000 A 
ATOM      9  C   UNL     1       5.767   5.035  17.530  0.00  0.00    +0.000 A 
ATOM     10  C   UNL     1       6.544   6.012  16.944  0.00  0.00    +0.000 A 
ATOM     11  C   UNL     1       7.280   7.197  17.425  0.00  0.00    +0.000 C 
ATOM     12  O   UNL     1       6.674   5.749  15.610  0.00  0.00    +0.000 OA
ENDBRANCH   3   9
ENDBRANCH   1   3
BRANCH   1  13
ATOM     13  C   UNL     1       2.933   5.638  19.488  0.00  0.00    +0.000 C 
BRANCH  13  14
ATOM     14  C   UNL     1       2.458   7.041  19.124  0.00  0.00    +0.000 A 
ATOM     15  C   UNL     1       1.742   7.822  20.047  0.00  0.00    +0.000 A 
ATOM     16  C   UNL     1       1.284   9.082  19.693  0.00  0.00    +0.000 A 
ATOM     17  C   UNL     1       1.580   9.544  18.423  0.00  0.00    +0.000 A 
ATOM     18  N   UNL     1       2.280   8.833  17.509  0.00  0.00    +0.000 NA
ATOM     19  C   UNL     1       2.696   7.598  17.875  0.00  0.00    +0.000 A 
ENDBRANCH  13  14
BRANCH  13  20
ATOM     20  C   UNL     1       2.052   5.170  20.622  0.00  0.00    +0.000 C 
ATOM     21  C   UNL     1       1.081   4.051  20.293  0.00  0.00    +0.000 C 
ATOM     22  C   UNL     1       2.110   3.853  21.362  0.00  0.00    +0.000 C 
ENDBRANCH  13  20
ENDBRANCH   1  13
TORSDOF 5
ENDMDL
MODEL 3
REMARK VINA RESULT:      -7.8      1.102      1.562
REMARK  Name = 
REMARK  7 active torsions:
REMARK  status: ('A' for Active; 'I' for Inactive)
REMARK    1  A    between atoms: C_1  and  C_2
REMARK    2  A    between atoms: C_4  and  S_5
REMARK    3  A    between atoms: S_5  and  N_8
REMARK    4  A    between atoms: N_8  and  C_9
REMARK    5  A    between atoms: C_9  and  C_10
REMARK    6  A    between atoms: C_9  and  C_16
REMARK    7  A    between atoms: C_19  and  C_20
REMARK                            x       y       z     vdW  Elec       q    Type
REMARK                         _______ _______ _______ _____ _____    ______ ____
ROOT
ATOM      1  N   UNL     1       4.102   5.508  19.372  0.00  0.00    +0.000 NA
ATOM      2  H   UNL     1       4.158   6.089  20.205  0.00  0.00    +0.000 HD
ENDROOT
BRANCH   1   3
ATOM      3  S   UNL     1       5.537   4.793  18.992  0.00  0.00    +0.000 S 
ATOM      4  O   UNL     1       5.368   3.351  19.042  0.00  0.00    +0.000 OA
ATOM      5  O   UNL     1       6.535   5.460  19.803  0.00  0.00    +0.000 OA
BRANCH   3   9
ATOM      6  C   UNL     1       6.857   4.293  13.889  0.00  0.00    +0.000 C 
ATOM      7  C   UNL     1       6.543   4.784  15.246  0.00  0.00    +0.000 A 
ATOM      8  C   UNL     1       5.716   4.336  16.252  0.00  0.00    +0.000 A 
ATOM      9  C   UNL     1       6.034   5.119  17.393  0.00  0.00    +0.000 A 
ATOM     10  C   UNL     1       6.912   6.095  16.972  0.00  0.00    +0.000 A 
ATOM     11  C   UNL     1       7.596   7.237  17.608  0.00  0.00    +0.000 C 
ATOM     12  O   UNL     1       7.231   5.884  15.660  0.00  0.00    +0.000 OA
ENDBRANCH   3   9
ENDBRANCH   1   3
BRANCH   1  13
ATOM     13  C   UNL     1       3.073   5.845  18.400  0.00  0.00    +0.000 C 
BRANCH  13  14
ATOM     14  C   UNL     1       2.418   7.141  18.869  0.00  0.00    +0.000 A 
ATOM     15  C   UNL     1       1.974   7.285  20.195  0.00  0.00    +0.000 A 
ATOM     16  C   UNL     1       1.347   8.455  20.600  0.00  0.00    +0.000 A 
ATOM     17  C   UNL     1       1.204   9.468  19.669  0.00  0.00    +0.000 A 
ATOM     18  N   UNL     1       1.630   9.376  18.388  0.00  0.00    +0.000 NA
ATOM     19  C   UNL     1       2.219   8.217  18.014  0.00  0.00    +0.000 A 
ENDBRANCH  13  14
BRANCH  13  20
ATOM     20  C   UNL     1       1.966   4.824  18.289  0.00  0.00    +0.000 C 
ATOM     21  C   UNL     1       2.246   3.634  17.391  0.00  0.00    +0.000 C 
ATOM     22  C   UNL     1       1.941   3.416  18.840  0.00  0.00    +0.000 C 
ENDBRANCH  13  20
ENDBRANCH   1  13
TORSDOF 5
ENDMDL
MODEL 4
REMARK VINA RESULT:      -7.8      0.951      1.514
REMARK  Name = 
REMARK  7 active torsions:
REMARK  status: ('A' for Active; 'I' for Inactive)
REMARK    1  A    between atoms: C_1  and  C_2
REMARK    2  A    between atoms: C_4  and  S_5
REMARK    3  A    between atoms: S_5  and  N_8
REMARK    4  A    between atoms: N_8  and  C_9
REMARK    5  A    between atoms: C_9  and  C_10
REMARK    6  A    between atoms: C_9  and  C_16
REMARK    7  A    between atoms: C_19  and  C_20
REMARK                            x       y       z     vdW  Elec       q    Type
REMARK                         _______ _______ _______ _____ _____    ______ ____
ROOT
ATOM      1  N   UNL     1       4.301   5.599  19.857  0.00  0.00    +0.000 NA
ATOM      2  H   UNL     1       4.690   6.536  19.932  0.00  0.00    +0.000 HD
ENDROOT
BRANCH   1   3
ATOM      3  S   UNL     1       5.417   4.475  19.404  0.00  0.00    +0.000 S 
ATOM      4  O   UNL     1       4.999   3.176  19.901  0.00  0.00    +0.000 OA
ATOM      5  O   UNL     1       6.705   5.036  19.759  0.00  0.00    +0.000 OA
BRANCH   3   9
ATOM      6  C   UNL     1       6.818   4.938  14.319  0.00  0.00    +0.000 C 
ATOM      7  C   UNL     1       6.209   4.552  15.608  0.00  0.00    +0.000 A 
ATOM      8  C   UNL     1       6.653   4.562  16.912  0.00  0.00    +0.000 A 
ATOM      9  C   UNL     1       5.514   4.285  17.712  0.00  0.00    +0.000 A 
ATOM     10  C   UNL     1       4.489   3.965  16.846  0.00  0.00    +0.000 A 
ATOM     11  C   UNL     1       3.082   3.547  16.993  0.00  0.00    +0.000 C 
ATOM     12  O   UNL     1       4.912   4.138  15.559  0.00  0.00    +0.000 OA
ENDBRANCH   3   9
ENDBRANCH   1   3
BRANCH   1  13
ATOM     13  C   UNL     1       2.876   5.497  19.577  0.00  0.00    +0.000 C 
BRANCH  13  14
ATOM     14  C   UNL     1       2.377   6.904  19.265  0.00  0.00    +0.000 A 
ATOM     15  C   UNL     1       2.561   7.468  17.990  0.00  0.00    +0.000 A 
ATOM     16  C   UNL     1       2.135   8.762  17.729  0.00  0.00    +0.000 A 
ATOM     17  C   UNL     1       1.505   9.454  18.748  0.00  0.00    +0.000 A 
ATOM     18  N   UNL     1       1.293   8.944  19.983  0.00  0.00    +0.000 NA
ATOM     19  C   UNL     1       1.738   7.688  20.217  0.00  0.00    +0.000 A 
ENDBRANCH  13  14
BRANCH  13  20
ATOM     20  C   UNL     1       2.050   5.000  20.739  0.00  0.00    +0.000 C 
ATOM     21  C   UNL     1       1.111   3.846  20.442  0.00  0.00    +0.000 C 
ATOM     22  C   UNL     1       2.180   3.687  21.478  0.00  0.00    +0.000 C 
ENDBRANCH  13  20
ENDBRANCH   1  13
TORSDOF 5
ENDMDL
MODEL 5
REMARK VINA RESULT:      -7.6      1.127      1.835
REMARK  Name = 
REMARK  7 active torsions:
REMARK  status: ('A' for Active; 'I' for Inactive)
REMARK    1  A    between atoms: C_1  and  C_2
REMARK    2  A    between atoms: C_4  and  S_5
REMARK    3  A    between atoms: S_5  and  N_8
REMARK    4  A    between atoms: N_8  and  C_9
REMARK    5  A    between atoms: C_9  and  C_10
REMARK    6  A    between atoms: C_9  and  C_16
REMARK    7  A    between atoms: C_19  and  C_20
REMARK                            x       y       z     vdW  Elec       q    Type
REMARK                         _______ _______ _______ _____ _____    ______ ____
ROOT
ATOM      1  N   UNL     1       4.311   5.718  19.749  0.00  0.00    +0.000 NA
ATOM      2  H   UNL     1       4.722   6.647  19.791  0.00  0.00    +0.000 HD
ENDROOT
BRANCH   1   3
ATOM      3  S   UNL     1       5.402   4.551  19.347  0.00  0.00    +0.000 S 
ATOM      4  O   UNL     1       4.931   3.275  19.857  0.00  0.00    +0.000 OA
ATOM      5  O   UNL     1       6.697   5.079  19.724  0.00  0.00    +0.000 OA
BRANCH   3   9
ATOM      6  C   UNL     1       6.892   4.926  14.280  0.00  0.00    +0.000 C 
ATOM      7  C   UNL     1       6.265   4.557  15.566  0.00  0.00    +0.000 A 
ATOM      8  C   UNL     1       6.683   4.606  16.877  0.00  0.00    +0.000 A 
ATOM      9  C   UNL     1       5.535   4.324  17.662  0.00  0.00    +0.000 A 
ATOM     10  C   UNL     1       4.533   3.965  16.783  0.00  0.00    +0.000 A 
ATOM     11  C   UNL     1       3.131   3.523  16.914  0.00  0.00    +0.000 C 
ATOM     12  O   UNL     1       4.978   4.117  15.501  0.00  0.00    +0.000 OA
ENDBRANCH   3   9
ENDBRANCH   1   3
BRANCH   1  13
ATOM     13  C   UNL     1       2.885   5.639  19.465  0.00  0.00    +0.000 C 
BRANCH  13  14
ATOM     14  C   UNL     1       2.418   7.047  19.111  0.00  0.00    +0.000 A 
ATOM     15  C   UNL     1       1.735   7.837  20.052  0.00  0.00    +0.000 A 
ATOM     16  C   UNL     1       1.283   9.103  19.708  0.00  0.00    +0.000 A 
ATOM     17  C   UNL     1       1.552   9.560  18.430  0.00  0.00    +0.000 A 
ATOM     18  N   UNL     1       2.219   8.839  17.499  0.00  0.00    +0.000 NA
ATOM     19  C   UNL     1       2.630   7.600  17.856  0.00  0.00    +0.000 A 
ENDBRANCH  13  14
BRANCH  13  20
ATOM     20  C   UNL     1       2.043   5.191  20.636  0.00  0.00    +0.000 C 
ATOM     21  C   UNL     1       1.044   4.085  20.353  0.00  0.00    +0.000 C 
ATOM     22  C   UNL     1       2.111   3.878  21.382  0.00  0.00    +0.000 C 
ENDBRANCH  13  20
ENDBRANCH   1  13
TORSDOF 5
ENDMDL
MODEL 6
REMARK VINA RESULT:      -7.6      1.042      1.442
REMARK  Name = 
REMARK  7 active torsions:
REMARK  status: ('A' for Active; 'I' for Inactive)
REMARK    1  A    between atoms: C_1  and  C_2
REMARK    2  A    between atoms: C_4  and  S_5
REMARK    3  A    between atoms: S_5  and  N_8
REMARK    4  A    between atoms: N_8  and  C_9
REMARK    5  A    between atoms: C_9  and  C_10
REMARK    6  A    between atoms: C_9  and  C_16
REMARK    7  A    between atoms: C_19  and  C_20
REMARK                            x       y       z     vdW  Elec       q    Type
REMARK                         _______ _______ _______ _____ _____    ______ ____
ROOT
ATOM      1  N   UNL     1       3.842   5.255  19.408  0.00  0.00    +0.000 NA
ATOM      2  H   UNL     1       4.367   6.126  19.446  0.00  0.00    +0.000 HD
ENDROOT
BRANCH   1   3
ATOM      3  S   UNL     1       4.622   4.072  18.568  0.00  0.00    +0.000 S 
ATOM      4  O   UNL     1       3.636   3.270  17.866  0.00  0.00    +0.000 OA
ATOM      5  O   UNL     1       5.549   3.471  19.505  0.00  0.00    +0.000 OA
BRANCH   3   9
ATOM      6  C   UNL     1       7.146   4.830  13.975  0.00  0.00    +0.000 C 
ATOM      7  C   UNL     1       6.616   4.921  15.351  0.00  0.00    +0.000 A 
ATOM      8  C   UNL     1       5.439   4.524  15.946  0.00  0.00    +0.000 A 
ATOM      9  C   UNL     1       5.633   4.691  17.342  0.00  0.00    +0.000 A 
ATOM     10  C   UNL     1       6.847   5.326  17.499  0.00  0.00    +0.000 A 
ATOM     11  C   UNL     1       7.630   5.826  18.646  0.00  0.00    +0.000 C 
ATOM     12  O   UNL     1       7.453   5.458  16.282  0.00  0.00    +0.000 OA
ENDBRANCH   3   9
ENDBRANCH   1   3
BRANCH   1  13
ATOM     13  C   UNL     1       2.395   5.350  19.536  0.00  0.00    +0.000 C 
BRANCH  13  14
ATOM     14  C   UNL     1       2.041   6.834  19.550  0.00  0.00    +0.000 A 
ATOM     15  C   UNL     1       1.464   7.427  20.686  0.00  0.00    +0.000 A 
ATOM     16  C   UNL     1       1.113   8.769  20.674  0.00  0.00    +0.000 A 
ATOM     17  C   UNL     1       1.376   9.496  19.527  0.00  0.00    +0.000 A 
ATOM     18  N   UNL     1       1.944   8.969  18.418  0.00  0.00    +0.000 NA
ATOM     19  C   UNL     1       2.257   7.653  18.450  0.00  0.00    +0.000 A 
ENDBRANCH  13  14
BRANCH  13  20
ATOM     20  C   UNL     1       1.846   4.769  20.818  0.00  0.00    +0.000 C 
ATOM     21  C   UNL     1       1.027   3.500  20.675  0.00  0.00    +0.000 C 
ATOM     22  C   UNL     1       2.266   3.495  21.515  0.00  0.00    +0.000 C 
ENDBRANCH  13  20
ENDBRANCH   1  13
TORSDOF 5
ENDMDL
MODEL 7
REMARK VINA RESULT:      -7.5      0.960      2.083
REMARK  Name = 
REMARK  7 active torsions:
REMARK  status: ('A' for Active; 'I' for Inactive)
REMARK    1  A    between atoms: C_1  and  C_2
REMARK    2  A    between atoms: C_4  and  S_5
REMARK    3  A    between atoms: S_5  and  N_8
REMARK    4  A    between atoms: N_8  and  C_9
REMARK    5  A    between atoms: C_9  and  C_10
REMARK    6  A    between atoms: C_9  and  C_16
REMARK    7  A    between atoms: C_19  and  C_20
REMARK                            x       y       z     vdW  Elec       q    Type
REMARK                         _______ _______ _______ _____ _____    ______ ____
ROOT
ATOM      1  N   UNL     1       3.942   4.986  19.572  0.00  0.00    +0.000 NA
ATOM      2  H   UNL     1       4.431   5.717  20.084  0.00  0.00    +0.000 HD
ENDROOT
BRANCH   1   3
ATOM      3  S   UNL     1       4.892   4.242  18.451  0.00  0.00    +0.000 S 
ATOM      4  O   UNL     1       4.082   3.929  17.287  0.00  0.00    +0.000 OA
ATOM      5  O   UNL     1       5.608   3.207  19.169  0.00  0.00    +0.000 OA
BRANCH   3   9
ATOM      6  C   UNL     1       8.102   8.367  17.606  0.00  0.00    +0.000 C 
ATOM      7  C   UNL     1       7.430   7.051  17.610  0.00  0.00    +0.000 A 
ATOM      8  C   UNL     1       6.691   6.363  18.547  0.00  0.00    +0.000 A 
ATOM      9  C   UNL     1       6.131   5.254  17.861  0.00  0.00    +0.000 A 
ATOM     10  C   UNL     1       6.690   5.245  16.600  0.00  0.00    +0.000 A 
ATOM     11  C   UNL     1       6.589   4.373  15.413  0.00  0.00    +0.000 C 
ATOM     12  O   UNL     1       7.477   6.350  16.443  0.00  0.00    +0.000 OA
ENDBRANCH   3   9
ENDBRANCH   1   3
BRANCH   1  13
ATOM     13  C   UNL     1       2.495   5.109  19.469  0.00  0.00    +0.000 C 
BRANCH  13  14
ATOM     14  C   UNL     1       2.180   6.591  19.294  0.00  0.00    +0.000 A 
ATOM     15  C   UNL     1       2.414   7.239  18.069  0.00  0.00    +0.000 A 
ATOM     16  C   UNL     1       2.157   8.596  17.934  0.00  0.00    +0.000 A 
ATOM     17  C   UNL     1       1.643   9.269  19.027  0.00  0.00    +0.000 A 
ATOM     18  N   UNL     1       1.388   8.681  20.219  0.00  0.00    +0.000 NA
ATOM     19  C   UNL     1       1.667   7.362  20.330  0.00  0.00    +0.000 A 
ENDBRANCH  13  14
BRANCH  13  20
ATOM     20  C   UNL     1       1.744   4.655  20.698  0.00  0.00    +0.000 C 
ATOM     21  C   UNL     1       1.023   3.325  20.583  0.00  0.00    +0.000 C 
ATOM     22  C   UNL     1       2.083   3.509  21.624  0.00  0.00    +0.000 C 
ENDBRANCH  13  20
ENDBRANCH   1  13
TORSDOF 5
ENDMDL
MODEL 8
REMARK VINA RESULT:      -7.4      1.288      3.437
REMARK  Name = 
REMARK  7 active torsions:
REMARK  status: ('A' for Active; 'I' for Inactive)
REMARK    1  A    between atoms: C_1  and  C_2
REMARK    2  A    between atoms: C_4  and  S_5
REMARK    3  A    between atoms: S_5  and  N_8
REMARK    4  A    between atoms: N_8  and  C_9
REMARK    5  A    between atoms: C_9  and  C_10
REMARK    6  A    between atoms: C_9  and  C_16
REMARK    7  A    between atoms: C_19  and  C_20
REMARK                            x       y       z     vdW  Elec       q    Type
REMARK                         _______ _______ _______ _____ _____    ______ ____
ROOT
ATOM      1  N   UNL     1       4.275   5.853  19.865  0.00  0.00    +0.000 NA
ATOM      2  H   UNL     1       4.780   6.596  20.343  0.00  0.00    +0.000 HD
ENDROOT
BRANCH   1   3
ATOM      3  S   UNL     1       5.273   4.747  19.163  0.00  0.00    +0.000 S 
ATOM      4  O   UNL     1       4.635   3.444  19.214  0.00  0.00    +0.000 OA
ATOM      5  O   UNL     1       6.579   4.968  19.751  0.00  0.00    +0.000 OA
BRANCH   3   9
ATOM      6  C   UNL     1       5.782   4.166  13.925  0.00  0.00    +0.000 C 
ATOM      7  C   UNL     1       5.690   4.677  15.307  0.00  0.00    +0.000 A 
ATOM      8  C   UNL     1       5.020   4.258  16.435  0.00  0.00    +0.000 A 
ATOM      9  C   UNL     1       5.524   5.045  17.502  0.00  0.00    +0.000 A 
ATOM     10  C   UNL     1       6.345   5.999  16.938  0.00  0.00    +0.000 A 
ATOM     11  C   UNL     1       7.141   7.133  17.445  0.00  0.00    +0.000 C 
ATOM     12  O   UNL     1       6.454   5.767  15.596  0.00  0.00    +0.000 OA
ENDBRANCH   3   9
ENDBRANCH   1   3
BRANCH   1  13
ATOM     13  C   UNL     1       2.936   6.167  19.389  0.00  0.00    +0.000 C 
BRANCH  13  14
ATOM     14  C   UNL     1       2.168   4.852  19.307  0.00  0.00    +0.000 A 
ATOM     15  C   UNL     1       1.806   4.154  20.472  0.00  0.00    +0.000 A 
ATOM     16  C   UNL     1       1.139   2.941  20.383  0.00  0.00    +0.000 A 
ATOM     17  C   UNL     1       0.824   2.466  19.123  0.00  0.00    +0.000 A 
ATOM     18  N   UNL     1       1.139   3.113  17.977  0.00  0.00    +0.000 NA
ATOM     19  C   UNL     1       1.808   4.284  18.092  0.00  0.00    +0.000 A 
ENDBRANCH  13  14
BRANCH  13  20
ATOM     20  C   UNL     1       2.894   6.772  18.006  0.00  0.00    +0.000 C 
ATOM     21  C   UNL     1       2.062   8.031  17.855  0.00  0.00    +0.000 C 
ATOM     22  C   UNL     1       3.525   8.064  17.538  0.00  0.00    +0.000 C 
ENDBRANCH  13  20
ENDBRANCH   1  13
TORSDOF 5
ENDMDL
MODEL 9
REMARK VINA RESULT:      -7.4      1.088      2.332
REMARK  Name = 
REMARK  7 active torsions:
REMARK  status: ('A' for Active; 'I' for Inactive)
REMARK    1  A    between atoms: C_1  and  C_2
REMARK    2  A    between atoms: C_4  and  S_5
REMARK    3  A    between atoms: S_5  and  N_8
REMARK    4  A    between atoms: N_8  and  C_9
REMARK    5  A    between atoms: C_9  and  C_10
REMARK    6  A    between atoms: C_9  and  C_16
REMARK    7  A    between atoms: C_19  and  C_20
REMARK                            x       y       z     vdW  Elec       q    Type
REMARK                         _______ _______ _______ _____ _____    ______ ____
ROOT
ATOM      1  N   UNL     1       3.890   5.136  19.676  0.00  0.00    +0.000 NA
ATOM      2  H   UNL     1       4.380   5.917  20.106  0.00  0.00    +0.000 HD
ENDROOT
BRANCH   1   3
ATOM      3  S   UNL     1       4.816   4.321  18.584  0.00  0.00    +0.000 S 
ATOM      4  O   UNL     1       3.994   3.981  17.436  0.00  0.00    +0.000 OA
ATOM      5  O   UNL     1       5.508   3.299  19.342  0.00  0.00    +0.000 OA
BRANCH   3   9
ATOM      6  C   UNL     1       8.126   8.323  17.554  0.00  0.00    +0.000 C 
ATOM      7  C   UNL     1       7.421   7.027  17.617  0.00  0.00    +0.000 A 
ATOM      8  C   UNL     1       6.668   6.398  18.584  0.00  0.00    +0.000 A 
ATOM      9  C   UNL     1       6.078   5.275  17.948  0.00  0.00    +0.000 A 
ATOM     10  C   UNL     1       6.633   5.197  16.687  0.00  0.00    +0.000 A 
ATOM     11  C   UNL     1       6.508   4.277  15.540  0.00  0.00    +0.000 C 
ATOM     12  O   UNL     1       7.447   6.274  16.482  0.00  0.00    +0.000 OA
ENDBRANCH   3   9
ENDBRANCH   1   3
BRANCH   1  13
ATOM     13  C   UNL     1       2.438   5.220  19.618  0.00  0.00    +0.000 C 
BRANCH  13  14
ATOM     14  C   UNL     1       2.072   6.700  19.602  0.00  0.00    +0.000 A 
ATOM     15  C   UNL     1       1.486   7.310  20.725  0.00  0.00    +0.000 A 
ATOM     16  C   UNL     1       1.125   8.649  20.686  0.00  0.00    +0.000 A 
ATOM     17  C   UNL     1       1.386   9.356  19.526  0.00  0.00    +0.000 A 
ATOM     18  N   UNL     1       1.962   8.813  18.429  0.00  0.00    +0.000 NA
ATOM     19  C   UNL     1       2.285   7.500  18.487  0.00  0.00    +0.000 A 
ENDBRANCH  13  14
BRANCH  13  20
ATOM     20  C   UNL     1       1.733   4.619  20.812  0.00  0.00    +0.000 C 
ATOM     21  C   UNL     1       1.054   3.283  20.581  0.00  0.00    +0.000 C 
ATOM     22  C   UNL     1       2.134   3.400  21.611  0.00  0.00    +0.000 C 
ENDBRANCH  13  20
ENDBRANCH   1  13
TORSDOF 5
ENDMDL
