MODEL 1
REMARK VINA RESULT:      -9.0      0.000      0.000
REMARK  Name = 
REMARK  5 active torsions:
REMARK  status: ('A' for Active; 'I' for Inactive)
REMARK    1  A    between atoms: N_3  and  C_4
REMARK    2  A    between atoms: C_7  and  C_8
REMARK    3  A    between atoms: N_14  and  C_15
REMARK    4  A    between atoms: C_18  and  O_19
REMARK    5  A    between atoms: O_19  and  C_20
REMARK                            x       y       z     vdW  Elec       q    Type
REMARK                         _______ _______ _______ _____ _____    ______ ____
ROOT
ATOM      1  O   UNL     1       7.555   8.953  17.183  0.00  0.00    +0.000 OA
ATOM      2  C   UNL     1       8.086   8.311  18.083  0.00  0.00    +0.000 C 
ATOM      3  N   UNL     1       8.946   8.814  19.034  0.00  0.00    +0.000 N 
ATOM      4  N   UNL     1       7.893   6.955  18.207  0.00  0.00    +0.000 N 
ATOM      5  H   UNL     1       9.552   8.140  19.476  0.00  0.00    +0.000 HD
ATOM      6  H   UNL     1       7.951   6.580  19.142  0.00  0.00    +0.000 HD
ENDROOT
BRANCH   3   7
ATOM      7  C   UNL     1       9.271  10.181  19.183  0.00  0.00    +0.000 A 
ATOM      8  C   UNL     1       9.606  10.994  18.097  0.00  0.00    +0.000 A 
ATOM      9  C   UNL     1       9.968  12.330  18.278  0.00  0.00    +0.000 A 
ATOM     10  C   UNL     1       9.983  12.893  19.557  0.00  0.00    +0.000 A 
ATOM     11  C   UNL     1       9.616  12.089  20.649  0.00  0.00    +0.000 A 
ATOM     12  C   UNL     1       9.255  10.746  20.462  0.00  0.00    +0.000 A 
BRANCH  10  13
ATOM     13  C   UNL     1      10.381  14.335  19.752  0.00  0.00    +0.000 C 
ATOM     14  F   UNL     1       9.337  15.149  20.078  0.00  0.00    +0.000 F 
ATOM     15  F   UNL     1      11.298  14.491  20.746  0.00  0.00    +0.000 F 
ATOM     16  F   UNL     1      10.940  14.879  18.636  0.00  0.00    +0.000 F 
ENDBRANCH  10  13
ENDBRANCH   3   7
BRANCH   4  17
ATOM     17  C   UNL     1       6.985   6.295  17.276  0.00  0.00    +0.000 C 
ATOM     18  C   UNL     1       7.440   4.866  16.984  0.00  0.00    +0.000 C 
ATOM     19  C   UNL     1       6.498   4.202  15.978  0.00  0.00    +0.000 C 
ATOM     20  C   UNL     1       5.045   4.204  16.469  0.00  0.00    +0.000 C 
ATOM     21  C   UNL     1       4.590   5.630  16.804  0.00  0.00    +0.000 C 
ATOM     22  C   UNL     1       5.534   6.337  17.776  0.00  0.00    +0.000 C 
BRANCH  20  23
ATOM     23  O   UNL     1       4.928   3.412  17.661  0.00  0.00    +0.000 OA
BRANCH  23  24
ATOM     24  C   UNL     1       3.702   3.328  18.262  0.00  0.00    +0.000 A 
ATOM     25  C   UNL     1       3.709   3.455  19.656  0.00  0.00    +0.000 A 
ATOM     26  C   UNL     1       2.515   3.393  20.379  0.00  0.00    +0.000 A 
ATOM     27  C   UNL     1       1.316   3.218  19.700  0.00  0.00    +0.000 A 
ATOM     28  F   UNL     1       0.167   3.157  20.386  0.00  0.00    +0.000 F 
ATOM     29  C   UNL     1       1.290   3.115  18.317  0.00  0.00    +0.000 A 
ATOM     30  C   UNL     1       2.484   3.176  17.595  0.00  0.00    +0.000 A 
ENDBRANCH  23  24
ENDBRANCH  20  23
ENDBRANCH   4  17
TORSDOF 5
ENDMDL
MODEL 2
REMARK VINA RESULT:      -9.0      0.166      1.147
REMARK  Name = 
REMARK  5 active torsions:
REMARK  status: ('A' for Active; 'I' for Inactive)
REMARK    1  A    between atoms: N_3  and  C_4
REMARK    2  A    between atoms: C_7  and  C_8
REMARK    3  A    between atoms: N_14  and  C_15
REMARK    4  A    between atoms: C_18  and  O_19
REMARK    5  A    between atoms: O_19  and  C_20
REMARK                            x       y       z     vdW  Elec       q    Type
REMARK                         _______ _______ _______ _____ _____    ______ ____
ROOT
ATOM      1  O   UNL     1       7.495   8.988  17.218  0.00  0.00    +0.000 OA
ATOM      2  C   UNL     1       8.045   8.313  18.081  0.00  0.00    +0.000 C 
ATOM      3  N   UNL     1       8.942   8.775  19.018  0.00  0.00    +0.000 N 
ATOM      4  N   UNL     1       7.837   6.956  18.171  0.00  0.00    +0.000 N 
ATOM      5  H   UNL     1       9.553   8.080  19.420  0.00  0.00    +0.000 HD
ATOM      6  H   UNL     1       7.919   6.553  19.093  0.00  0.00    +0.000 HD
ENDROOT
BRANCH   3   7
ATOM      7  C   UNL     1       9.292  10.133  19.196  0.00  0.00    +0.000 A 
ATOM      8  C   UNL     1       9.270  10.754  20.447  0.00  0.00    +0.000 A 
ATOM      9  C   UNL     1       9.575  12.109  20.587  0.00  0.00    +0.000 A 
ATOM     10  C   UNL     1       9.932  12.874  19.473  0.00  0.00    +0.000 A 
ATOM     11  C   UNL     1       9.986  12.247  18.218  0.00  0.00    +0.000 A 
ATOM     12  C   UNL     1       9.677  10.885  18.081  0.00  0.00    +0.000 A 
BRANCH  10  13
ATOM     13  C   UNL     1      10.254  14.339  19.625  0.00  0.00    +0.000 C 
ATOM     14  F   UNL     1      10.625  14.941  18.459  0.00  0.00    +0.000 F 
ATOM     15  F   UNL     1       9.197  15.059  20.092  0.00  0.00    +0.000 F 
ATOM     16  F   UNL     1      11.275  14.563  20.498  0.00  0.00    +0.000 F 
ENDBRANCH  10  13
ENDBRANCH   3   7
BRANCH   4  17
ATOM     17  C   UNL     1       6.889   6.336  17.252  0.00  0.00    +0.000 C 
ATOM     18  C   UNL     1       7.354   4.939  16.842  0.00  0.00    +0.000 C 
ATOM     19  C   UNL     1       6.369   4.320  15.850  0.00  0.00    +0.000 C 
ATOM     20  C   UNL     1       4.946   4.258  16.421  0.00  0.00    +0.000 C 
ATOM     21  C   UNL     1       4.484   5.648  16.873  0.00  0.00    +0.000 C 
ATOM     22  C   UNL     1       5.469   6.314  17.834  0.00  0.00    +0.000 C 
BRANCH  20  23
ATOM     23  O   UNL     1       4.913   3.389  17.564  0.00  0.00    +0.000 OA
BRANCH  23  24
ATOM     24  C   UNL     1       3.728   3.249  18.233  0.00  0.00    +0.000 A 
ATOM     25  C   UNL     1       3.799   3.435  19.619  0.00  0.00    +0.000 A 
ATOM     26  C   UNL     1       2.651   3.325  20.408  0.00  0.00    +0.000 A 
ATOM     27  C   UNL     1       1.434   3.043  19.803  0.00  0.00    +0.000 A 
ATOM     28  F   UNL     1       0.329   2.934  20.553  0.00  0.00    +0.000 F 
ATOM     29  C   UNL     1       1.343   2.880  18.428  0.00  0.00    +0.000 A 
ATOM     30  C   UNL     1       2.491   2.990  17.640  0.00  0.00    +0.000 A 
ENDBRANCH  23  24
ENDBRANCH  20  23
ENDBRANCH   4  17
TORSDOF 5
ENDMDL
MODEL 3
REMARK VINA RESULT:      -9.0      0.358      1.041
REMARK  Name = 
REMARK  5 active torsions:
REMARK  status: ('A' for Active; 'I' for Inactive)
REMARK    1  A    between atoms: N_3  and  C_4
REMARK    2  A    between atoms: C_7  and  C_8
REMARK    3  A    between atoms: N_14  and  C_15
REMARK    4  A    between atoms: C_18  and  O_19
REMARK    5  A    between atoms: O_19  and  C_20
REMARK                            x       y       z     vdW  Elec       q    Type
REMARK                         _______ _______ _______ _____ _____    ______ ____
ROOT
ATOM      1  O   UNL     1       7.522   9.003  17.243  0.00  0.00    +0.000 OA
ATOM      2  C   UNL     1       8.087   8.341  18.106  0.00  0.00    +0.000 C 
ATOM      3  N   UNL     1       8.990   8.821  19.028  0.00  0.00    +0.000 N 
ATOM      4  N   UNL     1       7.892   6.984  18.212  0.00  0.00    +0.000 N 
ATOM      5  H   UNL     1       9.612   8.135  19.431  0.00  0.00    +0.000 HD
ATOM      6  H   UNL     1       7.988   6.591  19.137  0.00  0.00    +0.000 HD
ENDROOT
BRANCH   3   7
ATOM      7  C   UNL     1       9.330  10.184  19.189  0.00  0.00    +0.000 A 
ATOM      8  C   UNL     1       9.674  11.002  18.110  0.00  0.00    +0.000 A 
ATOM      9  C   UNL     1      10.050  12.332  18.303  0.00  0.00    +0.000 A 
ATOM     10  C   UNL     1      10.071  12.884  19.587  0.00  0.00    +0.000 A 
ATOM     11  C   UNL     1       9.694  12.075  20.671  0.00  0.00    +0.000 A 
ATOM     12  C   UNL     1       9.318  10.737  20.473  0.00  0.00    +0.000 A 
BRANCH  10  13
ATOM     13  C   UNL     1      10.484  14.320  19.794  0.00  0.00    +0.000 C 
ATOM     14  F   UNL     1      10.205  15.126  18.729  0.00  0.00    +0.000 F 
ATOM     15  F   UNL     1       9.862  14.891  20.862  0.00  0.00    +0.000 F 
ATOM     16  F   UNL     1      11.819  14.454  20.020  0.00  0.00    +0.000 F 
ENDBRANCH  10  13
ENDBRANCH   3   7
BRANCH   4  17
ATOM     17  C   UNL     1       6.940   6.347  17.310  0.00  0.00    +0.000 C 
ATOM     18  C   UNL     1       7.379   4.924  16.963  0.00  0.00    +0.000 C 
ATOM     19  C   UNL     1       6.390   4.286  15.986  0.00  0.00    +0.000 C 
ATOM     20  C   UNL     1       4.961   4.276  16.545  0.00  0.00    +0.000 C 
ATOM     21  C   UNL     1       4.525   5.694  16.934  0.00  0.00    +0.000 C 
ATOM     22  C   UNL     1       5.514   6.378  17.877  0.00  0.00    +0.000 C 
BRANCH  20  23
ATOM     23  O   UNL     1       4.899   3.457  17.722  0.00  0.00    +0.000 OA
BRANCH  23  24
ATOM     24  C   UNL     1       3.716   3.404  18.408  0.00  0.00    +0.000 A 
ATOM     25  C   UNL     1       2.670   2.749  17.746  0.00  0.00    +0.000 A 
ATOM     26  C   UNL     1       1.417   2.625  18.351  0.00  0.00    +0.000 A 
ATOM     27  C   UNL     1       1.220   3.148  19.622  0.00  0.00    +0.000 A 
ATOM     28  F   UNL     1       0.020   3.035  20.208  0.00  0.00    +0.000 F 
ATOM     29  C   UNL     1       2.253   3.778  20.301  0.00  0.00    +0.000 A 
ATOM     30  C   UNL     1       3.505   3.901  19.696  0.00  0.00    +0.000 A 
ENDBRANCH  23  24
ENDBRANCH  20  23
ENDBRANCH   4  17
TORSDOF 5
ENDMDL
MODEL 4
REMARK VINA RESULT:      -8.6      0.741      1.232
REMARK  Name = 
REMARK  5 active torsions:
REMARK  status: ('A' for Active; 'I' for Inactive)
REMARK    1  A    between atoms: N_3  and  C_4
REMARK    2  A    between atoms: C_7  and  C_8
REMARK    3  A    between atoms: N_14  and  C_15
REMARK    4  A    between atoms: C_18  and  O_19
REMARK    5  A    between atoms: O_19  and  C_20
REMARK                            x       y       z     vdW  Elec       q    Type
REMARK                         _______ _______ _______ _____ _____    ______ ____
ROOT
ATOM      1  O   UNL     1       7.950   9.249  17.408  0.00  0.00    +0.000 OA
ATOM      2  C   UNL     1       8.424   8.687  18.388  0.00  0.00    +0.000 C 
ATOM      3  N   UNL     1       9.234   9.269  19.338  0.00  0.00    +0.000 N 
ATOM      4  N   UNL     1       8.212   7.348  18.621  0.00  0.00    +0.000 N 
ATOM      5  H   UNL     1       9.809   8.634  19.872  0.00  0.00    +0.000 HD
ATOM      6  H   UNL     1       8.214   7.058  19.588  0.00  0.00    +0.000 HD
ENDROOT
BRANCH   3   7
ATOM      7  C   UNL     1       9.564  10.642  19.384  0.00  0.00    +0.000 A 
ATOM      8  C   UNL     1      10.100  11.321  18.286  0.00  0.00    +0.000 A 
ATOM      9  C   UNL     1      10.459  12.667  18.373  0.00  0.00    +0.000 A 
ATOM     10  C   UNL     1      10.270  13.375  19.563  0.00  0.00    +0.000 A 
ATOM     11  C   UNL     1       9.702  12.707  20.659  0.00  0.00    +0.000 A 
ATOM     12  C   UNL     1       9.344  11.353  20.568  0.00  0.00    +0.000 A 
BRANCH  10  13
ATOM     13  C   UNL     1      10.665  14.828  19.656  0.00  0.00    +0.000 C 
ATOM     14  F   UNL     1      11.273  15.153  20.833  0.00  0.00    +0.000 F 
ATOM     15  F   UNL     1      11.537  15.193  18.676  0.00  0.00    +0.000 F 
ATOM     16  F   UNL     1       9.601  15.669  19.545  0.00  0.00    +0.000 F 
ENDBRANCH  10  13
ENDBRANCH   3   7
BRANCH   4  17
ATOM     17  C   UNL     1       7.350   6.612  17.703  0.00  0.00    +0.000 C 
ATOM     18  C   UNL     1       7.747   5.138  17.639  0.00  0.00    +0.000 C 
ATOM     19  C   UNL     1       6.859   4.390  16.644  0.00  0.00    +0.000 C 
ATOM     20  C   UNL     1       5.371   4.522  16.995  0.00  0.00    +0.000 C 
ATOM     21  C   UNL     1       4.971   5.998  17.102  0.00  0.00    +0.000 C 
ATOM     22  C   UNL     1       5.867   6.785  18.058  0.00  0.00    +0.000 C 
BRANCH  20  23
ATOM     23  O   UNL     1       5.109   3.900  18.263  0.00  0.00    +0.000 OA
BRANCH  23  24
ATOM     24  C   UNL     1       3.812   3.601  18.578  0.00  0.00    +0.000 A 
ATOM     25  C   UNL     1       3.233   2.579  17.817  0.00  0.00    +0.000 A 
ATOM     26  C   UNL     1       1.914   2.181  18.052  0.00  0.00    +0.000 A 
ATOM     27  C   UNL     1       1.185   2.800  19.058  0.00  0.00    +0.000 A 
ATOM     28  F   UNL     1      -0.080   2.425  19.289  0.00  0.00    +0.000 F 
ATOM     29  C   UNL     1       1.753   3.798  19.837  0.00  0.00    +0.000 A 
ATOM     30  C   UNL     1       3.070   4.196  19.602  0.00  0.00    +0.000 A 
ENDBRANCH  23  24
ENDBRANCH  20  23
ENDBRANCH   4  17
TORSDOF 5
ENDMDL
MODEL 5
REMARK VINA RESULT:      -8.5      1.124      1.167
REMARK  Name = 
REMARK  5 active torsions:
REMARK  status: ('A' for Active; 'I' for Inactive)
REMARK    1  A    between atoms: N_3  and  C_4
REMARK    2  A    between atoms: C_7  and  C_8
REMARK    3  A    between atoms: N_14  and  C_15
REMARK    4  A    between atoms: C_18  and  O_19
REMARK    5  A    between atoms: O_19  and  C_20
REMARK                            x       y       z     vdW  Elec       q    Type
REMARK                         _______ _______ _______ _____ _____    ______ ____
ROOT
ATOM      1  O   UNL     1       7.667   8.817  17.289  0.00  0.00    +0.000 OA
ATOM      2  C   UNL     1       8.191   8.290  18.264  0.00  0.00    +0.000 C 
ATOM      3  N   UNL     1       9.060   8.900  19.141  0.00  0.00    +0.000 N 
ATOM      4  N   UNL     1       7.981   6.964  18.563  0.00  0.00    +0.000 N 
ATOM      5  H   UNL     1       9.659   8.280  19.667  0.00  0.00    +0.000 HD
ATOM      6  H   UNL     1       8.036   6.713  19.539  0.00  0.00    +0.000 HD
ENDROOT
BRANCH   3   7
ATOM      7  C   UNL     1       9.404  10.270  19.111  0.00  0.00    +0.000 A 
ATOM      8  C   UNL     1       9.789  10.921  17.935  0.00  0.00    +0.000 A 
ATOM      9  C   UNL     1      10.168  12.264  17.943  0.00  0.00    +0.000 A 
ATOM     10  C   UNL     1      10.152  12.999  19.132  0.00  0.00    +0.000 A 
ATOM     11  C   UNL     1       9.735  12.359  20.310  0.00  0.00    +0.000 A 
ATOM     12  C   UNL     1       9.356  11.007  20.299  0.00  0.00    +0.000 A 
BRANCH  10  13
ATOM     13  C   UNL     1      10.568  14.448  19.139  0.00  0.00    +0.000 C 
ATOM     14  F   UNL     1       9.958  15.186  20.110  0.00  0.00    +0.000 F 
ATOM     15  F   UNL     1      11.906  14.603  19.341  0.00  0.00    +0.000 F 
ATOM     16  F   UNL     1      10.290  15.079  17.965  0.00  0.00    +0.000 F 
ENDBRANCH  10  13
ENDBRANCH   3   7
BRANCH   4  17
ATOM     17  C   UNL     1       7.061   6.201  17.726  0.00  0.00    +0.000 C 
ATOM     18  C   UNL     1       6.362   5.107  18.532  0.00  0.00    +0.000 C 
ATOM     19  C   UNL     1       5.432   4.294  17.632  0.00  0.00    +0.000 C 
ATOM     20  C   UNL     1       4.392   5.182  16.935  0.00  0.00    +0.000 C 
ATOM     21  C   UNL     1       5.081   6.308  16.155  0.00  0.00    +0.000 C 
ATOM     22  C   UNL     1       6.052   7.115  17.016  0.00  0.00    +0.000 C 
BRANCH  20  23
ATOM     23  O   UNL     1       3.528   5.785  17.910  0.00  0.00    +0.000 OA
BRANCH  23  24
ATOM     24  C   UNL     1       2.787   4.960  18.711  0.00  0.00    +0.000 A 
ATOM     25  C   UNL     1       2.915   5.188  20.086  0.00  0.00    +0.000 A 
ATOM     26  C   UNL     1       2.201   4.412  21.003  0.00  0.00    +0.000 A 
ATOM     27  C   UNL     1       1.350   3.420  20.537  0.00  0.00    +0.000 A 
ATOM     28  F   UNL     1       0.662   2.671  21.409  0.00  0.00    +0.000 F 
ATOM     29  C   UNL     1       1.192   3.198  19.176  0.00  0.00    +0.000 A 
ATOM     30  C   UNL     1       1.907   3.973  18.261  0.00  0.00    +0.000 A 
ENDBRANCH  23  24
ENDBRANCH  20  23
ENDBRANCH   4  17
TORSDOF 5
ENDMDL
MODEL 6
REMARK VINA RESULT:      -8.4      0.999      1.633
REMARK  Name = 
REMARK  5 active torsions:
REMARK  status: ('A' for Active; 'I' for Inactive)
REMARK    1  A    between atoms: N_3  and  C_4
REMARK    2  A    between atoms: C_7  and  C_8
REMARK    3  A    between atoms: N_14  and  C_15
REMARK    4  A    between atoms: C_18  and  O_19
REMARK    5  A    between atoms: O_19  and  C_20
REMARK                            x       y       z     vdW  Elec       q    Type
REMARK                         _______ _______ _______ _____ _____    ______ ____
ROOT
ATOM      1  O   UNL     1       7.977   9.426  17.490  0.00  0.00    +0.000 OA
ATOM      2  C   UNL     1       8.486   8.840  18.437  0.00  0.00    +0.000 C 
ATOM      3  N   UNL     1       9.291   9.407  19.401  0.00  0.00    +0.000 N 
ATOM      4  N   UNL     1       8.326   7.485  18.613  0.00  0.00    +0.000 N 
ATOM      5  H   UNL     1       9.897   8.771  19.897  0.00  0.00    +0.000 HD
ATOM      6  H   UNL     1       8.355   7.152  19.566  0.00  0.00    +0.000 HD
ENDROOT
BRANCH   3   7
ATOM      7  C   UNL     1       9.571  10.789  19.502  0.00  0.00    +0.000 A 
ATOM      8  C   UNL     1       9.174  11.555  20.602  0.00  0.00    +0.000 A 
ATOM      9  C   UNL     1       9.423  12.927  20.654  0.00  0.00    +0.000 A 
ATOM     10  C   UNL     1      10.099  13.566  19.610  0.00  0.00    +0.000 A 
ATOM     11  C   UNL     1      10.528  12.795  18.518  0.00  0.00    +0.000 A 
ATOM     12  C   UNL     1      10.274  11.415  18.468  0.00  0.00    +0.000 A 
BRANCH  10  13
ATOM     13  C   UNL     1      10.361  15.050  19.667  0.00  0.00    +0.000 C 
ATOM     14  F   UNL     1      11.607  15.367  20.121  0.00  0.00    +0.000 F 
ATOM     15  F   UNL     1      10.250  15.644  18.447  0.00  0.00    +0.000 F 
ATOM     16  F   UNL     1       9.491  15.705  20.484  0.00  0.00    +0.000 F 
ENDBRANCH  10  13
ENDBRANCH   3   7
BRANCH   4  17
ATOM     17  C   UNL     1       7.477   6.759  17.676  0.00  0.00    +0.000 C 
ATOM     18  C   UNL     1       7.751   5.257  17.735  0.00  0.00    +0.000 C 
ATOM     19  C   UNL     1       6.879   4.516  16.719  0.00  0.00    +0.000 C 
ATOM     20  C   UNL     1       5.386   4.790  16.941  0.00  0.00    +0.000 C 
ATOM     21  C   UNL     1       5.106   6.298  16.923  0.00  0.00    +0.000 C 
ATOM     22  C   UNL     1       5.991   7.074  17.898  0.00  0.00    +0.000 C 
BRANCH  20  23
ATOM     23  O   UNL     1       4.977   4.280  18.219  0.00  0.00    +0.000 OA
BRANCH  23  24
ATOM     24  C   UNL     1       3.701   3.802  18.344  0.00  0.00    +0.000 A 
ATOM     25  C   UNL     1       3.537   2.448  18.027  0.00  0.00    +0.000 A 
ATOM     26  C   UNL     1       2.280   1.846  18.123  0.00  0.00    +0.000 A 
ATOM     27  C   UNL     1       1.194   2.600  18.549  0.00  0.00    +0.000 A 
ATOM     28  F   UNL     1      -0.014   2.030  18.643  0.00  0.00    +0.000 F 
ATOM     29  C   UNL     1       1.346   3.936  18.890  0.00  0.00    +0.000 A 
ATOM     30  C   UNL     1       2.602   4.538  18.793  0.00  0.00    +0.000 A 
ENDBRANCH  23  24
ENDBRANCH  20  23
ENDBRANCH   4  17
TORSDOF 5
ENDMDL
MODEL 7
REMARK VINA RESULT:      -8.4      1.343      1.725
REMARK  Name = 
REMARK  5 active torsions:
REMARK  status: ('A' for Active; 'I' for Inactive)
REMARK    1  A    between atoms: N_3  and  C_4
REMARK    2  A    between atoms: C_7  and  C_8
REMARK    3  A    between atoms: N_14  and  C_15
REMARK    4  A    between atoms: C_18  and  O_19
REMARK    5  A    between atoms: O_19  and  C_20
REMARK                            x       y       z     vdW  Elec       q    Type
REMARK                         _______ _______ _______ _____ _____    ______ ____
ROOT
ATOM      1  O   UNL     1       7.944   8.716  17.088  0.00  0.00    +0.000 OA
ATOM      2  C   UNL     1       8.301   8.403  18.218  0.00  0.00    +0.000 C 
ATOM      3  N   UNL     1       9.051   9.181  19.071  0.00  0.00    +0.000 N 
ATOM      4  N   UNL     1       8.005   7.169  18.748  0.00  0.00    +0.000 N 
ATOM      5  H   UNL     1       9.545   8.684  19.797  0.00  0.00    +0.000 HD
ATOM      6  H   UNL     1       7.908   7.127  19.752  0.00  0.00    +0.000 HD
ENDROOT
BRANCH   3   7
ATOM      7  C   UNL     1       9.441  10.515  18.812  0.00  0.00    +0.000 A 
ATOM      8  C   UNL     1      10.599  11.077  19.357  0.00  0.00    +0.000 A 
ATOM      9  C   UNL     1      10.934  12.411  19.121  0.00  0.00    +0.000 A 
ATOM     10  C   UNL     1      10.125  13.214  18.312  0.00  0.00    +0.000 A 
ATOM     11  C   UNL     1       8.978  12.645  17.736  0.00  0.00    +0.000 A 
ATOM     12  C   UNL     1       8.642  11.303  17.977  0.00  0.00    +0.000 A 
BRANCH  10  13
ATOM     13  C   UNL     1      10.486  14.657  18.064  0.00  0.00    +0.000 C 
ATOM     14  F   UNL     1      10.967  14.891  16.810  0.00  0.00    +0.000 F 
ATOM     15  F   UNL     1       9.422  15.492  18.215  0.00  0.00    +0.000 F 
ATOM     16  F   UNL     1      11.444  15.111  18.918  0.00  0.00    +0.000 F 
ENDBRANCH  10  13
ENDBRANCH   3   7
BRANCH   4  17
ATOM     17  C   UNL     1       7.194   6.250  17.958  0.00  0.00    +0.000 C 
ATOM     18  C   UNL     1       6.509   5.215  18.849  0.00  0.00    +0.000 C 
ATOM     19  C   UNL     1       5.694   4.238  18.001  0.00  0.00    +0.000 C 
ATOM     20  C   UNL     1       4.653   4.962  17.137  0.00  0.00    +0.000 C 
ATOM     21  C   UNL     1       5.325   6.032  16.267  0.00  0.00    +0.000 C 
ATOM     22  C   UNL     1       6.182   7.001  17.080  0.00  0.00    +0.000 C 
BRANCH  20  23
ATOM     23  O   UNL     1       3.689   5.616  17.976  0.00  0.00    +0.000 OA
BRANCH  23  24
ATOM     24  C   UNL     1       2.898   4.837  18.776  0.00  0.00    +0.000 A 
ATOM     25  C   UNL     1       2.957   5.132  20.143  0.00  0.00    +0.000 A 
ATOM     26  C   UNL     1       2.188   4.408  21.058  0.00  0.00    +0.000 A 
ATOM     27  C   UNL     1       1.352   3.400  20.597  0.00  0.00    +0.000 A 
ATOM     28  F   UNL     1       0.612   2.701  21.467  0.00  0.00    +0.000 F 
ATOM     29  C   UNL     1       1.264   3.112  19.242  0.00  0.00    +0.000 A 
ATOM     30  C   UNL     1       2.033   3.836  18.329  0.00  0.00    +0.000 A 
ENDBRANCH  23  24
ENDBRANCH  20  23
ENDBRANCH   4  17
TORSDOF 5
ENDMDL
MODEL 8
REMARK VINA RESULT:      -8.4      1.421      1.927
REMARK  Name = 
REMARK  5 active torsions:
REMARK  status: ('A' for Active; 'I' for Inactive)
REMARK    1  A    between atoms: N_3  and  C_4
REMARK    2  A    between atoms: C_7  and  C_8
REMARK    3  A    between atoms: N_14  and  C_15
REMARK    4  A    between atoms: C_18  and  O_19
REMARK    5  A    between atoms: O_19  and  C_20
REMARK                            x       y       z     vdW  Elec       q    Type
REMARK                         _______ _______ _______ _____ _____    ______ ____
ROOT
ATOM      1  O   UNL     1       7.986   8.723  17.080  0.00  0.00    +0.000 OA
ATOM      2  C   UNL     1       8.350   8.467  18.222  0.00  0.00    +0.000 C 
ATOM      3  N   UNL     1       9.074   9.301  19.045  0.00  0.00    +0.000 N 
ATOM      4  N   UNL     1       8.090   7.246  18.802  0.00  0.00    +0.000 N 
ATOM      5  H   UNL     1       9.581   8.848  19.791  0.00  0.00    +0.000 HD
ATOM      6  H   UNL     1       7.991   7.242  19.806  0.00  0.00    +0.000 HD
ENDROOT
BRANCH   3   7
ATOM      7  C   UNL     1       9.424  10.634  18.732  0.00  0.00    +0.000 A 
ATOM      8  C   UNL     1       8.595  11.469  17.978  0.00  0.00    +0.000 A 
ATOM      9  C   UNL     1       8.986  12.766  17.645  0.00  0.00    +0.000 A 
ATOM     10  C   UNL     1      10.216  13.269  18.079  0.00  0.00    +0.000 A 
ATOM     11  C   UNL     1      11.039  12.445  18.863  0.00  0.00    +0.000 A 
ATOM     12  C   UNL     1      10.643  11.140  19.195  0.00  0.00    +0.000 A 
BRANCH  10  13
ATOM     13  C   UNL     1      10.640  14.669  17.712  0.00  0.00    +0.000 C 
ATOM     14  F   UNL     1      11.538  15.213  18.582  0.00  0.00    +0.000 F 
ATOM     15  F   UNL     1      11.230  14.729  16.486  0.00  0.00    +0.000 F 
ATOM     16  F   UNL     1       9.594  15.539  17.668  0.00  0.00    +0.000 F 
ENDBRANCH  10  13
ENDBRANCH   3   7
BRANCH   4  17
ATOM     17  C   UNL     1       7.309   6.272  18.048  0.00  0.00    +0.000 C 
ATOM     18  C   UNL     1       6.551   5.332  18.984  0.00  0.00    +0.000 C 
ATOM     19  C   UNL     1       5.768   4.295  18.177  0.00  0.00    +0.000 C 
ATOM     20  C   UNL     1       4.796   4.954  17.190  0.00  0.00    +0.000 C 
ATOM     21  C   UNL     1       5.540   5.931  16.272  0.00  0.00    +0.000 C 
ATOM     22  C   UNL     1       6.367   6.956  17.046  0.00  0.00    +0.000 C 
BRANCH  20  23
ATOM     23  O   UNL     1       3.796   5.695  17.907  0.00  0.00    +0.000 OA
BRANCH  23  24
ATOM     24  C   UNL     1       3.003   5.018  18.791  0.00  0.00    +0.000 A 
ATOM     25  C   UNL     1       2.176   4.040  18.225  0.00  0.00    +0.000 A 
ATOM     26  C   UNL     1       1.326   3.277  19.030  0.00  0.00    +0.000 A 
ATOM     27  C   UNL     1       1.318   3.488  20.402  0.00  0.00    +0.000 A 
ATOM     28  F   UNL     1       0.505   2.762  21.181  0.00  0.00    +0.000 F 
ATOM     29  C   UNL     1       2.149   4.437  20.982  0.00  0.00    +0.000 A 
ATOM     30  C   UNL     1       2.998   5.198  20.176  0.00  0.00    +0.000 A 
ENDBRANCH  23  24
ENDBRANCH  20  23
ENDBRANCH   4  17
TORSDOF 5
ENDMDL
MODEL 9
REMARK VINA RESULT:      -8.3      1.136      1.300
REMARK  Name = 
REMARK  5 active torsions:
REMARK  status: ('A' for Active; 'I' for Inactive)
REMARK    1  A    between atoms: N_3  and  C_4
REMARK    2  A    between atoms: C_7  and  C_8
REMARK    3  A    between atoms: N_14  and  C_15
REMARK    4  A    between atoms: C_18  and  O_19
REMARK    5  A    between atoms: O_19  and  C_20
REMARK                            x       y       z     vdW  Elec       q    Type
REMARK                         _______ _______ _______ _____ _____    ______ ____
ROOT
ATOM      1  O   UNL     1       8.325   9.362  17.394  0.00  0.00    +0.000 OA
ATOM      2  C   UNL     1       8.668   8.927  18.487  0.00  0.00    +0.000 C 
ATOM      3  N   UNL     1       9.352   9.627  19.456  0.00  0.00    +0.000 N 
ATOM      4  N   UNL     1       8.425   7.622  18.849  0.00  0.00    +0.000 N 
ATOM      5  H   UNL     1       9.852   9.067  20.130  0.00  0.00    +0.000 HD
ATOM      6  H   UNL     1       8.302   7.449  19.836  0.00  0.00    +0.000 HD
ENDROOT
BRANCH   3   7
ATOM      7  C   UNL     1       9.676  11.000  19.379  0.00  0.00    +0.000 A 
ATOM      8  C   UNL     1      10.357  11.549  18.289  0.00  0.00    +0.000 A 
ATOM      9  C   UNL     1      10.705  12.900  18.260  0.00  0.00    +0.000 A 
ATOM     10  C   UNL     1      10.360  13.744  19.320  0.00  0.00    +0.000 A 
ATOM     11  C   UNL     1       9.647  13.205  20.402  0.00  0.00    +0.000 A 
ATOM     12  C   UNL     1       9.300  11.845  20.429  0.00  0.00    +0.000 A 
BRANCH  10  13
ATOM     13  C   UNL     1      10.743  15.203  19.289  0.00  0.00    +0.000 C 
ATOM     14  F   UNL     1      10.691  15.806  20.511  0.00  0.00    +0.000 F 
ATOM     15  F   UNL     1      12.011  15.397  18.834  0.00  0.00    +0.000 F 
ATOM     16  F   UNL     1       9.936  15.940  18.478  0.00  0.00    +0.000 F 
ENDBRANCH  10  13
ENDBRANCH   3   7
BRANCH   4  17
ATOM     17  C   UNL     1       7.686   6.771  17.923  0.00  0.00    +0.000 C 
ATOM     18  C   UNL     1       7.825   5.297  18.300  0.00  0.00    +0.000 C 
ATOM     19  C   UNL     1       7.076   4.418  17.297  0.00  0.00    +0.000 C 
ATOM     20  C   UNL     1       5.594   4.800  17.198  0.00  0.00    +0.000 C 
ATOM     21  C   UNL     1       5.442   6.288  16.859  0.00  0.00    +0.000 C 
ATOM     22  C   UNL     1       6.214   7.193  17.818  0.00  0.00    +0.000 C 
BRANCH  20  23
ATOM     23  O   UNL     1       4.941   4.565  18.455  0.00  0.00    +0.000 OA
BRANCH  23  24
ATOM     24  C   UNL     1       3.760   3.873  18.447  0.00  0.00    +0.000 A 
ATOM     25  C   UNL     1       2.686   4.518  19.072  0.00  0.00    +0.000 A 
ATOM     26  C   UNL     1       1.427   3.912  19.121  0.00  0.00    +0.000 A 
ATOM     27  C   UNL     1       1.248   2.668  18.532  0.00  0.00    +0.000 A 
ATOM     28  F   UNL     1       0.045   2.080  18.575  0.00  0.00    +0.000 F 
ATOM     29  C   UNL     1       2.297   2.027  17.888  0.00  0.00    +0.000 A 
ATOM     30  C   UNL     1       3.554   2.632  17.840  0.00  0.00    +0.000 A 
ENDBRANCH  23  24
ENDBRANCH  20  23
ENDBRANCH   4  17
TORSDOF 5
ENDMDL
