MODEL 1
REMARK VINA RESULT:      -8.5      0.000      0.000
REMARK  Name = 
REMARK  4 active torsions:
REMARK  status: ('A' for Active; 'I' for Inactive)
REMARK    1  A    between atoms: S_2  and  N_4
REMARK    2  A    between atoms: S_2  and  C_22
REMARK    3  A    between atoms: N_4  and  C_5
REMARK    4  A    between atoms: C_8  and  C_9
REMARK                            x       y       z     vdW  Elec       q    Type
REMARK                         _______ _______ _______ _____ _____    ______ ____
ROOT
ATOM      1  C   UNL     1       2.744   1.677  19.255  0.00  0.00    +0.000 C 
ATOM      2  C   UNL     1       1.905   2.093  18.044  0.00  0.00    +0.000 C 
ATOM      3  C   UNL     1       2.833   2.961  17.192  0.00  0.00    +0.000 C 
ATOM      4  C   UNL     1       4.263   2.516  17.546  0.00  0.00    +0.000 C 
ATOM      5  C   UNL     1       4.091   1.402  18.588  0.00  0.00    +0.000 C 
ENDROOT
BRANCH   4   6
ATOM      6  C   UNL     1       5.098   3.627  18.096  0.00  0.00    +0.000 A 
ATOM      7  N   UNL     1       5.239   3.964  19.373  0.00  0.00    +0.000 NA
ATOM      8  N   UNL     1       6.155   4.995  19.460  0.00  0.00    +0.000 NA
ATOM      9  C   UNL     1       6.562   5.247  18.239  0.00  0.00    +0.000 A 
ATOM     10  C   UNL     1       7.526   6.223  17.779  0.00  0.00    +0.000 A 
ATOM     11  N   UNL     1       7.828   6.375  16.508  0.00  0.00    +0.000 NA
ATOM     12  C   UNL     1       7.159   5.526  15.675  0.00  0.00    +0.000 A 
ATOM     13  N   UNL     1       7.321   5.495  14.318  0.00  0.00    +0.000 N 
ATOM     14  C   UNL     1       6.498   4.525  13.786  0.00  0.00    +0.000 A 
ATOM     15  C   UNL     1       5.802   3.918  14.816  0.00  0.00    +0.000 A 
ATOM     16  C   UNL     1       6.226   4.554  15.986  0.00  0.00    +0.000 A 
ATOM     17  N   UNL     1       5.924   4.426  17.352  0.00  0.00    +0.000 N 
ATOM     18  H   UNL     1       7.952   6.094  13.802  0.00  0.00    +0.000 HD
ENDBRANCH   4   6
BRANCH   1  19
ATOM     19  N   UNL     1       2.819   2.774  20.235  0.00  0.00    +0.000 NA
ATOM     20  H   UNL     1       3.505   2.700  20.996  0.00  0.00    +0.000 HD
BRANCH  19  22
ATOM     21  O   UNL     1       0.285   3.039  20.022  0.00  0.00    +0.000 OA
ATOM     22  S   UNL     1       1.410   3.521  20.791  0.00  0.00    +0.000 S 
ATOM     23  O   UNL     1       1.431   3.444  22.235  0.00  0.00    +0.000 OA
BRANCH  22  24
ATOM     24  C   UNL     1       1.676   5.218  20.366  0.00  0.00    +0.000 A 
ATOM     25  C   UNL     1       1.118   6.221  21.165  0.00  0.00    +0.000 A 
ATOM     26  C   UNL     1       1.348   7.558  20.845  0.00  0.00    +0.000 A 
ATOM     27  C   UNL     1       2.120   7.885  19.728  0.00  0.00    +0.000 A 
ATOM     28  C   UNL     1       2.639   6.874  18.916  0.00  0.00    +0.000 A 
ATOM     29 CL   UNL     1       3.576   7.286  17.534  0.00  0.00    +0.000 Cl
ATOM     30  C   UNL     1       2.414   5.536  19.222  0.00  0.00    +0.000 A 
ENDBRANCH  22  24
ENDBRANCH  19  22
ENDBRANCH   1  19
TORSDOF 4
ENDMDL
MODEL 2
REMARK VINA RESULT:      -8.4      0.988      1.343
REMARK  Name = 
REMARK  4 active torsions:
REMARK  status: ('A' for Active; 'I' for Inactive)
REMARK    1  A    between atoms: S_2  and  N_4
REMARK    2  A    between atoms: S_2  and  C_22
REMARK    3  A    between atoms: N_4  and  C_5
REMARK    4  A    between atoms: C_8  and  C_9
REMARK                            x       y       z     vdW  Elec       q    Type
REMARK                         _______ _______ _______ _____ _____    ______ ____
ROOT
ATOM      1  C   UNL     1       2.775   1.653  19.182  0.00  0.00    +0.000 C 
ATOM      2  C   UNL     1       1.933   2.053  17.967  0.00  0.00    +0.000 C 
ATOM      3  C   UNL     1       2.853   2.928  17.113  0.00  0.00    +0.000 C 
ATOM      4  C   UNL     1       4.287   2.503  17.471  0.00  0.00    +0.000 C 
ATOM      5  C   UNL     1       4.126   1.391  18.519  0.00  0.00    +0.000 C 
ENDROOT
BRANCH   4   6
ATOM      6  C   UNL     1       5.107   3.625  18.018  0.00  0.00    +0.000 A 
ATOM      7  N   UNL     1       5.238   3.974  19.293  0.00  0.00    +0.000 NA
ATOM      8  N   UNL     1       6.142   5.014  19.378  0.00  0.00    +0.000 NA
ATOM      9  C   UNL     1       6.554   5.262  18.157  0.00  0.00    +0.000 A 
ATOM     10  C   UNL     1       7.510   6.244  17.695  0.00  0.00    +0.000 A 
ATOM     11  N   UNL     1       7.819   6.390  16.425  0.00  0.00    +0.000 NA
ATOM     12  C   UNL     1       7.163   5.527  15.595  0.00  0.00    +0.000 A 
ATOM     13  N   UNL     1       7.333   5.488  14.238  0.00  0.00    +0.000 N 
ATOM     14  C   UNL     1       6.523   4.506  13.709  0.00  0.00    +0.000 A 
ATOM     15  C   UNL     1       5.828   3.900  14.740  0.00  0.00    +0.000 A 
ATOM     16  C   UNL     1       6.238   4.549  15.908  0.00  0.00    +0.000 A 
ATOM     17  N   UNL     1       5.930   4.427  17.273  0.00  0.00    +0.000 N 
ATOM     18  H   UNL     1       7.961   6.089  13.722  0.00  0.00    +0.000 HD
ENDBRANCH   4   6
BRANCH   1  19
ATOM     19  N   UNL     1       2.835   2.755  20.156  0.00  0.00    +0.000 NA
ATOM     20  H   UNL     1       3.505   2.683  20.932  0.00  0.00    +0.000 HD
BRANCH  19  22
ATOM     21  O   UNL     1       0.304   3.016  19.903  0.00  0.00    +0.000 OA
ATOM     22  S   UNL     1       1.418   3.511  20.680  0.00  0.00    +0.000 S 
ATOM     23  O   UNL     1       1.419   3.461  22.125  0.00  0.00    +0.000 OA
BRANCH  22  24
ATOM     24  C   UNL     1       1.690   5.201  20.229  0.00  0.00    +0.000 A 
ATOM     25  C   UNL     1       2.254   5.496  18.983  0.00  0.00    +0.000 A 
ATOM     26  C   UNL     1       2.446   6.827  18.617  0.00  0.00    +0.000 A 
ATOM     27  C   UNL     1       2.087   7.851  19.497  0.00  0.00    +0.000 A 
ATOM     28  C   UNL     1       1.561   7.542  20.753  0.00  0.00    +0.000 A 
ATOM     29 CL   UNL     1       1.134   8.808  21.835  0.00  0.00    +0.000 Cl
ATOM     30  C   UNL     1       1.368   6.218  21.132  0.00  0.00    +0.000 A 
ENDBRANCH  22  24
ENDBRANCH  19  22
ENDBRANCH   1  19
TORSDOF 4
ENDMDL
MODEL 3
REMARK VINA RESULT:      -8.4      4.027      6.890
REMARK  Name = 
REMARK  4 active torsions:
REMARK  status: ('A' for Active; 'I' for Inactive)
REMARK    1  A    between atoms: S_2  and  N_4
REMARK    2  A    between atoms: S_2  and  C_22
REMARK    3  A    between atoms: N_4  and  C_5
REMARK    4  A    between atoms: C_8  and  C_9
REMARK                            x       y       z     vdW  Elec       q    Type
REMARK                         _______ _______ _______ _____ _____    ______ ____
ROOT
ATOM      1  C   UNL     1       3.332   4.524  17.648  0.00  0.00    +0.000 C 
ATOM      2  C   UNL     1       4.073   4.420  18.983  0.00  0.00    +0.000 C 
ATOM      3  C   UNL     1       3.669   5.671  19.766  0.00  0.00    +0.000 C 
ATOM      4  C   UNL     1       2.303   6.095  19.199  0.00  0.00    +0.000 C 
ATOM      5  C   UNL     1       1.979   5.059  18.113  0.00  0.00    +0.000 C 
ENDROOT
BRANCH   4   6
ATOM      6  C   UNL     1       2.315   7.474  18.623  0.00  0.00    +0.000 A 
ATOM      7  N   UNL     1       2.800   7.844  17.443  0.00  0.00    +0.000 NA
ATOM      8  N   UNL     1       2.547   9.189  17.262  0.00  0.00    +0.000 NA
ATOM      9  C   UNL     1       1.898   9.602  18.325  0.00  0.00    +0.000 A 
ATOM     10  C   UNL     1       1.389  10.921  18.632  0.00  0.00    +0.000 A 
ATOM     11  N   UNL     1       0.764  11.194  19.756  0.00  0.00    +0.000 NA
ATOM     12  C   UNL     1       0.635  10.123  20.592  0.00  0.00    +0.000 A 
ATOM     13  N   UNL     1       0.012  10.168  21.808  0.00  0.00    +0.000 N 
ATOM     14  C   UNL     1       0.061   8.918  22.388  0.00  0.00    +0.000 A 
ATOM     15  C   UNL     1       0.718   8.055  21.530  0.00  0.00    +0.000 A 
ATOM     16  C   UNL     1       1.069   8.822  20.416  0.00  0.00    +0.000 A 
ATOM     17  N   UNL     1       1.738   8.570  19.207  0.00  0.00    +0.000 N 
ATOM     18  H   UNL     1      -0.415  10.995  22.203  0.00  0.00    +0.000 HD
ENDBRANCH   4   6
BRANCH   1  19
ATOM     19  N   UNL     1       4.022   5.461  16.745  0.00  0.00    +0.000 NA
ATOM     20  H   UNL     1       3.461   5.968  16.049  0.00  0.00    +0.000 HD
BRANCH  19  22
ATOM     21  O   UNL     1       5.733   3.642  16.197  0.00  0.00    +0.000 OA
ATOM     22  S   UNL     1       5.534   5.071  16.101  0.00  0.00    +0.000 S 
ATOM     23  O   UNL     1       5.653   5.771  14.841  0.00  0.00    +0.000 OA
BRANCH  22  24
ATOM     24  C   UNL     1       6.650   5.855  17.228  0.00  0.00    +0.000 A 
ATOM     25  C   UNL     1       7.242   5.099  18.245  0.00  0.00    +0.000 A 
ATOM     26  C   UNL     1       8.141   5.710  19.118  0.00  0.00    +0.000 A 
ATOM     27  C   UNL     1       8.432   7.070  18.980  0.00  0.00    +0.000 A 
ATOM     28  C   UNL     1       7.804   7.822  17.985  0.00  0.00    +0.000 A 
ATOM     29 CL   UNL     1       8.158   9.498  17.830  0.00  0.00    +0.000 Cl
ATOM     30  C   UNL     1       6.903   7.225  17.109  0.00  0.00    +0.000 A 
ENDBRANCH  22  24
ENDBRANCH  19  22
ENDBRANCH   1  19
TORSDOF 4
ENDMDL
MODEL 4
REMARK VINA RESULT:      -8.1      5.130      7.231
REMARK  Name = 
REMARK  4 active torsions:
REMARK  status: ('A' for Active; 'I' for Inactive)
REMARK    1  A    between atoms: S_2  and  N_4
REMARK    2  A    between atoms: S_2  and  C_22
REMARK    3  A    between atoms: N_4  and  C_5
REMARK    4  A    between atoms: C_8  and  C_9
REMARK                            x       y       z     vdW  Elec       q    Type
REMARK                         _______ _______ _______ _____ _____    ______ ____
ROOT
ATOM      1  C   UNL     1       0.775  10.203  21.661  0.00  0.00    +0.000 C 
ATOM      2  C   UNL     1      -0.561   9.471  21.813  0.00  0.00    +0.000 C 
ATOM      3  C   UNL     1      -0.335   8.091  21.192  0.00  0.00    +0.000 C 
ATOM      4  C   UNL     1       1.178   7.829  21.294  0.00  0.00    +0.000 C 
ATOM      5  C   UNL     1       1.756   9.076  21.979  0.00  0.00    +0.000 C 
ENDROOT
BRANCH   4   6
ATOM      6  C   UNL     1       1.822   7.613  19.964  0.00  0.00    +0.000 A 
ATOM      7  N   UNL     1       2.030   8.523  19.018  0.00  0.00    +0.000 NA
ATOM      8  N   UNL     1       2.719   7.931  17.978  0.00  0.00    +0.000 NA
ATOM      9  C   UNL     1       2.931   6.683  18.322  0.00  0.00    +0.000 A 
ATOM     10  C   UNL     1       3.619   5.638  17.596  0.00  0.00    +0.000 A 
ATOM     11  N   UNL     1       3.744   4.415  18.064  0.00  0.00    +0.000 NA
ATOM     12  C   UNL     1       3.176   4.232  19.292  0.00  0.00    +0.000 A 
ATOM     13  N   UNL     1       3.193   3.049  19.977  0.00  0.00    +0.000 N 
ATOM     14  C   UNL     1       2.532   3.212  21.176  0.00  0.00    +0.000 A 
ATOM     15  C   UNL     1       2.092   4.520  21.267  0.00  0.00    +0.000 A 
ATOM     16  C   UNL     1       2.501   5.142  20.084  0.00  0.00    +0.000 A 
ATOM     17  N   UNL     1       2.382   6.435  19.549  0.00  0.00    +0.000 N 
ATOM     18  H   UNL     1       3.628   2.199  19.644  0.00  0.00    +0.000 HD
ENDBRANCH   4   6
BRANCH   1  19
ATOM     19  N   UNL     1       0.935  10.712  20.287  0.00  0.00    +0.000 NA
ATOM     20  H   UNL     1       1.868  10.674  19.860  0.00  0.00    +0.000 HD
BRANCH  19  22
ATOM     21  O   UNL     1      -0.345  12.820  20.962  0.00  0.00    +0.000 OA
ATOM     22  S   UNL     1       0.124  12.109  19.794  0.00  0.00    +0.000 S 
ATOM     23  O   UNL     1       0.952  12.750  18.796  0.00  0.00    +0.000 OA
BRANCH  22  24
ATOM     24  C   UNL     1      -1.287  11.460  18.946  0.00  0.00    +0.000 A 
ATOM     25  C   UNL     1      -1.127  10.372  18.082  0.00  0.00    +0.000 A 
ATOM     26  C   UNL     1      -2.242   9.844  17.433  0.00  0.00    +0.000 A 
ATOM     27  C   UNL     1      -3.503  10.411  17.638  0.00  0.00    +0.000 A 
ATOM     28  C   UNL     1      -3.642  11.522  18.473  0.00  0.00    +0.000 A 
ATOM     29 CL   UNL     1      -5.195  12.223  18.710  0.00  0.00    +0.000 Cl
ATOM     30  C   UNL     1      -2.537  12.060  19.124  0.00  0.00    +0.000 A 
ENDBRANCH  22  24
ENDBRANCH  19  22
ENDBRANCH   1  19
TORSDOF 4
ENDMDL
MODEL 5
REMARK VINA RESULT:      -7.9      3.326      6.283
REMARK  Name = 
REMARK  4 active torsions:
REMARK  status: ('A' for Active; 'I' for Inactive)
REMARK    1  A    between atoms: S_2  and  N_4
REMARK    2  A    between atoms: S_2  and  C_22
REMARK    3  A    between atoms: N_4  and  C_5
REMARK    4  A    between atoms: C_8  and  C_9
REMARK                            x       y       z     vdW  Elec       q    Type
REMARK                         _______ _______ _______ _____ _____    ______ ____
ROOT
ATOM      1  C   UNL     1       1.395   3.553  19.798  0.00  0.00    +0.000 C 
ATOM      2  C   UNL     1       2.481   3.408  20.867  0.00  0.00    +0.000 C 
ATOM      3  C   UNL     1       2.965   4.833  21.144  0.00  0.00    +0.000 C 
ATOM      4  C   UNL     1       1.793   5.754  20.764  0.00  0.00    +0.000 C 
ATOM      5  C   UNL     1       0.679   4.810  20.287  0.00  0.00    +0.000 C 
ENDROOT
BRANCH   4   6
ATOM      6  C   UNL     1       2.146   6.733  19.692  0.00  0.00    +0.000 A 
ATOM      7  N   UNL     1       2.850   6.494  18.591  0.00  0.00    +0.000 NA
ATOM      8  N   UNL     1       2.885   7.646  17.829  0.00  0.00    +0.000 NA
ATOM      9  C   UNL     1       2.188   8.552  18.475  0.00  0.00    +0.000 A 
ATOM     10  C   UNL     1       1.903   9.921  18.106  0.00  0.00    +0.000 A 
ATOM     11  N   UNL     1       1.193  10.726  18.867  0.00  0.00    +0.000 NA
ATOM     12  C   UNL     1       0.749  10.147  20.021  0.00  0.00    +0.000 A 
ATOM     13  N   UNL     1      -0.015  10.788  20.956  0.00  0.00    +0.000 N 
ATOM     14  C   UNL     1      -0.285   9.918  21.992  0.00  0.00    +0.000 A 
ATOM     15  C   UNL     1       0.306   8.699  21.714  0.00  0.00    +0.000 A 
ATOM     16  C   UNL     1       0.947   8.859  20.482  0.00  0.00    +0.000 A 
ATOM     17  N   UNL     1       1.714   8.032  19.647  0.00  0.00    +0.000 N 
ATOM     18  H   UNL     1      -0.326  11.747  20.884  0.00  0.00    +0.000 HD
ENDBRANCH   4   6
BRANCH   1  19
ATOM     19  N   UNL     1       2.001   3.738  18.467  0.00  0.00    +0.000 NA
ATOM     20  H   UNL     1       1.400   4.069  17.702  0.00  0.00    +0.000 HD
BRANCH  19  22
ATOM     21  O   UNL     1       3.516   1.736  18.952  0.00  0.00    +0.000 OA
ATOM     22  S   UNL     1       3.132   2.628  17.882  0.00  0.00    +0.000 S 
ATOM     23  O   UNL     1       2.624   2.130  16.623  0.00  0.00    +0.000 OA
BRANCH  22  24
ATOM     24  C   UNL     1       4.522   3.655  17.501  0.00  0.00    +0.000 A 
ATOM     25  C   UNL     1       4.807   3.956  16.166  0.00  0.00    +0.000 A 
ATOM     26  C   UNL     1       5.886   4.786  15.866  0.00  0.00    +0.000 A 
ATOM     27  C   UNL     1       6.679   5.298  16.896  0.00  0.00    +0.000 A 
ATOM     28  C   UNL     1       6.407   4.958  18.223  0.00  0.00    +0.000 A 
ATOM     29 CL   UNL     1       7.397   5.581  19.484  0.00  0.00    +0.000 Cl
ATOM     30  C   UNL     1       5.335   4.128  18.535  0.00  0.00    +0.000 A 
ENDBRANCH  22  24
ENDBRANCH  19  22
ENDBRANCH   1  19
TORSDOF 4
ENDMDL
MODEL 6
REMARK VINA RESULT:      -7.9      3.364      6.297
REMARK  Name = 
REMARK  4 active torsions:
REMARK  status: ('A' for Active; 'I' for Inactive)
REMARK    1  A    between atoms: S_2  and  N_4
REMARK    2  A    between atoms: S_2  and  C_22
REMARK    3  A    between atoms: N_4  and  C_5
REMARK    4  A    between atoms: C_8  and  C_9
REMARK                            x       y       z     vdW  Elec       q    Type
REMARK                         _______ _______ _______ _____ _____    ______ ____
ROOT
ATOM      1  C   UNL     1       1.406   3.573  19.786  0.00  0.00    +0.000 C 
ATOM      2  C   UNL     1       2.475   3.430  20.874  0.00  0.00    +0.000 C 
ATOM      3  C   UNL     1       2.943   4.857  21.166  0.00  0.00    +0.000 C 
ATOM      4  C   UNL     1       1.770   5.771  20.770  0.00  0.00    +0.000 C 
ATOM      5  C   UNL     1       0.672   4.822  20.270  0.00  0.00    +0.000 C 
ENDROOT
BRANCH   4   6
ATOM      6  C   UNL     1       2.135   6.758  19.710  0.00  0.00    +0.000 A 
ATOM      7  N   UNL     1       2.852   6.529  18.615  0.00  0.00    +0.000 NA
ATOM      8  N   UNL     1       2.894   7.686  17.862  0.00  0.00    +0.000 NA
ATOM      9  C   UNL     1       2.188   8.586  18.505  0.00  0.00    +0.000 A 
ATOM     10  C   UNL     1       1.904   9.957  18.143  0.00  0.00    +0.000 A 
ATOM     11  N   UNL     1       1.184  10.755  18.901  0.00  0.00    +0.000 NA
ATOM     12  C   UNL     1       0.728  10.168  20.045  0.00  0.00    +0.000 A 
ATOM     13  N   UNL     1      -0.049  10.801  20.976  0.00  0.00    +0.000 N 
ATOM     14  C   UNL     1      -0.329   9.923  22.002  0.00  0.00    +0.000 A 
ATOM     15  C   UNL     1       0.268   8.707  21.723  0.00  0.00    +0.000 A 
ATOM     16  C   UNL     1       0.922   8.877  20.500  0.00  0.00    +0.000 A 
ATOM     17  N   UNL     1       1.701   8.056  19.668  0.00  0.00    +0.000 N 
ATOM     18  H   UNL     1      -0.361  11.759  20.906  0.00  0.00    +0.000 HD
ENDBRANCH   4   6
BRANCH   1  19
ATOM     19  N   UNL     1       2.033   3.768  18.468  0.00  0.00    +0.000 NA
ATOM     20  H   UNL     1       1.469   4.191  17.720  0.00  0.00    +0.000 HD
BRANCH  19  22
ATOM     21  O   UNL     1       3.348   1.609  18.847  0.00  0.00    +0.000 OA
ATOM     22  S   UNL     1       3.061   2.592  17.827  0.00  0.00    +0.000 S 
ATOM     23  O   UNL     1       2.524   2.214  16.538  0.00  0.00    +0.000 OA
BRANCH  22  24
ATOM     24  C   UNL     1       4.546   3.503  17.514  0.00  0.00    +0.000 A 
ATOM     25  C   UNL     1       5.266   4.032  18.589  0.00  0.00    +0.000 A 
ATOM     26  C   UNL     1       6.448   4.729  18.345  0.00  0.00    +0.000 A 
ATOM     27  C   UNL     1       6.897   4.903  17.033  0.00  0.00    +0.000 A 
ATOM     28  C   UNL     1       6.148   4.403  15.966  0.00  0.00    +0.000 A 
ATOM     29 CL   UNL     1       6.700   4.634  14.353  0.00  0.00    +0.000 Cl
ATOM     30  C   UNL     1       4.964   3.709  16.196  0.00  0.00    +0.000 A 
ENDBRANCH  22  24
ENDBRANCH  19  22
ENDBRANCH   1  19
TORSDOF 4
ENDMDL
MODEL 7
REMARK VINA RESULT:      -7.8      4.008      6.848
REMARK  Name = 
REMARK  4 active torsions:
REMARK  status: ('A' for Active; 'I' for Inactive)
REMARK    1  A    between atoms: S_2  and  N_4
REMARK    2  A    between atoms: S_2  and  C_22
REMARK    3  A    between atoms: N_4  and  C_5
REMARK    4  A    between atoms: C_8  and  C_9
REMARK                            x       y       z     vdW  Elec       q    Type
REMARK                         _______ _______ _______ _____ _____    ______ ____
ROOT
ATOM      1  C   UNL     1       3.136   4.354  17.805  0.00  0.00    +0.000 C 
ATOM      2  C   UNL     1       3.926   4.262  19.114  0.00  0.00    +0.000 C 
ATOM      3  C   UNL     1       3.618   5.562  19.860  0.00  0.00    +0.000 C 
ATOM      4  C   UNL     1       2.253   6.035  19.330  0.00  0.00    +0.000 C 
ATOM      5  C   UNL     1       1.832   4.976  18.301  0.00  0.00    +0.000 C 
ENDROOT
BRANCH   4   6
ATOM      6  C   UNL     1       2.310   7.387  18.698  0.00  0.00    +0.000 A 
ATOM      7  N   UNL     1       2.844   7.699  17.523  0.00  0.00    +0.000 NA
ATOM      8  N   UNL     1       2.622   9.040  17.276  0.00  0.00    +0.000 NA
ATOM      9  C   UNL     1       1.944   9.508  18.298  0.00  0.00    +0.000 A 
ATOM     10  C   UNL     1       1.449  10.847  18.531  0.00  0.00    +0.000 A 
ATOM     11  N   UNL     1       0.789  11.178  19.620  0.00  0.00    +0.000 NA
ATOM     12  C   UNL     1       0.611  10.145  20.494  0.00  0.00    +0.000 A 
ATOM     13  N   UNL     1      -0.055  10.252  21.684  0.00  0.00    +0.000 N 
ATOM     14  C   UNL     1      -0.049   9.027  22.316  0.00  0.00    +0.000 A 
ATOM     15  C   UNL     1       0.622   8.117  21.518  0.00  0.00    +0.000 A 
ATOM     16  C   UNL     1       1.027   8.831  20.387  0.00  0.00    +0.000 A 
ATOM     17  N   UNL     1       1.734   8.517  19.215  0.00  0.00    +0.000 N 
ATOM     18  H   UNL     1      -0.480  11.102  22.028  0.00  0.00    +0.000 HD
ENDBRANCH   4   6
BRANCH   1  19
ATOM     19  N   UNL     1       3.835   5.218  16.838  0.00  0.00    +0.000 NA
ATOM     20  H   UNL     1       3.277   5.691  16.117  0.00  0.00    +0.000 HD
BRANCH  19  22
ATOM     21  O   UNL     1       5.558   3.360  16.499  0.00  0.00    +0.000 OA
ATOM     22  S   UNL     1       5.332   4.757  16.206  0.00  0.00    +0.000 S 
ATOM     23  O   UNL     1       5.399   5.270  14.856  0.00  0.00    +0.000 OA
BRANCH  22  24
ATOM     24  C   UNL     1       6.470   5.708  17.171  0.00  0.00    +0.000 A 
ATOM     25  C   UNL     1       6.776   7.016  16.779  0.00  0.00    +0.000 A 
ATOM     26  C   UNL     1       7.653   7.775  17.552  0.00  0.00    +0.000 A 
ATOM     27  C   UNL     1       8.227   7.223  18.700  0.00  0.00    +0.000 A 
ATOM     28  C   UNL     1       7.944   5.903  19.058  0.00  0.00    +0.000 A 
ATOM     29 CL   UNL     1       8.666   5.227  20.466  0.00  0.00    +0.000 Cl
ATOM     30  C   UNL     1       7.073   5.134  18.294  0.00  0.00    +0.000 A 
ENDBRANCH  22  24
ENDBRANCH  19  22
ENDBRANCH   1  19
TORSDOF 4
ENDMDL
MODEL 8
REMARK VINA RESULT:      -7.8      5.083      7.171
REMARK  Name = 
REMARK  4 active torsions:
REMARK  status: ('A' for Active; 'I' for Inactive)
REMARK    1  A    between atoms: S_2  and  N_4
REMARK    2  A    between atoms: S_2  and  C_22
REMARK    3  A    between atoms: N_4  and  C_5
REMARK    4  A    between atoms: C_8  and  C_9
REMARK                            x       y       z     vdW  Elec       q    Type
REMARK                         _______ _______ _______ _____ _____    ______ ____
ROOT
ATOM      1  C   UNL     1       0.596  10.211  21.567  0.00  0.00    +0.000 C 
ATOM      2  C   UNL     1      -0.658   9.365  21.804  0.00  0.00    +0.000 C 
ATOM      3  C   UNL     1      -0.318   7.979  21.252  0.00  0.00    +0.000 C 
ATOM      4  C   UNL     1       1.215   7.869  21.316  0.00  0.00    +0.000 C 
ATOM      5  C   UNL     1       1.690   9.202  21.911  0.00  0.00    +0.000 C 
ENDROOT
BRANCH   4   6
ATOM      6  C   UNL     1       1.839   7.640  19.978  0.00  0.00    +0.000 A 
ATOM      7  N   UNL     1       2.037   8.541  19.022  0.00  0.00    +0.000 NA
ATOM      8  N   UNL     1       2.707   7.938  17.976  0.00  0.00    +0.000 NA
ATOM      9  C   UNL     1       2.917   6.691  18.326  0.00  0.00    +0.000 A 
ATOM     10  C   UNL     1       3.588   5.637  17.597  0.00  0.00    +0.000 A 
ATOM     11  N   UNL     1       3.712   4.417  18.072  0.00  0.00    +0.000 NA
ATOM     12  C   UNL     1       3.162   4.246  19.309  0.00  0.00    +0.000 A 
ATOM     13  N   UNL     1       3.183   3.067  20.003  0.00  0.00    +0.000 N 
ATOM     14  C   UNL     1       2.541   3.243  21.211  0.00  0.00    +0.000 A 
ATOM     15  C   UNL     1       2.110   4.554  21.299  0.00  0.00    +0.000 A 
ATOM     16  C   UNL     1       2.505   5.165  20.105  0.00  0.00    +0.000 A 
ATOM     17  N   UNL     1       2.385   6.455  19.563  0.00  0.00    +0.000 N 
ATOM     18  H   UNL     1       3.607   2.213  19.669  0.00  0.00    +0.000 HD
ENDBRANCH   4   6
BRANCH   1  19
ATOM     19  N   UNL     1       0.665  10.653  20.164  0.00  0.00    +0.000 NA
ATOM     20  H   UNL     1       1.510  10.428  19.624  0.00  0.00    +0.000 HD
BRANCH  19  22
ATOM     21  O   UNL     1      -0.171  12.952  20.906  0.00  0.00    +0.000 OA
ATOM     22  S   UNL     1       0.074  12.171  19.716  0.00  0.00    +0.000 S 
ATOM     23  O   UNL     1       0.920  12.657  18.648  0.00  0.00    +0.000 OA
BRANCH  22  24
ATOM     24  C   UNL     1      -1.491  11.779  18.988  0.00  0.00    +0.000 A 
ATOM     25  C   UNL     1      -2.664  12.234  19.598  0.00  0.00    +0.000 A 
ATOM     26  C   UNL     1      -3.896  11.947  19.012  0.00  0.00    +0.000 A 
ATOM     27  C   UNL     1      -3.950  11.201  17.833  0.00  0.00    +0.000 A 
ATOM     28  C   UNL     1      -2.773  10.719  17.255  0.00  0.00    +0.000 A 
ATOM     29 CL   UNL     1      -2.850   9.789  15.810  0.00  0.00    +0.000 Cl
ATOM     30  C   UNL     1      -1.538  10.996  17.831  0.00  0.00    +0.000 A 
ENDBRANCH  22  24
ENDBRANCH  19  22
ENDBRANCH   1  19
TORSDOF 4
ENDMDL
MODEL 9
REMARK VINA RESULT:      -7.7      7.565     11.148
REMARK  Name = 
REMARK  4 active torsions:
REMARK  status: ('A' for Active; 'I' for Inactive)
REMARK    1  A    between atoms: S_2  and  N_4
REMARK    2  A    between atoms: S_2  and  C_22
REMARK    3  A    between atoms: N_4  and  C_5
REMARK    4  A    between atoms: C_8  and  C_9
REMARK                            x       y       z     vdW  Elec       q    Type
REMARK                         _______ _______ _______ _____ _____    ______ ____
ROOT
ATOM      1  C   UNL     1      -0.734  11.802  21.856  0.00  0.00    +0.000 C 
ATOM      2  C   UNL     1       0.111  12.907  21.216  0.00  0.00    +0.000 C 
ATOM      3  C   UNL     1      -0.755  13.471  20.087  0.00  0.00    +0.000 C 
ATOM      4  C   UNL     1      -2.210  13.176  20.489  0.00  0.00    +0.000 C 
ATOM      5  C   UNL     1      -2.115  12.455  21.841  0.00  0.00    +0.000 C 
ENDROOT
BRANCH   4   6
ATOM      6  C   UNL     1      -2.929  12.327  19.491  0.00  0.00    +0.000 A 
ATOM      7  N   UNL     1      -2.385  11.596  18.524  0.00  0.00    +0.000 NA
ATOM      8  N   UNL     1      -3.389  10.906  17.873  0.00  0.00    +0.000 NA
ATOM      9  C   UNL     1      -4.516  11.218  18.469  0.00  0.00    +0.000 A 
ATOM     10  C   UNL     1      -5.858  10.761  18.186  0.00  0.00    +0.000 A 
ATOM     11  N   UNL     1      -6.905  11.176  18.865  0.00  0.00    +0.000 NA
ATOM     12  C   UNL     1      -6.604  12.062  19.859  0.00  0.00    +0.000 A 
ATOM     13  N   UNL     1      -7.529  12.616  20.700  0.00  0.00    +0.000 N 
ATOM     14  C   UNL     1      -6.889  13.464  21.580  0.00  0.00    +0.000 A 
ATOM     15  C   UNL     1      -5.533  13.448  21.306  0.00  0.00    +0.000 A 
ATOM     16  C   UNL     1      -5.373  12.570  20.231  0.00  0.00    +0.000 A 
ATOM     17  N   UNL     1      -4.280  12.110  19.479  0.00  0.00    +0.000 N 
ATOM     18  H   UNL     1      -8.521  12.422  20.670  0.00  0.00    +0.000 HD
ENDBRANCH   4   6
BRANCH   1  19
ATOM     19  N   UNL     1      -0.687  10.576  21.041  0.00  0.00    +0.000 NA
ATOM     20  H   UNL     1      -1.551  10.266  20.579  0.00  0.00    +0.000 HD
BRANCH  19  22
ATOM     21  O   UNL     1       1.161   9.669  22.557  0.00  0.00    +0.000 OA
ATOM     22  S   UNL     1       0.209   9.241  21.557  0.00  0.00    +0.000 S 
ATOM     23  O   UNL     1      -0.730   8.171  21.810  0.00  0.00    +0.000 OA
BRANCH  22  24
ATOM     24  C   UNL     1       1.111   8.793  20.101  0.00  0.00    +0.000 A 
ATOM     25  C   UNL     1       1.053   9.622  18.977  0.00  0.00    +0.000 A 
ATOM     26  C   UNL     1       1.783   9.283  17.838  0.00  0.00    +0.000 A 
ATOM     27  C   UNL     1       2.554   8.118  17.825  0.00  0.00    +0.000 A 
ATOM     28  C   UNL     1       2.572   7.279  18.941  0.00  0.00    +0.000 A 
ATOM     29 CL   UNL     1       3.512   5.839  18.912  0.00  0.00    +0.000 Cl
ATOM     30  C   UNL     1       1.845   7.604  20.082  0.00  0.00    +0.000 A 
ENDBRANCH  22  24
ENDBRANCH  19  22
ENDBRANCH   1  19
TORSDOF 4
ENDMDL
