MODEL 1
REMARK VINA RESULT:      -9.2      0.000      0.000
REMARK  Name = 
REMARK  5 active torsions:
REMARK  status: ('A' for Active; 'I' for Inactive)
REMARK    1  A    between atoms: C_1  and  O_2
REMARK    2  A    between atoms: O_2  and  C_3
REMARK    3  A    between atoms: C_12  and  C_13
REMARK    4  A    between atoms: N_16  and  C_17
REMARK    5  A    between atoms: C_17  and  C_18
REMARK                            x       y       z     vdW  Elec       q    Type
REMARK                         _______ _______ _______ _____ _____    ______ ____
ROOT
ATOM      1  C   UNL     1      -3.772  10.810  17.143  0.00  0.00    +0.000 A 
ATOM      2  C   UNL     1      -5.044  11.398  17.138  0.00  0.00    +0.000 A 
ATOM      3  C   UNL     1      -5.435  12.274  18.153  0.00  0.00    +0.000 A 
ATOM      4  C   UNL     1      -4.559  12.570  19.192  0.00  0.00    +0.000 A 
ATOM      5  C   UNL     1      -3.298  11.959  19.240  0.00  0.00    +0.000 A 
ATOM      6  C   UNL     1      -2.902  11.054  18.218  0.00  0.00    +0.000 A 
ATOM      7  C   UNL     1      -1.552  10.365  18.286  0.00  0.00    +0.000 C 
ATOM      8  O   UNL     1      -1.085   9.674  17.394  0.00  0.00    +0.000 OA
ATOM      9  C   UNL     1      -0.773  10.613  19.477  0.00  0.00    +0.000 A 
ATOM     10  C   UNL     1       0.466  10.127  19.972  0.00  0.00    +0.000 A 
ATOM     11  N   UNL     1       0.797  10.793  21.091  0.00  0.00    +0.000 NA
ATOM     12  O   UNL     1      -0.248  11.667  21.356  0.00  0.00    +0.000 OA
ATOM     13  C   UNL     1      -1.184  11.543  20.395  0.00  0.00    +0.000 A 
ATOM     14  C   UNL     1      -2.394  12.294  20.384  0.00  0.00    +0.000 C 
ATOM     15  O   UNL     1      -2.701  13.151  21.205  0.00  0.00    +0.000 OA
ENDROOT
BRANCH  10  16
ATOM     16  C   UNL     1       1.352   9.083  19.447  0.00  0.00    +0.000 A 
ATOM     17  C   UNL     1       1.969   9.241  18.202  0.00  0.00    +0.000 A 
ATOM     18  C   UNL     1       2.767   8.225  17.681  0.00  0.00    +0.000 A 
ATOM     19  N   UNL     1       2.950   7.069  18.360  0.00  0.00    +0.000 N 
ATOM     20  C   UNL     1       2.419   6.915  19.594  0.00  0.00    +0.000 A 
ATOM     21  C   UNL     1       1.626   7.912  20.158  0.00  0.00    +0.000 A 
BRANCH  19  22
ATOM     22  C   UNL     1       3.687   5.943  17.723  0.00  0.00    +0.000 C 
BRANCH  22  23
ATOM     23  C   UNL     1       5.169   6.050  17.964  0.00  0.00    +0.000 A 
ATOM     24  C   UNL     1       5.761   5.379  19.045  0.00  0.00    +0.000 A 
ATOM     25  C   UNL     1       7.116   5.558  19.333  0.00  0.00    +0.000 A 
ATOM     26  C   UNL     1       7.895   6.395  18.538  0.00  0.00    +0.000 A 
ATOM     27  C   UNL     1       7.332   7.022  17.429  0.00  0.00    +0.000 A 
ATOM     28  C   UNL     1       5.977   6.849  17.139  0.00  0.00    +0.000 A 
ENDBRANCH  22  23
ENDBRANCH  19  22
ENDBRANCH  10  16
BRANCH   1  30
ATOM     29  C   UNL     1      -3.309  10.425  14.830  0.00  0.00    +0.000 C 
ATOM     30  O   UNL     1      -3.342   9.955  16.171  0.00  0.00    +0.000 OA
ENDBRANCH   1  30
TORSDOF 4
ENDMDL
MODEL 2
REMARK VINA RESULT:      -9.0      1.484      2.469
REMARK  Name = 
REMARK  5 active torsions:
REMARK  status: ('A' for Active; 'I' for Inactive)
REMARK    1  A    between atoms: C_1  and  O_2
REMARK    2  A    between atoms: O_2  and  C_3
REMARK    3  A    between atoms: C_12  and  C_13
REMARK    4  A    between atoms: N_16  and  C_17
REMARK    5  A    between atoms: C_17  and  C_18
REMARK                            x       y       z     vdW  Elec       q    Type
REMARK                         _______ _______ _______ _____ _____    ______ ____
ROOT
ATOM      1  C   UNL     1      -3.682  10.821  17.181  0.00  0.00    +0.000 A 
ATOM      2  C   UNL     1      -4.947  11.425  17.166  0.00  0.00    +0.000 A 
ATOM      3  C   UNL     1      -5.333  12.309  18.175  0.00  0.00    +0.000 A 
ATOM      4  C   UNL     1      -4.460  12.598  19.219  0.00  0.00    +0.000 A 
ATOM      5  C   UNL     1      -3.206  11.972  19.276  0.00  0.00    +0.000 A 
ATOM      6  C   UNL     1      -2.815  11.059  18.260  0.00  0.00    +0.000 A 
ATOM      7  C   UNL     1      -1.475  10.354  18.338  0.00  0.00    +0.000 C 
ATOM      8  O   UNL     1      -1.011   9.653  17.452  0.00  0.00    +0.000 OA
ATOM      9  C   UNL     1      -0.700  10.597  19.533  0.00  0.00    +0.000 A 
ATOM     10  C   UNL     1       0.531  10.098  20.037  0.00  0.00    +0.000 A 
ATOM     11  N   UNL     1       0.863  10.764  21.155  0.00  0.00    +0.000 NA
ATOM     12  O   UNL     1      -0.172  11.652  21.411  0.00  0.00    +0.000 OA
ATOM     13  C   UNL     1      -1.104  11.536  20.445  0.00  0.00    +0.000 A 
ATOM     14  C   UNL     1      -2.305  12.300  20.424  0.00  0.00    +0.000 C 
ATOM     15  O   UNL     1      -2.606  13.165  21.240  0.00  0.00    +0.000 OA
ENDROOT
BRANCH  10  16
ATOM     16  C   UNL     1       1.407   9.041  19.521  0.00  0.00    +0.000 A 
ATOM     17  C   UNL     1       1.969   9.150  18.245  0.00  0.00    +0.000 A 
ATOM     18  C   UNL     1       2.757   8.121  17.736  0.00  0.00    +0.000 A 
ATOM     19  N   UNL     1       2.984   6.998  18.457  0.00  0.00    +0.000 N 
ATOM     20  C   UNL     1       2.506   6.893  19.717  0.00  0.00    +0.000 A 
ATOM     21  C   UNL     1       1.725   7.906  20.270  0.00  0.00    +0.000 A 
BRANCH  19  22
ATOM     22  C   UNL     1       3.707   5.853  17.838  0.00  0.00    +0.000 C 
BRANCH  22  23
ATOM     23  C   UNL     1       3.102   4.537  18.246  0.00  0.00    +0.000 A 
ATOM     24  C   UNL     1       1.789   4.213  17.870  0.00  0.00    +0.000 A 
ATOM     25  C   UNL     1       1.188   3.041  18.332  0.00  0.00    +0.000 A 
ATOM     26  C   UNL     1       1.895   2.172  19.161  0.00  0.00    +0.000 A 
ATOM     27  C   UNL     1       3.217   2.454  19.495  0.00  0.00    +0.000 A 
ATOM     28  C   UNL     1       3.821   3.627  19.039  0.00  0.00    +0.000 A 
ENDBRANCH  22  23
ENDBRANCH  19  22
ENDBRANCH  10  16
BRANCH   1  30
ATOM     29  C   UNL     1      -3.347  10.371  14.858  0.00  0.00    +0.000 C 
ATOM     30  O   UNL     1      -3.257   9.958  16.215  0.00  0.00    +0.000 OA
ENDBRANCH   1  30
TORSDOF 4
ENDMDL
MODEL 3
REMARK VINA RESULT:      -8.9      0.578      1.065
REMARK  Name = 
REMARK  5 active torsions:
REMARK  status: ('A' for Active; 'I' for Inactive)
REMARK    1  A    between atoms: C_1  and  O_2
REMARK    2  A    between atoms: O_2  and  C_3
REMARK    3  A    between atoms: C_12  and  C_13
REMARK    4  A    between atoms: N_16  and  C_17
REMARK    5  A    between atoms: C_17  and  C_18
REMARK                            x       y       z     vdW  Elec       q    Type
REMARK                         _______ _______ _______ _____ _____    ______ ____
ROOT
ATOM      1  C   UNL     1      -3.607  11.105  17.829  0.00  0.00    +0.000 A 
ATOM      2  C   UNL     1      -4.815  11.793  18.012  0.00  0.00    +0.000 A 
ATOM      3  C   UNL     1      -5.006  12.629  19.113  0.00  0.00    +0.000 A 
ATOM      4  C   UNL     1      -3.992  12.786  20.052  0.00  0.00    +0.000 A 
ATOM      5  C   UNL     1      -2.792  12.074  19.912  0.00  0.00    +0.000 A 
ATOM      6  C   UNL     1      -2.599  11.208  18.801  0.00  0.00    +0.000 A 
ATOM      7  C   UNL     1      -1.316  10.410  18.667  0.00  0.00    +0.000 C 
ATOM      8  O   UNL     1      -1.019   9.742  17.688  0.00  0.00    +0.000 OA
ATOM      9  C   UNL     1      -0.385  10.517  19.765  0.00  0.00    +0.000 A 
ATOM     10  C   UNL     1       0.856   9.901  20.079  0.00  0.00    +0.000 A 
ATOM     11  N   UNL     1       1.373  10.465  21.183  0.00  0.00    +0.000 NA
ATOM     12  O   UNL     1       0.447  11.401  21.621  0.00  0.00    +0.000 OA
ATOM     13  C   UNL     1      -0.602  11.415  20.776  0.00  0.00    +0.000 A 
ATOM     14  C   UNL     1      -1.735  12.260  20.954  0.00  0.00    +0.000 C 
ATOM     15  O   UNL     1      -1.867  13.084  21.852  0.00  0.00    +0.000 OA
ENDROOT
BRANCH  10  16
ATOM     16  C   UNL     1       1.580   8.825  19.393  0.00  0.00    +0.000 A 
ATOM     17  C   UNL     1       1.826   7.612  20.044  0.00  0.00    +0.000 A 
ATOM     18  C   UNL     1       2.560   6.613  19.410  0.00  0.00    +0.000 A 
ATOM     19  N   UNL     1       3.055   6.799  18.164  0.00  0.00    +0.000 N 
ATOM     20  C   UNL     1       2.778   7.936  17.487  0.00  0.00    +0.000 A 
ATOM     21  C   UNL     1       2.036   8.955  18.079  0.00  0.00    +0.000 A 
BRANCH  19  22
ATOM     22  C   UNL     1       3.956   5.777  17.563  0.00  0.00    +0.000 C 
BRANCH  22  23
ATOM     23  C   UNL     1       5.397   6.046  17.905  0.00  0.00    +0.000 A 
ATOM     24  C   UNL     1       6.009   5.375  18.974  0.00  0.00    +0.000 A 
ATOM     25  C   UNL     1       7.312   5.697  19.359  0.00  0.00    +0.000 A 
ATOM     26  C   UNL     1       8.022   6.680  18.673  0.00  0.00    +0.000 A 
ATOM     27  C   UNL     1       7.445   7.313  17.576  0.00  0.00    +0.000 A 
ATOM     28  C   UNL     1       6.141   6.998  17.189  0.00  0.00    +0.000 A 
ENDBRANCH  22  23
ENDBRANCH  19  22
ENDBRANCH  10  16
BRANCH   1  30
ATOM     29  C   UNL     1      -3.465  10.832  15.459  0.00  0.00    +0.000 C 
ATOM     30  O   UNL     1      -3.370  10.283  16.767  0.00  0.00    +0.000 OA
ENDBRANCH   1  30
TORSDOF 4
ENDMDL
MODEL 4
REMARK VINA RESULT:      -8.4      1.895      2.858
REMARK  Name = 
REMARK  5 active torsions:
REMARK  status: ('A' for Active; 'I' for Inactive)
REMARK    1  A    between atoms: C_1  and  O_2
REMARK    2  A    between atoms: O_2  and  C_3
REMARK    3  A    between atoms: C_12  and  C_13
REMARK    4  A    between atoms: N_16  and  C_17
REMARK    5  A    between atoms: C_17  and  C_18
REMARK                            x       y       z     vdW  Elec       q    Type
REMARK                         _______ _______ _______ _____ _____    ______ ____
ROOT
ATOM      1  C   UNL     1      -4.207  11.895  18.790  0.00  0.00    +0.000 A 
ATOM      2  C   UNL     1      -5.363  12.633  19.078  0.00  0.00    +0.000 A 
ATOM      3  C   UNL     1      -5.361  13.614  20.072  0.00  0.00    +0.000 A 
ATOM      4  C   UNL     1      -4.201  13.868  20.796  0.00  0.00    +0.000 A 
ATOM      5  C   UNL     1      -3.045  13.112  20.554  0.00  0.00    +0.000 A 
ATOM      6  C   UNL     1      -3.047  12.101  19.555  0.00  0.00    +0.000 A 
ATOM      7  C   UNL     1      -1.809  11.260  19.315  0.00  0.00    +0.000 C 
ATOM      8  O   UNL     1      -1.685  10.460  18.400  0.00  0.00    +0.000 OA
ATOM      9  C   UNL     1      -0.702  11.488  20.216  0.00  0.00    +0.000 A 
ATOM     10  C   UNL     1       0.572  10.888  20.395  0.00  0.00    +0.000 A 
ATOM     11  N   UNL     1       1.272  11.580  21.310  0.00  0.00    +0.000 NA
ATOM     12  O   UNL     1       0.437  12.591  21.766  0.00  0.00    +0.000 OA
ATOM     13  C   UNL     1      -0.742  12.519  21.116  0.00  0.00    +0.000 A 
ATOM     14  C   UNL     1      -1.825  13.408  21.367  0.00  0.00    +0.000 C 
ATOM     15  O   UNL     1      -1.799  14.349  22.154  0.00  0.00    +0.000 OA
ENDROOT
BRANCH  10  16
ATOM     16  C   UNL     1       1.165   9.712  19.750  0.00  0.00    +0.000 A 
ATOM     17  C   UNL     1       1.391   8.542  20.483  0.00  0.00    +0.000 A 
ATOM     18  C   UNL     1       2.003   7.446  19.881  0.00  0.00    +0.000 A 
ATOM     19  N   UNL     1       2.398   7.494  18.588  0.00  0.00    +0.000 N 
ATOM     20  C   UNL     1       2.135   8.588  17.838  0.00  0.00    +0.000 A 
ATOM     21  C   UNL     1       1.511   9.701  18.397  0.00  0.00    +0.000 A 
BRANCH  19  22
ATOM     22  C   UNL     1       3.178   6.366  18.007  0.00  0.00    +0.000 C 
BRANCH  22  23
ATOM     23  C   UNL     1       2.700   5.039  18.534  0.00  0.00    +0.000 A 
ATOM     24  C   UNL     1       3.378   4.411  19.591  0.00  0.00    +0.000 A 
ATOM     25  C   UNL     1       3.001   3.135  20.014  0.00  0.00    +0.000 A 
ATOM     26  C   UNL     1       1.938   2.479  19.397  0.00  0.00    +0.000 A 
ATOM     27  C   UNL     1       1.223   3.114  18.386  0.00  0.00    +0.000 A 
ATOM     28  C   UNL     1       1.597   4.389  17.957  0.00  0.00    +0.000 A 
ENDBRANCH  22  23
ENDBRANCH  19  22
ENDBRANCH  10  16
BRANCH   1  30
ATOM     29  C   UNL     1      -4.535  11.290  16.501  0.00  0.00    +0.000 C 
ATOM     30  O   UNL     1      -4.157  10.934  17.825  0.00  0.00    +0.000 OA
ENDBRANCH   1  30
TORSDOF 4
ENDMDL
MODEL 5
REMARK VINA RESULT:      -8.3      0.994      1.478
REMARK  Name = 
REMARK  5 active torsions:
REMARK  status: ('A' for Active; 'I' for Inactive)
REMARK    1  A    between atoms: C_1  and  O_2
REMARK    2  A    between atoms: O_2  and  C_3
REMARK    3  A    between atoms: C_12  and  C_13
REMARK    4  A    between atoms: N_16  and  C_17
REMARK    5  A    between atoms: C_17  and  C_18
REMARK                            x       y       z     vdW  Elec       q    Type
REMARK                         _______ _______ _______ _____ _____    ______ ____
ROOT
ATOM      1  C   UNL     1      -4.151  11.641  18.524  0.00  0.00    +0.000 A 
ATOM      2  C   UNL     1      -5.350  12.336  18.731  0.00  0.00    +0.000 A 
ATOM      3  C   UNL     1      -5.456  13.304  19.731  0.00  0.00    +0.000 A 
ATOM      4  C   UNL     1      -4.363  13.588  20.544  0.00  0.00    +0.000 A 
ATOM      5  C   UNL     1      -3.166  12.874  20.382  0.00  0.00    +0.000 A 
ATOM      6  C   UNL     1      -3.059  11.876  19.375  0.00  0.00    +0.000 A 
ATOM      7  C   UNL     1      -1.778  11.079  19.221  0.00  0.00    +0.000 C 
ATOM      8  O   UNL     1      -1.558  10.296  18.311  0.00  0.00    +0.000 OA
ATOM      9  C   UNL     1      -0.751  11.334  20.205  0.00  0.00    +0.000 A 
ATOM     10  C   UNL     1       0.526  10.774  20.475  0.00  0.00    +0.000 A 
ATOM     11  N   UNL     1       1.131  11.478  21.446  0.00  0.00    +0.000 NA
ATOM     12  O   UNL     1       0.230  12.454  21.848  0.00  0.00    +0.000 OA
ATOM     13  C   UNL     1      -0.893  12.351  21.111  0.00  0.00    +0.000 A 
ATOM     14  C   UNL     1      -2.022  13.201  21.287  0.00  0.00    +0.000 C 
ATOM     15  O   UNL     1      -2.088  14.132  22.084  0.00  0.00    +0.000 OA
ENDROOT
BRANCH  10  16
ATOM     16  C   UNL     1       1.206   9.626  19.864  0.00  0.00    +0.000 A 
ATOM     17  C   UNL     1       1.645   9.690  18.538  0.00  0.00    +0.000 A 
ATOM     18  C   UNL     1       2.242   8.580  17.944  0.00  0.00    +0.000 A 
ATOM     19  N   UNL     1       2.397   7.424  18.630  0.00  0.00    +0.000 N 
ATOM     20  C   UNL     1       2.040   7.355  19.933  0.00  0.00    +0.000 A 
ATOM     21  C   UNL     1       1.452   8.446  20.569  0.00  0.00    +0.000 A 
BRANCH  19  22
ATOM     22  C   UNL     1       2.904   6.210  17.933  0.00  0.00    +0.000 C 
BRANCH  22  23
ATOM     23  C   UNL     1       4.402   6.108  18.027  0.00  0.00    +0.000 A 
ATOM     24  C   UNL     1       5.213   6.624  17.004  0.00  0.00    +0.000 A 
ATOM     25  C   UNL     1       6.597   6.440  17.036  0.00  0.00    +0.000 A 
ATOM     26  C   UNL     1       7.187   5.755  18.096  0.00  0.00    +0.000 A 
ATOM     27  C   UNL     1       6.399   5.288  19.145  0.00  0.00    +0.000 A 
ATOM     28  C   UNL     1       5.015   5.466  19.115  0.00  0.00    +0.000 A 
ENDBRANCH  22  23
ENDBRANCH  19  22
ENDBRANCH  10  16
BRANCH   1  30
ATOM     29  C   UNL     1      -4.178  11.082  16.200  0.00  0.00    +0.000 C 
ATOM     30  O   UNL     1      -3.996  10.694  17.555  0.00  0.00    +0.000 OA
ENDBRANCH   1  30
TORSDOF 4
ENDMDL
MODEL 6
REMARK VINA RESULT:      -8.2      1.678      2.275
REMARK  Name = 
REMARK  5 active torsions:
REMARK  status: ('A' for Active; 'I' for Inactive)
REMARK    1  A    between atoms: C_1  and  O_2
REMARK    2  A    between atoms: O_2  and  C_3
REMARK    3  A    between atoms: C_12  and  C_13
REMARK    4  A    between atoms: N_16  and  C_17
REMARK    5  A    between atoms: C_17  and  C_18
REMARK                            x       y       z     vdW  Elec       q    Type
REMARK                         _______ _______ _______ _____ _____    ______ ____
ROOT
ATOM      1  C   UNL     1      -2.134  11.348  18.534  0.00  0.00    +0.000 A 
ATOM      2  C   UNL     1      -3.136  12.309  18.726  0.00  0.00    +0.000 A 
ATOM      3  C   UNL     1      -3.295  12.946  19.958  0.00  0.00    +0.000 A 
ATOM      4  C   UNL     1      -2.455  12.626  21.020  0.00  0.00    +0.000 A 
ATOM      5  C   UNL     1      -1.474  11.637  20.863  0.00  0.00    +0.000 A 
ATOM      6  C   UNL     1      -1.319  10.973  19.615  0.00  0.00    +0.000 A 
ATOM      7  C   UNL     1      -0.283   9.879  19.453  0.00  0.00    +0.000 C 
ATOM      8  O   UNL     1      -0.001   9.347  18.390  0.00  0.00    +0.000 OA
ATOM      9  C   UNL     1       0.438   9.506  20.648  0.00  0.00    +0.000 A 
ATOM     10  C   UNL     1       1.404   8.512  20.956  0.00  0.00    +0.000 A 
ATOM     11  N   UNL     1       1.848   8.687  22.212  0.00  0.00    +0.000 NA
ATOM     12  O   UNL     1       1.132   9.753  22.740  0.00  0.00    +0.000 OA
ATOM     13  C   UNL     1       0.287  10.226  21.804  0.00  0.00    +0.000 A 
ATOM     14  C   UNL     1      -0.603  11.313  22.035  0.00  0.00    +0.000 C 
ATOM     15  O   UNL     1      -0.673  11.960  23.075  0.00  0.00    +0.000 OA
ENDROOT
BRANCH  10  16
ATOM     16  C   UNL     1       1.935   7.419  20.134  0.00  0.00    +0.000 A 
ATOM     17  C   UNL     1       2.546   7.692  18.906  0.00  0.00    +0.000 A 
ATOM     18  C   UNL     1       3.000   6.650  18.102  0.00  0.00    +0.000 A 
ATOM     19  N   UNL     1       2.850   5.361  18.486  0.00  0.00    +0.000 N 
ATOM     20  C   UNL     1       2.321   5.070  19.696  0.00  0.00    +0.000 A 
ATOM     21  C   UNL     1       1.867   6.084  20.537  0.00  0.00    +0.000 A 
BRANCH  19  22
ATOM     22  C   UNL     1       3.211   4.261  17.549  0.00  0.00    +0.000 C 
BRANCH  22  23
ATOM     23  C   UNL     1       4.656   4.343  17.137  0.00  0.00    +0.000 A 
ATOM     24  C   UNL     1       5.665   4.442  18.108  0.00  0.00    +0.000 A 
ATOM     25  C   UNL     1       6.997   4.623  17.728  0.00  0.00    +0.000 A 
ATOM     26  C   UNL     1       7.337   4.690  16.379  0.00  0.00    +0.000 A 
ATOM     27  C   UNL     1       6.353   4.536  15.407  0.00  0.00    +0.000 A 
ATOM     28  C   UNL     1       5.019   4.360  15.780  0.00  0.00    +0.000 A 
ENDBRANCH  22  23
ENDBRANCH  19  22
ENDBRANCH  10  16
BRANCH   1  30
ATOM     29  C   UNL     1      -3.076  10.339  16.583  0.00  0.00    +0.000 C 
ATOM     30  O   UNL     1      -1.935  10.705  17.348  0.00  0.00    +0.000 OA
ENDBRANCH   1  30
TORSDOF 4
ENDMDL
MODEL 7
REMARK VINA RESULT:      -8.2      1.206      2.038
REMARK  Name = 
REMARK  5 active torsions:
REMARK  status: ('A' for Active; 'I' for Inactive)
REMARK    1  A    between atoms: C_1  and  O_2
REMARK    2  A    between atoms: O_2  and  C_3
REMARK    3  A    between atoms: C_12  and  C_13
REMARK    4  A    between atoms: N_16  and  C_17
REMARK    5  A    between atoms: C_17  and  C_18
REMARK                            x       y       z     vdW  Elec       q    Type
REMARK                         _______ _______ _______ _____ _____    ______ ____
ROOT
ATOM      1  C   UNL     1      -3.180  11.897  18.943  0.00  0.00    +0.000 A 
ATOM      2  C   UNL     1      -4.297  12.703  19.201  0.00  0.00    +0.000 A 
ATOM      3  C   UNL     1      -4.519  13.238  20.471  0.00  0.00    +0.000 A 
ATOM      4  C   UNL     1      -3.628  12.969  21.505  0.00  0.00    +0.000 A 
ATOM      5  C   UNL     1      -2.527  12.130  21.280  0.00  0.00    +0.000 A 
ATOM      6  C   UNL     1      -2.306  11.569  19.992  0.00  0.00    +0.000 A 
ATOM      7  C   UNL     1      -1.136  10.634  19.755  0.00  0.00    +0.000 C 
ATOM      8  O   UNL     1      -0.804  10.209  18.659  0.00  0.00    +0.000 OA
ATOM      9  C   UNL     1      -0.354  10.289  20.919  0.00  0.00    +0.000 A 
ATOM     10  C   UNL     1       0.740   9.415  21.157  0.00  0.00    +0.000 A 
ATOM     11  N   UNL     1       1.176   9.572  22.419  0.00  0.00    +0.000 NA
ATOM     12  O   UNL     1       0.334  10.499  23.017  0.00  0.00    +0.000 OA
ATOM     13  C   UNL     1      -0.581  10.911  22.118  0.00  0.00    +0.000 A 
ATOM     14  C   UNL     1      -1.603  11.854  22.423  0.00  0.00    +0.000 C 
ATOM     15  O   UNL     1      -1.741  12.422  23.502  0.00  0.00    +0.000 OA
ENDROOT
BRANCH  10  16
ATOM     16  C   UNL     1       1.397   8.454  20.264  0.00  0.00    +0.000 A 
ATOM     17  C   UNL     1       1.586   7.129  20.669  0.00  0.00    +0.000 A 
ATOM     18  C   UNL     1       2.258   6.233  19.841  0.00  0.00    +0.000 A 
ATOM     19  N   UNL     1       2.747   6.627  18.642  0.00  0.00    +0.000 N 
ATOM     20  C   UNL     1       2.522   7.885  18.198  0.00  0.00    +0.000 A 
ATOM     21  C   UNL     1       1.842   8.809  18.989  0.00  0.00    +0.000 A 
BRANCH  19  22
ATOM     22  C   UNL     1       3.585   5.695  17.840  0.00  0.00    +0.000 C 
BRANCH  22  23
ATOM     23  C   UNL     1       5.052   5.940  18.067  0.00  0.00    +0.000 A 
ATOM     24  C   UNL     1       5.787   6.728  17.168  0.00  0.00    +0.000 A 
ATOM     25  C   UNL     1       7.168   6.872  17.318  0.00  0.00    +0.000 A 
ATOM     26  C   UNL     1       7.826   6.246  18.374  0.00  0.00    +0.000 A 
ATOM     27  C   UNL     1       7.100   5.508  19.304  0.00  0.00    +0.000 A 
ATOM     28  C   UNL     1       5.720   5.357  19.157  0.00  0.00    +0.000 A 
ENDBRANCH  22  23
ENDBRANCH  19  22
ENDBRANCH  10  16
BRANCH   1  30
ATOM     29  C   UNL     1      -4.012  11.078  16.857  0.00  0.00    +0.000 C 
ATOM     30  O   UNL     1      -2.917  11.359  17.718  0.00  0.00    +0.000 OA
ENDBRANCH   1  30
TORSDOF 4
ENDMDL
MODEL 8
REMARK VINA RESULT:      -8.1      1.581      2.151
REMARK  Name = 
REMARK  5 active torsions:
REMARK  status: ('A' for Active; 'I' for Inactive)
REMARK    1  A    between atoms: C_1  and  O_2
REMARK    2  A    between atoms: O_2  and  C_3
REMARK    3  A    between atoms: C_12  and  C_13
REMARK    4  A    between atoms: N_16  and  C_17
REMARK    5  A    between atoms: C_17  and  C_18
REMARK                            x       y       z     vdW  Elec       q    Type
REMARK                         _______ _______ _______ _____ _____    ______ ____
ROOT
ATOM      1  C   UNL     1      -2.671  11.352  18.768  0.00  0.00    +0.000 A 
ATOM      2  C   UNL     1      -3.733  12.241  18.987  0.00  0.00    +0.000 A 
ATOM      3  C   UNL     1      -3.886  12.889  20.213  0.00  0.00    +0.000 A 
ATOM      4  C   UNL     1      -2.980  12.654  21.243  0.00  0.00    +0.000 A 
ATOM      5  C   UNL     1      -1.936  11.736  21.060  0.00  0.00    +0.000 A 
ATOM      6  C   UNL     1      -1.785  11.061  19.818  0.00  0.00    +0.000 A 
ATOM      7  C   UNL     1      -0.678  10.042  19.630  0.00  0.00    +0.000 C 
ATOM      8  O   UNL     1      -0.403   9.511  18.565  0.00  0.00    +0.000 OA
ATOM      9  C   UNL     1       0.119   9.749  20.799  0.00  0.00    +0.000 A 
ATOM     10  C   UNL     1       1.168   8.834  21.081  0.00  0.00    +0.000 A 
ATOM     11  N   UNL     1       1.650   9.068  22.313  0.00  0.00    +0.000 NA
ATOM     12  O   UNL     1       0.881  10.088  22.854  0.00  0.00    +0.000 OA
ATOM     13  C   UNL     1      -0.037  10.479  21.947  0.00  0.00    +0.000 A 
ATOM     14  C   UNL     1      -0.995  11.502  22.199  0.00  0.00    +0.000 C 
ATOM     15  O   UNL     1      -1.069  12.162  23.230  0.00  0.00    +0.000 OA
ENDROOT
BRANCH  10  16
ATOM     16  C   UNL     1       1.743   7.768  20.255  0.00  0.00    +0.000 A 
ATOM     17  C   UNL     1       2.257   8.056  18.986  0.00  0.00    +0.000 A 
ATOM     18  C   UNL     1       2.754   7.033  18.183  0.00  0.00    +0.000 A 
ATOM     19  N   UNL     1       2.738   5.747  18.605  0.00  0.00    +0.000 N 
ATOM     20  C   UNL     1       2.306   5.448  19.851  0.00  0.00    +0.000 A 
ATOM     21  C   UNL     1       1.815   6.444  20.693  0.00  0.00    +0.000 A 
BRANCH  19  22
ATOM     22  C   UNL     1       3.139   4.655  17.676  0.00  0.00    +0.000 C 
BRANCH  22  23
ATOM     23  C   UNL     1       4.616   4.692  17.390  0.00  0.00    +0.000 A 
ATOM     24  C   UNL     1       5.093   4.442  16.094  0.00  0.00    +0.000 A 
ATOM     25  C   UNL     1       6.465   4.373  15.846  0.00  0.00    +0.000 A 
ATOM     26  C   UNL     1       7.375   4.567  16.883  0.00  0.00    +0.000 A 
ATOM     27  C   UNL     1       6.914   4.871  18.162  0.00  0.00    +0.000 A 
ATOM     28  C   UNL     1       5.543   4.938  18.416  0.00  0.00    +0.000 A 
ENDBRANCH  22  23
ENDBRANCH  19  22
ENDBRANCH  10  16
BRANCH   1  30
ATOM     29  C   UNL     1      -2.963  11.307  16.396  0.00  0.00    +0.000 C 
ATOM     30  O   UNL     1      -2.475  10.701  17.586  0.00  0.00    +0.000 OA
ENDBRANCH   1  30
TORSDOF 4
ENDMDL
MODEL 9
REMARK VINA RESULT:      -8.0      3.710      5.361
REMARK  Name = 
REMARK  5 active torsions:
REMARK  status: ('A' for Active; 'I' for Inactive)
REMARK    1  A    between atoms: C_1  and  O_2
REMARK    2  A    between atoms: O_2  and  C_3
REMARK    3  A    between atoms: C_12  and  C_13
REMARK    4  A    between atoms: N_16  and  C_17
REMARK    5  A    between atoms: C_17  and  C_18
REMARK                            x       y       z     vdW  Elec       q    Type
REMARK                         _______ _______ _______ _____ _____    ______ ____
ROOT
ATOM      1  C   UNL     1       2.824  15.499  18.688  0.00  0.00    +0.000 A 
ATOM      2  C   UNL     1       2.781  16.875  18.422  0.00  0.00    +0.000 A 
ATOM      3  C   UNL     1       1.602  17.603  18.591  0.00  0.00    +0.000 A 
ATOM      4  C   UNL     1       0.444  16.963  19.023  0.00  0.00    +0.000 A 
ATOM      5  C   UNL     1       0.454  15.579  19.253  0.00  0.00    +0.000 A 
ATOM      6  C   UNL     1       1.649  14.831  19.067  0.00  0.00    +0.000 A 
ATOM      7  C   UNL     1       1.653  13.330  19.282  0.00  0.00    +0.000 C 
ATOM      8  O   UNL     1       2.656  12.634  19.265  0.00  0.00    +0.000 OA
ATOM      9  C   UNL     1       0.374  12.729  19.579  0.00  0.00    +0.000 A 
ATOM     10  C   UNL     1      -0.077  11.395  19.767  0.00  0.00    +0.000 A 
ATOM     11  N   UNL     1      -1.364  11.404  20.154  0.00  0.00    +0.000 NA
ATOM     12  O   UNL     1      -1.766  12.732  20.161  0.00  0.00    +0.000 OA
ATOM     13  C   UNL     1      -0.727  13.512  19.806  0.00  0.00    +0.000 A 
ATOM     14  C   UNL     1      -0.816  14.929  19.702  0.00  0.00    +0.000 C 
ATOM     15  O   UNL     1      -1.813  15.595  19.958  0.00  0.00    +0.000 OA
ENDROOT
BRANCH  10  16
ATOM     16  C   UNL     1       0.637  10.123  19.611  0.00  0.00    +0.000 A 
ATOM     17  C   UNL     1       0.857   9.296  20.718  0.00  0.00    +0.000 A 
ATOM     18  C   UNL     1       1.581   8.116  20.578  0.00  0.00    +0.000 A 
ATOM     19  N   UNL     1       2.093   7.753  19.378  0.00  0.00    +0.000 N 
ATOM     20  C   UNL     1       1.841   8.500  18.279  0.00  0.00    +0.000 A 
ATOM     21  C   UNL     1       1.108   9.681  18.373  0.00  0.00    +0.000 A 
BRANCH  19  22
ATOM     22  C   UNL     1       2.984   6.564  19.280  0.00  0.00    +0.000 C 
BRANCH  22  23
ATOM     23  C   UNL     1       2.198   5.282  19.344  0.00  0.00    +0.000 A 
ATOM     24  C   UNL     1       1.766   4.776  20.580  0.00  0.00    +0.000 A 
ATOM     25  C   UNL     1       1.129   3.536  20.653  0.00  0.00    +0.000 A 
ATOM     26  C   UNL     1       0.902   2.796  19.494  0.00  0.00    +0.000 A 
ATOM     27  C   UNL     1       1.275   3.313  18.257  0.00  0.00    +0.000 A 
ATOM     28  C   UNL     1       1.916   4.551  18.178  0.00  0.00    +0.000 A 
ENDBRANCH  22  23
ENDBRANCH  19  22
ENDBRANCH  10  16
BRANCH   1  30
ATOM     29  C   UNL     1       5.046  15.306  17.828  0.00  0.00    +0.000 C 
ATOM     30  O   UNL     1       3.953  14.748  18.546  0.00  0.00    +0.000 OA
ENDBRANCH   1  30
TORSDOF 4
ENDMDL
