MODEL 1
REMARK VINA RESULT:      -7.4      0.000      0.000
REMARK  Name = 
REMARK  9 active torsions:
REMARK  status: ('A' for Active; 'I' for Inactive)
REMARK    1  A    between atoms: C_2  and  O_3
REMARK    2  A    between atoms: C_2  and  C_4
REMARK    3  A    between atoms: C_7  and  C_8
REMARK    4  A    between atoms: C_8  and  N_9
REMARK    5  A    between atoms: C_10  and  C_11
REMARK    6  A    between atoms: C_11  and  O_13
REMARK    7  A    between atoms: C_14  and  C_15
REMARK    8  A    between atoms: C_15  and  C_16
REMARK    9  A    between atoms: C_16  and  S_17
REMARK                            x       y       z     vdW  Elec       q    Type
REMARK                         _______ _______ _______ _____ _____    ______ ____
ROOT
ATOM      1  N   UNL     1       3.969   5.756  17.428  0.00  0.00    +0.000 N 
ATOM      2  C   UNL     1       5.222   5.206  17.687  0.00  0.00    +0.000 A 
ATOM      3  C   UNL     1       5.109   4.112  16.785  0.00  0.00    +0.000 A 
ATOM      4  C   UNL     1       3.969   3.521  17.391  0.00  0.00    +0.000 A 
ATOM      5  C   UNL     1       3.500   2.203  17.475  0.00  0.00    +0.000 A 
ATOM      6  C   UNL     1       2.226   1.994  17.982  0.00  0.00    +0.000 A 
ATOM      7  C   UNL     1       1.405   3.086  18.272  0.00  0.00    +0.000 A 
ATOM      8  C   UNL     1       1.816   4.422  18.076  0.00  0.00    +0.000 A 
ATOM      9  C   UNL     1       3.135   4.640  17.666  0.00  0.00    +0.000 A 
ENDROOT
BRANCH   2  10
ATOM     10  C   UNL     1       5.634   5.206  19.117  0.00  0.00    +0.000 C 
ATOM     11  O   UNL     1       4.889   5.160  20.081  0.00  0.00    +0.000 OA
BRANCH  10  12
ATOM     12  O   UNL     1       6.970   5.131  19.271  0.00  0.00    +0.000 OA
ATOM     13  H   UNL     1       7.378   6.007  19.370  0.00  0.00    +0.000 HD
ENDBRANCH  10  12
ENDBRANCH   2  10
BRANCH   1  14
ATOM     14  C   UNL     1       3.691   7.195  17.249  0.00  0.00    +0.000 C 
BRANCH  14  18
ATOM     15  C   UNL     1       0.803   9.210  19.910  0.00  0.00    +0.000 A 
ATOM     16  C   UNL     1       1.535   8.107  20.380  0.00  0.00    +0.000 A 
ATOM     17  C   UNL     1       2.468   7.441  19.545  0.00  0.00    +0.000 A 
ATOM     18  C   UNL     1       2.704   7.873  18.222  0.00  0.00    +0.000 A 
ATOM     19  C   UNL     1       2.034   9.037  17.818  0.00  0.00    +0.000 A 
ATOM     20  C   UNL     1       1.090   9.685  18.633  0.00  0.00    +0.000 A 
BRANCH  15  22
ATOM     21  O   UNL     1      -0.758  10.908  20.515  0.00  0.00    +0.000 OA
ATOM     22  C   UNL     1      -0.213   9.851  20.781  0.00  0.00    +0.000 C 
BRANCH  22  23
ATOM     23  O   UNL     1      -0.437   9.178  21.936  0.00  0.00    +0.000 OA
ATOM     24  H   UNL     1      -1.157   9.525  22.491  0.00  0.00    +0.000 HD
ENDBRANCH  22  23
ENDBRANCH  15  22
ENDBRANCH  14  18
ENDBRANCH   1  14
BRANCH   3  25
ATOM     25  C   UNL     1       5.165   3.948  15.265  0.00  0.00    +0.000 C 
BRANCH  25  26
ATOM     26  C   UNL     1       6.406   4.352  14.503  0.00  0.00    +0.000 C 
BRANCH  26  27
ATOM     27  S   UNL     1       6.405   3.706  12.806  0.00  0.00    +0.000 S 
ATOM     28  H   UNL     1       5.211   4.209  12.472  0.00  0.00    +0.000 HD
ENDBRANCH  26  27
ENDBRANCH  25  26
ENDBRANCH   3  25
TORSDOF 9
ENDMDL
MODEL 2
REMARK VINA RESULT:      -7.2      3.433      7.147
REMARK  Name = 
REMARK  9 active torsions:
REMARK  status: ('A' for Active; 'I' for Inactive)
REMARK    1  A    between atoms: C_2  and  O_3
REMARK    2  A    between atoms: C_2  and  C_4
REMARK    3  A    between atoms: C_7  and  C_8
REMARK    4  A    between atoms: C_8  and  N_9
REMARK    5  A    between atoms: C_10  and  C_11
REMARK    6  A    between atoms: C_11  and  O_13
REMARK    7  A    between atoms: C_14  and  C_15
REMARK    8  A    between atoms: C_15  and  C_16
REMARK    9  A    between atoms: C_16  and  S_17
REMARK                            x       y       z     vdW  Elec       q    Type
REMARK                         _______ _______ _______ _____ _____    ______ ____
ROOT
ATOM      1  N   UNL     1       5.317   5.822  17.098  0.00  0.00    +0.000 N 
ATOM      2  C   UNL     1       5.941   4.993  18.028  0.00  0.00    +0.000 A 
ATOM      3  C   UNL     1       4.795   4.210  18.340  0.00  0.00    +0.000 A 
ATOM      4  C   UNL     1       3.992   5.282  18.816  0.00  0.00    +0.000 A 
ATOM      5  C   UNL     1       2.954   5.363  19.754  0.00  0.00    +0.000 A 
ATOM      6  C   UNL     1       2.242   6.549  19.839  0.00  0.00    +0.000 A 
ATOM      7  C   UNL     1       2.482   7.572  18.918  0.00  0.00    +0.000 A 
ATOM      8  C   UNL     1       3.438   7.460  17.886  0.00  0.00    +0.000 A 
ATOM      9  C   UNL     1       4.233   6.310  17.862  0.00  0.00    +0.000 A 
ENDROOT
BRANCH   2  10
ATOM     10  C   UNL     1       6.895   5.670  18.947  0.00  0.00    +0.000 C 
ATOM     11  O   UNL     1       7.100   5.380  20.113  0.00  0.00    +0.000 OA
BRANCH  10  12
ATOM     12  O   UNL     1       7.646   6.598  18.323  0.00  0.00    +0.000 OA
ATOM     13  H   UNL     1       8.477   6.228  17.982  0.00  0.00    +0.000 HD
ENDBRANCH  10  12
ENDBRANCH   2  10
BRANCH   1  14
ATOM     14  C   UNL     1       5.891   6.228  15.800  0.00  0.00    +0.000 C 
BRANCH  14  18
ATOM     15  C   UNL     1       6.235   3.230  12.580  0.00  0.00    +0.000 A 
ATOM     16  C   UNL     1       5.001   3.428  13.221  0.00  0.00    +0.000 A 
ATOM     17  C   UNL     1       4.864   4.385  14.259  0.00  0.00    +0.000 A 
ATOM     18  C   UNL     1       5.956   5.178  14.671  0.00  0.00    +0.000 A 
ATOM     19  C   UNL     1       7.145   5.028  13.943  0.00  0.00    +0.000 A 
ATOM     20  C   UNL     1       7.293   4.064  12.930  0.00  0.00    +0.000 A 
BRANCH  15  22
ATOM     21  O   UNL     1       5.430   1.532  11.111  0.00  0.00    +0.000 OA
ATOM     22  C   UNL     1       6.369   2.179  11.540  0.00  0.00    +0.000 C 
BRANCH  22  23
ATOM     23  O   UNL     1       7.650   1.962  11.152  0.00  0.00    +0.000 OA
ATOM     24  H   UNL     1       8.239   1.596  11.834  0.00  0.00    +0.000 HD
ENDBRANCH  22  23
ENDBRANCH  15  22
ENDBRANCH  14  18
ENDBRANCH   1  14
BRANCH   3  25
ATOM     25  C   UNL     1       4.007   3.107  17.632  0.00  0.00    +0.000 C 
BRANCH  25  26
ATOM     26  C   UNL     1       3.450   1.945  18.423  0.00  0.00    +0.000 C 
BRANCH  26  27
ATOM     27  S   UNL     1       1.675   2.134  18.752  0.00  0.00    +0.000 S 
ATOM     28  H   UNL     1       1.267   1.668  17.566  0.00  0.00    +0.000 HD
ENDBRANCH  26  27
ENDBRANCH  25  26
ENDBRANCH   3  25
TORSDOF 9
ENDMDL
MODEL 3
REMARK VINA RESULT:      -7.1      4.360      7.959
REMARK  Name = 
REMARK  9 active torsions:
REMARK  status: ('A' for Active; 'I' for Inactive)
REMARK    1  A    between atoms: C_2  and  O_3
REMARK    2  A    between atoms: C_2  and  C_4
REMARK    3  A    between atoms: C_7  and  C_8
REMARK    4  A    between atoms: C_8  and  N_9
REMARK    5  A    between atoms: C_10  and  C_11
REMARK    6  A    between atoms: C_11  and  O_13
REMARK    7  A    between atoms: C_14  and  C_15
REMARK    8  A    between atoms: C_15  and  C_16
REMARK    9  A    between atoms: C_16  and  S_17
REMARK                            x       y       z     vdW  Elec       q    Type
REMARK                         _______ _______ _______ _____ _____    ______ ____
ROOT
ATOM      1  N   UNL     1       1.024  10.168  18.581  0.00  0.00    +0.000 N 
ATOM      2  C   UNL     1       1.209  11.373  19.255  0.00  0.00    +0.000 A 
ATOM      3  C   UNL     1       0.137  11.209  20.176  0.00  0.00    +0.000 A 
ATOM      4  C   UNL     1      -0.898  11.124  19.207  0.00  0.00    +0.000 A 
ATOM      5  C   UNL     1      -2.260  11.455  19.223  0.00  0.00    +0.000 A 
ATOM      6  C   UNL     1      -3.041  11.055  18.150  0.00  0.00    +0.000 A 
ATOM      7  C   UNL     1      -2.495  10.236  17.158  0.00  0.00    +0.000 A 
ATOM      8  C   UNL     1      -1.157   9.789  17.191  0.00  0.00    +0.000 A 
ATOM      9  C   UNL     1      -0.336  10.276  18.213  0.00  0.00    +0.000 A 
ENDROOT
BRANCH   2  10
ATOM     10  C   UNL     1       1.536  12.541  18.394  0.00  0.00    +0.000 C 
ATOM     11  O   UNL     1       1.087  13.669  18.509  0.00  0.00    +0.000 OA
BRANCH  10  12
ATOM     12  O   UNL     1       2.514  12.274  17.507  0.00  0.00    +0.000 OA
ATOM     13  H   UNL     1       2.398  11.406  17.085  0.00  0.00    +0.000 HD
ENDBRANCH  10  12
ENDBRANCH   2  10
BRANCH   1  14
ATOM     14  C   UNL     1       2.103   9.247  18.173  0.00  0.00    +0.000 C 
BRANCH  14  18
ATOM     15  C   UNL     1       2.016   5.215  19.965  0.00  0.00    +0.000 A 
ATOM     16  C   UNL     1       2.416   5.377  18.629  0.00  0.00    +0.000 A 
ATOM     17  C   UNL     1       2.452   6.662  18.029  0.00  0.00    +0.000 A 
ATOM     18  C   UNL     1       2.102   7.819  18.757  0.00  0.00    +0.000 A 
ATOM     19  C   UNL     1       1.806   7.634  20.115  0.00  0.00    +0.000 A 
ATOM     20  C   UNL     1       1.745   6.361  20.708  0.00  0.00    +0.000 A 
BRANCH  15  22
ATOM     21  O   UNL     1       2.899   3.178  20.837  0.00  0.00    +0.000 OA
ATOM     22  C   UNL     1       1.926   3.854  20.552  0.00  0.00    +0.000 C 
BRANCH  22  23
ATOM     23  O   UNL     1       0.654   3.407  20.688  0.00  0.00    +0.000 OA
ATOM     24  H   UNL     1       0.511   2.756  21.397  0.00  0.00    +0.000 HD
ENDBRANCH  22  23
ENDBRANCH  15  22
ENDBRANCH  14  18
ENDBRANCH   1  14
BRANCH   3  25
ATOM     25  C   UNL     1      -0.103  10.354  21.422  0.00  0.00    +0.000 C 
BRANCH  25  26
ATOM     26  C   UNL     1      -0.708  10.973  22.663  0.00  0.00    +0.000 C 
BRANCH  26  27
ATOM     27  S   UNL     1      -0.872  12.775  22.514  0.00  0.00    +0.000 S 
ATOM     28  H   UNL     1      -2.133  12.759  22.068  0.00  0.00    +0.000 HD
ENDBRANCH  26  27
ENDBRANCH  25  26
ENDBRANCH   3  25
TORSDOF 9
ENDMDL
MODEL 4
REMARK VINA RESULT:      -7.1      3.643      7.078
REMARK  Name = 
REMARK  9 active torsions:
REMARK  status: ('A' for Active; 'I' for Inactive)
REMARK    1  A    between atoms: C_2  and  O_3
REMARK    2  A    between atoms: C_2  and  C_4
REMARK    3  A    between atoms: C_7  and  C_8
REMARK    4  A    between atoms: C_8  and  N_9
REMARK    5  A    between atoms: C_10  and  C_11
REMARK    6  A    between atoms: C_11  and  O_13
REMARK    7  A    between atoms: C_14  and  C_15
REMARK    8  A    between atoms: C_15  and  C_16
REMARK    9  A    between atoms: C_16  and  S_17
REMARK                            x       y       z     vdW  Elec       q    Type
REMARK                         _______ _______ _______ _____ _____    ______ ____
ROOT
ATOM      1  N   UNL     1       6.363   5.492  17.175  0.00  0.00    +0.000 N 
ATOM      2  C   UNL     1       6.776   4.958  18.393  0.00  0.00    +0.000 A 
ATOM      3  C   UNL     1       5.554   4.300  18.705  0.00  0.00    +0.000 A 
ATOM      4  C   UNL     1       4.741   5.465  18.714  0.00  0.00    +0.000 A 
ATOM      5  C   UNL     1       3.566   5.813  19.394  0.00  0.00    +0.000 A 
ATOM      6  C   UNL     1       2.914   6.977  19.018  0.00  0.00    +0.000 A 
ATOM      7  C   UNL     1       3.359   7.696  17.905  0.00  0.00    +0.000 A 
ATOM      8  C   UNL     1       4.468   7.292  17.131  0.00  0.00    +0.000 A 
ATOM      9  C   UNL     1       5.193   6.180  17.569  0.00  0.00    +0.000 A 
ENDROOT
BRANCH   2  10
ATOM     10  C   UNL     1       7.597   5.864  19.240  0.00  0.00    +0.000 C 
ATOM     11  O   UNL     1       8.092   6.923  18.893  0.00  0.00    +0.000 OA
BRANCH  10  12
ATOM     12  O   UNL     1       7.650   5.466  20.526  0.00  0.00    +0.000 OA
ATOM     13  H   UNL     1       8.248   4.710  20.650  0.00  0.00    +0.000 HD
ENDBRANCH  10  12
ENDBRANCH   2  10
BRANCH   1  14
ATOM     14  C   UNL     1       7.167   5.511  15.937  0.00  0.00    +0.000 C 
BRANCH  14  18
ATOM     15  C   UNL     1       5.484   3.340  12.482  0.00  0.00    +0.000 A 
ATOM     16  C   UNL     1       6.743   3.954  12.376  0.00  0.00    +0.000 A 
ATOM     17  C   UNL     1       7.305   4.658  13.471  0.00  0.00    +0.000 A 
ATOM     18  C   UNL     1       6.628   4.752  14.706  0.00  0.00    +0.000 A 
ATOM     19  C   UNL     1       5.423   4.043  14.811  0.00  0.00    +0.000 A 
ATOM     20  C   UNL     1       4.849   3.365  13.721  0.00  0.00    +0.000 A 
BRANCH  15  22
ATOM     21  O   UNL     1       3.893   3.066  10.727  0.00  0.00    +0.000 OA
ATOM     22  C   UNL     1       4.888   2.662  11.304  0.00  0.00    +0.000 C 
BRANCH  22  23
ATOM     23  O   UNL     1       5.520   1.514  10.962  0.00  0.00    +0.000 OA
ATOM     24  H   UNL     1       4.992   0.882  10.444  0.00  0.00    +0.000 HD
ENDBRANCH  22  23
ENDBRANCH  15  22
ENDBRANCH  14  18
ENDBRANCH   1  14
BRANCH   3  25
ATOM     25  C   UNL     1       4.838   3.044  18.205  0.00  0.00    +0.000 C 
BRANCH  25  26
ATOM     26  C   UNL     1       3.935   2.264  19.134  0.00  0.00    +0.000 C 
BRANCH  26  27
ATOM     27  S   UNL     1       2.210   2.266  18.569  0.00  0.00    +0.000 S 
ATOM     28  H   UNL     1       1.681   2.594  19.753  0.00  0.00    +0.000 HD
ENDBRANCH  26  27
ENDBRANCH  25  26
ENDBRANCH   3  25
TORSDOF 9
ENDMDL
MODEL 5
REMARK VINA RESULT:      -6.8      0.681      1.172
REMARK  Name = 
REMARK  9 active torsions:
REMARK  status: ('A' for Active; 'I' for Inactive)
REMARK    1  A    between atoms: C_2  and  O_3
REMARK    2  A    between atoms: C_2  and  C_4
REMARK    3  A    between atoms: C_7  and  C_8
REMARK    4  A    between atoms: C_8  and  N_9
REMARK    5  A    between atoms: C_10  and  C_11
REMARK    6  A    between atoms: C_11  and  O_13
REMARK    7  A    between atoms: C_14  and  C_15
REMARK    8  A    between atoms: C_15  and  C_16
REMARK    9  A    between atoms: C_16  and  S_17
REMARK                            x       y       z     vdW  Elec       q    Type
REMARK                         _______ _______ _______ _____ _____    ______ ____
ROOT
ATOM      1  N   UNL     1       3.771   5.801  17.499  0.00  0.00    +0.000 N 
ATOM      2  C   UNL     1       5.019   5.234  17.743  0.00  0.00    +0.000 A 
ATOM      3  C   UNL     1       4.871   4.130  16.857  0.00  0.00    +0.000 A 
ATOM      4  C   UNL     1       3.732   3.566  17.491  0.00  0.00    +0.000 A 
ATOM      5  C   UNL     1       3.242   2.257  17.600  0.00  0.00    +0.000 A 
ATOM      6  C   UNL     1       1.975   2.077  18.134  0.00  0.00    +0.000 A 
ATOM      7  C   UNL     1       1.178   3.187  18.424  0.00  0.00    +0.000 A 
ATOM      8  C   UNL     1       1.608   4.513  18.203  0.00  0.00    +0.000 A 
ATOM      9  C   UNL     1       2.923   4.703  17.767  0.00  0.00    +0.000 A 
ENDROOT
BRANCH   2  10
ATOM     10  C   UNL     1       5.457   5.244  19.164  0.00  0.00    +0.000 C 
ATOM     11  O   UNL     1       4.735   5.140  20.141  0.00  0.00    +0.000 OA
BRANCH  10  12
ATOM     12  O   UNL     1       6.798   5.253  19.294  0.00  0.00    +0.000 OA
ATOM     13  H   UNL     1       7.106   4.615  19.959  0.00  0.00    +0.000 HD
ENDBRANCH  10  12
ENDBRANCH   2  10
BRANCH   1  14
ATOM     14  C   UNL     1       3.513   7.242  17.306  0.00  0.00    +0.000 C 
BRANCH  14  18
ATOM     15  C   UNL     1       0.805   9.186  20.198  0.00  0.00    +0.000 A 
ATOM     16  C   UNL     1       0.839   9.628  18.865  0.00  0.00    +0.000 A 
ATOM     17  C   UNL     1       1.701   9.022  17.917  0.00  0.00    +0.000 A 
ATOM     18  C   UNL     1       2.540   7.945  18.275  0.00  0.00    +0.000 A 
ATOM     19  C   UNL     1       2.408   7.461  19.585  0.00  0.00    +0.000 A 
ATOM     20  C   UNL     1       1.574   8.075  20.535  0.00  0.00    +0.000 A 
BRANCH  15  22
ATOM     21  O   UNL     1      -0.719  10.868  20.928  0.00  0.00    +0.000 OA
ATOM     22  C   UNL     1      -0.059   9.878  21.188  0.00  0.00    +0.000 C 
BRANCH  22  23
ATOM     23  O   UNL     1       0.002   9.338  22.429  0.00  0.00    +0.000 OA
ATOM     24  H   UNL     1      -0.554   9.769  23.102  0.00  0.00    +0.000 HD
ENDBRANCH  22  23
ENDBRANCH  15  22
ENDBRANCH  14  18
ENDBRANCH   1  14
BRANCH   3  25
ATOM     25  C   UNL     1       4.896   3.945  15.339  0.00  0.00    +0.000 C 
BRANCH  25  26
ATOM     26  C   UNL     1       6.213   3.933  14.597  0.00  0.00    +0.000 C 
BRANCH  26  27
ATOM     27  S   UNL     1       7.426   5.059  15.344  0.00  0.00    +0.000 S 
ATOM     28  H   UNL     1       8.451   4.685  14.570  0.00  0.00    +0.000 HD
ENDBRANCH  26  27
ENDBRANCH  25  26
ENDBRANCH   3  25
TORSDOF 9
ENDMDL
MODEL 6
REMARK VINA RESULT:      -6.8      3.755      6.012
REMARK  Name = 
REMARK  9 active torsions:
REMARK  status: ('A' for Active; 'I' for Inactive)
REMARK    1  A    between atoms: C_2  and  O_3
REMARK    2  A    between atoms: C_2  and  C_4
REMARK    3  A    between atoms: C_7  and  C_8
REMARK    4  A    between atoms: C_8  and  N_9
REMARK    5  A    between atoms: C_10  and  C_11
REMARK    6  A    between atoms: C_11  and  O_13
REMARK    7  A    between atoms: C_14  and  C_15
REMARK    8  A    between atoms: C_15  and  C_16
REMARK    9  A    between atoms: C_16  and  S_17
REMARK                            x       y       z     vdW  Elec       q    Type
REMARK                         _______ _______ _______ _____ _____    ______ ____
ROOT
ATOM      1  N   UNL     1       3.981   4.325  18.548  0.00  0.00    +0.000 N 
ATOM      2  C   UNL     1       2.814   4.822  17.975  0.00  0.00    +0.000 A 
ATOM      3  C   UNL     1       2.354   5.522  19.124  0.00  0.00    +0.000 A 
ATOM      4  C   UNL     1       2.264   4.390  19.978  0.00  0.00    +0.000 A 
ATOM      5  C   UNL     1       1.455   4.079  21.079  0.00  0.00    +0.000 A 
ATOM      6  C   UNL     1       1.766   2.948  21.818  0.00  0.00    +0.000 A 
ATOM      7  C   UNL     1       2.931   2.230  21.535  0.00  0.00    +0.000 A 
ATOM      8  C   UNL     1       3.825   2.602  20.508  0.00  0.00    +0.000 A 
ATOM      9  C   UNL     1       3.461   3.678  19.692  0.00  0.00    +0.000 A 
ENDROOT
BRANCH   2  10
ATOM     10  C   UNL     1       2.079   3.870  17.099  0.00  0.00    +0.000 C 
ATOM     11  O   UNL     1       2.535   2.861  16.588  0.00  0.00    +0.000 OA
BRANCH  10  12
ATOM     12  O   UNL     1       0.765   4.155  17.011  0.00  0.00    +0.000 OA
ATOM     13  H   UNL     1       0.458   4.182  16.089  0.00  0.00    +0.000 HD
ENDBRANCH  10  12
ENDBRANCH   2  10
BRANCH   1  14
ATOM     14  C   UNL     1       5.305   4.294  17.895  0.00  0.00    +0.000 C 
BRANCH  14  18
ATOM     15  C   UNL     1       7.746   7.964  18.135  0.00  0.00    +0.000 A 
ATOM     16  C   UNL     1       8.146   6.811  18.830  0.00  0.00    +0.000 A 
ATOM     17  C   UNL     1       7.379   5.620  18.771  0.00  0.00    +0.000 A 
ATOM     18  C   UNL     1       6.199   5.547  18.000  0.00  0.00    +0.000 A 
ATOM     19  C   UNL     1       5.882   6.681  17.237  0.00  0.00    +0.000 A 
ATOM     20  C   UNL     1       6.625   7.872  17.313  0.00  0.00    +0.000 A 
BRANCH  15  22
ATOM     21  O   UNL     1       8.528  10.102  17.425  0.00  0.00    +0.000 OA
ATOM     22  C   UNL     1       8.530   9.217  18.263  0.00  0.00    +0.000 C 
BRANCH  22  23
ATOM     23  O   UNL     1       9.300   9.262  19.378  0.00  0.00    +0.000 OA
ATOM     24  H   UNL     1      10.114   9.790  19.305  0.00  0.00    +0.000 HD
ENDBRANCH  22  23
ENDBRANCH  15  22
ENDBRANCH  14  18
ENDBRANCH   1  14
BRANCH   3  25
ATOM     25  C   UNL     1       2.753   6.814  19.840  0.00  0.00    +0.000 C 
BRANCH  25  26
ATOM     26  C   UNL     1       1.893   8.051  19.708  0.00  0.00    +0.000 C 
BRANCH  26  27
ATOM     27  S   UNL     1       1.109   8.507  21.281  0.00  0.00    +0.000 S 
ATOM     28  H   UNL     1       1.398   9.811  21.203  0.00  0.00    +0.000 HD
ENDBRANCH  26  27
ENDBRANCH  25  26
ENDBRANCH   3  25
TORSDOF 9
ENDMDL
MODEL 7
REMARK VINA RESULT:      -6.7      4.369      7.909
REMARK  Name = 
REMARK  9 active torsions:
REMARK  status: ('A' for Active; 'I' for Inactive)
REMARK    1  A    between atoms: C_2  and  O_3
REMARK    2  A    between atoms: C_2  and  C_4
REMARK    3  A    between atoms: C_7  and  C_8
REMARK    4  A    between atoms: C_8  and  N_9
REMARK    5  A    between atoms: C_10  and  C_11
REMARK    6  A    between atoms: C_11  and  O_13
REMARK    7  A    between atoms: C_14  and  C_15
REMARK    8  A    between atoms: C_15  and  C_16
REMARK    9  A    between atoms: C_16  and  S_17
REMARK                            x       y       z     vdW  Elec       q    Type
REMARK                         _______ _______ _______ _____ _____    ______ ____
ROOT
ATOM      1  N   UNL     1       1.035   9.752  18.759  0.00  0.00    +0.000 N 
ATOM      2  C   UNL     1       1.271  10.868  19.558  0.00  0.00    +0.000 A 
ATOM      3  C   UNL     1       0.109  10.737  20.368  0.00  0.00    +0.000 A 
ATOM      4  C   UNL     1      -0.836  10.845  19.312  0.00  0.00    +0.000 A 
ATOM      5  C   UNL     1      -2.155  11.312  19.247  0.00  0.00    +0.000 A 
ATOM      6  C   UNL     1      -2.869  11.091  18.079  0.00  0.00    +0.000 A 
ATOM      7  C   UNL     1      -2.316  10.309  17.062  0.00  0.00    +0.000 A 
ATOM      8  C   UNL     1      -1.035   9.724  17.163  0.00  0.00    +0.000 A 
ATOM      9  C   UNL     1      -0.269  10.033  18.291  0.00  0.00    +0.000 A 
ENDROOT
BRANCH   2  10
ATOM     10  C   UNL     1       1.787  12.066  18.844  0.00  0.00    +0.000 C 
ATOM     11  O   UNL     1       2.574  12.067  17.912  0.00  0.00    +0.000 OA
BRANCH  10  12
ATOM     12  O   UNL     1       1.191  13.206  19.245  0.00  0.00    +0.000 OA
ATOM     13  H   UNL     1       1.835  13.873  19.536  0.00  0.00    +0.000 HD
ENDBRANCH  10  12
ENDBRANCH   2  10
BRANCH   1  14
ATOM     14  C   UNL     1       2.054   8.763  18.355  0.00  0.00    +0.000 C 
BRANCH  14  18
ATOM     15  C   UNL     1       2.069   4.736  20.160  0.00  0.00    +0.000 A 
ATOM     16  C   UNL     1       1.674   5.844  20.927  0.00  0.00    +0.000 A 
ATOM     17  C   UNL     1       1.661   7.149  20.371  0.00  0.00    +0.000 A 
ATOM     18  C   UNL     1       2.029   7.375  19.027  0.00  0.00    +0.000 A 
ATOM     19  C   UNL     1       2.320   6.237  18.261  0.00  0.00    +0.000 A 
ATOM     20  C   UNL     1       2.358   4.944  18.814  0.00  0.00    +0.000 A 
BRANCH  15  22
ATOM     21  O   UNL     1       2.370   3.204  21.963  0.00  0.00    +0.000 OA
ATOM     22  C   UNL     1       2.135   3.389  20.782  0.00  0.00    +0.000 C 
BRANCH  22  23
ATOM     23  O   UNL     1       1.967   2.376  19.898  0.00  0.00    +0.000 OA
ATOM     24  H   UNL     1       2.150   2.596  18.968  0.00  0.00    +0.000 HD
ENDBRANCH  22  23
ENDBRANCH  15  22
ENDBRANCH  14  18
ENDBRANCH   1  14
BRANCH   3  25
ATOM     25  C   UNL     1      -0.326   9.806  21.501  0.00  0.00    +0.000 C 
BRANCH  25  26
ATOM     26  C   UNL     1      -0.493  10.345  22.904  0.00  0.00    +0.000 C 
BRANCH  26  27
ATOM     27  S   UNL     1      -1.679  11.718  22.969  0.00  0.00    +0.000 S 
ATOM     28  H   UNL     1      -2.545  11.189  22.098  0.00  0.00    +0.000 HD
ENDBRANCH  26  27
ENDBRANCH  25  26
ENDBRANCH   3  25
TORSDOF 9
ENDMDL
MODEL 8
REMARK VINA RESULT:      -6.7      4.553      8.390
REMARK  Name = 
REMARK  9 active torsions:
REMARK  status: ('A' for Active; 'I' for Inactive)
REMARK    1  A    between atoms: C_2  and  O_3
REMARK    2  A    between atoms: C_2  and  C_4
REMARK    3  A    between atoms: C_7  and  C_8
REMARK    4  A    between atoms: C_8  and  N_9
REMARK    5  A    between atoms: C_10  and  C_11
REMARK    6  A    between atoms: C_11  and  O_13
REMARK    7  A    between atoms: C_14  and  C_15
REMARK    8  A    between atoms: C_15  and  C_16
REMARK    9  A    between atoms: C_16  and  S_17
REMARK                            x       y       z     vdW  Elec       q    Type
REMARK                         _______ _______ _______ _____ _____    ______ ____
ROOT
ATOM      1  N   UNL     1       0.430  10.819  18.600  0.00  0.00    +0.000 N 
ATOM      2  C   UNL     1       0.426  12.028  19.290  0.00  0.00    +0.000 A 
ATOM      3  C   UNL     1      -0.621  11.695  20.194  0.00  0.00    +0.000 A 
ATOM      4  C   UNL     1      -1.620  11.471  19.210  0.00  0.00    +0.000 A 
ATOM      5  C   UNL     1      -3.016  11.596  19.210  0.00  0.00    +0.000 A 
ATOM      6  C   UNL     1      -3.716  11.100  18.122  0.00  0.00    +0.000 A 
ATOM      7  C   UNL     1      -3.043  10.384  17.129  0.00  0.00    +0.000 A 
ATOM      8  C   UNL     1      -1.653  10.139  17.175  0.00  0.00    +0.000 A 
ATOM      9  C   UNL     1      -0.927  10.729  18.214  0.00  0.00    +0.000 A 
ENDROOT
BRANCH   2  10
ATOM     10  C   UNL     1       0.587  13.243  18.448  0.00  0.00    +0.000 C 
ATOM     11  O   UNL     1      -0.129  14.230  18.462  0.00  0.00    +0.000 OA
BRANCH  10  12
ATOM     12  O   UNL     1       1.718  13.221  17.717  0.00  0.00    +0.000 OA
ATOM     13  H   UNL     1       1.633  12.661  16.927  0.00  0.00    +0.000 HD
ENDBRANCH  10  12
ENDBRANCH   2  10
BRANCH   1  14
ATOM     14  C   UNL     1       1.638  10.072  18.197  0.00  0.00    +0.000 C 
BRANCH  14  18
ATOM     15  C   UNL     1       2.353   6.006  19.756  0.00  0.00    +0.000 A 
ATOM     16  C   UNL     1       1.754   6.975  20.578  0.00  0.00    +0.000 A 
ATOM     17  C   UNL     1       1.515   8.289  20.102  0.00  0.00    +0.000 A 
ATOM     18  C   UNL     1       1.854   8.662  18.784  0.00  0.00    +0.000 A 
ATOM     19  C   UNL     1       2.356   7.646  17.958  0.00  0.00    +0.000 A 
ATOM     20  C   UNL     1       2.618   6.348  18.433  0.00  0.00    +0.000 A 
BRANCH  15  22
ATOM     21  O   UNL     1       2.988   3.712  19.604  0.00  0.00    +0.000 OA
ATOM     22  C   UNL     1       2.651   4.656  20.297  0.00  0.00    +0.000 C 
BRANCH  22  23
ATOM     23  O   UNL     1       2.456   4.554  21.634  0.00  0.00    +0.000 OA
ATOM     24  H   UNL     1       1.585   4.218  21.907  0.00  0.00    +0.000 HD
ENDBRANCH  22  23
ENDBRANCH  15  22
ENDBRANCH  14  18
ENDBRANCH   1  14
BRANCH   3  25
ATOM     25  C   UNL     1      -0.747  10.797  21.427  0.00  0.00    +0.000 C 
BRANCH  25  26
ATOM     26  C   UNL     1      -0.909  11.411  22.800  0.00  0.00    +0.000 C 
BRANCH  26  27
ATOM     27  S   UNL     1      -2.530  12.201  23.006  0.00  0.00    +0.000 S 
ATOM     28  H   UNL     1      -2.455  12.953  21.902  0.00  0.00    +0.000 HD
ENDBRANCH  26  27
ENDBRANCH  25  26
ENDBRANCH   3  25
TORSDOF 9
ENDMDL
MODEL 9
REMARK VINA RESULT:      -6.6      7.036      9.285
REMARK  Name = 
REMARK  9 active torsions:
REMARK  status: ('A' for Active; 'I' for Inactive)
REMARK    1  A    between atoms: C_2  and  O_3
REMARK    2  A    between atoms: C_2  and  C_4
REMARK    3  A    between atoms: C_7  and  C_8
REMARK    4  A    between atoms: C_8  and  N_9
REMARK    5  A    between atoms: C_10  and  C_11
REMARK    6  A    between atoms: C_11  and  O_13
REMARK    7  A    between atoms: C_14  and  C_15
REMARK    8  A    between atoms: C_15  and  C_16
REMARK    9  A    between atoms: C_16  and  S_17
REMARK                            x       y       z     vdW  Elec       q    Type
REMARK                         _______ _______ _______ _____ _____    ______ ____
ROOT
ATOM      1  N   UNL     1      -1.251  12.581  20.873  0.00  0.00    +0.000 N 
ATOM      2  C   UNL     1      -0.296  12.561  19.859  0.00  0.00    +0.000 A 
ATOM      3  C   UNL     1      -0.606  11.261  19.371  0.00  0.00    +0.000 A 
ATOM      4  C   UNL     1      -0.332  10.565  20.578  0.00  0.00    +0.000 A 
ATOM      5  C   UNL     1       0.103   9.263  20.860  0.00  0.00    +0.000 A 
ATOM      6  C   UNL     1       0.082   8.838  22.179  0.00  0.00    +0.000 A 
ATOM      7  C   UNL     1      -0.483   9.653  23.164  0.00  0.00    +0.000 A 
ATOM      8  C   UNL     1      -1.041  10.918  22.878  0.00  0.00    +0.000 A 
ATOM      9  C   UNL     1      -0.925  11.395  21.569  0.00  0.00    +0.000 A 
ENDROOT
BRANCH   2  10
ATOM     10  C   UNL     1       1.028  13.137  20.219  0.00  0.00    +0.000 C 
ATOM     11  O   UNL     1       1.372  13.515  21.326  0.00  0.00    +0.000 OA
BRANCH  10  12
ATOM     12  O   UNL     1       1.907  13.092  19.200  0.00  0.00    +0.000 OA
ATOM     13  H   UNL     1       2.723  13.580  19.398  0.00  0.00    +0.000 HD
ENDBRANCH  10  12
ENDBRANCH   2  10
BRANCH   1  14
ATOM     14  C   UNL     1      -2.120  13.729  21.200  0.00  0.00    +0.000 C 
BRANCH  14  18
ATOM     15  C   UNL     1      -5.962  12.843  23.183  0.00  0.00    +0.000 A 
ATOM     16  C   UNL     1      -4.917  13.432  23.914  0.00  0.00    +0.000 A 
ATOM     17  C   UNL     1      -3.673  13.726  23.301  0.00  0.00    +0.000 A 
ATOM     18  C   UNL     1      -3.448  13.452  21.935  0.00  0.00    +0.000 A 
ATOM     19  C   UNL     1      -4.543  12.959  21.210  0.00  0.00    +0.000 A 
ATOM     20  C   UNL     1      -5.770  12.643  21.818  0.00  0.00    +0.000 A 
BRANCH  15  22
ATOM     21  O   UNL     1      -7.916  13.288  24.475  0.00  0.00    +0.000 OA
ATOM     22  C   UNL     1      -7.234  12.487  23.861  0.00  0.00    +0.000 C 
BRANCH  22  23
ATOM     23  O   UNL     1      -7.537  11.169  23.785  0.00  0.00    +0.000 OA
ATOM     24  H   UNL     1      -8.364  10.954  23.320  0.00  0.00    +0.000 HD
ENDBRANCH  22  23
ENDBRANCH  15  22
ENDBRANCH  14  18
ENDBRANCH   1  14
BRANCH   3  25
ATOM     25  C   UNL     1      -1.742  10.654  18.545  0.00  0.00    +0.000 C 
BRANCH  25  26
ATOM     26  C   UNL     1      -2.553  11.526  17.612  0.00  0.00    +0.000 C 
BRANCH  26  27
ATOM     27  S   UNL     1      -4.328  11.164  17.712  0.00  0.00    +0.000 S 
ATOM     28  H   UNL     1      -4.582  11.374  16.415  0.00  0.00    +0.000 HD
ENDBRANCH  26  27
ENDBRANCH  25  26
ENDBRANCH   3  25
TORSDOF 9
ENDMDL
