MODEL 1
REMARK VINA RESULT:      -5.8      0.000      0.000
REMARK  Name = 
REMARK  16 active torsions:
REMARK  status: ('A' for Active; 'I' for Inactive)
REMARK    1  A    between atoms: C_1  and  C_2
REMARK    2  A    between atoms: C_2  and  C_3
REMARK    3  A    between atoms: C_3  and  C_4
REMARK    4  A    between atoms: C_4  and  C_5
REMARK    5  A    between atoms: C_5  and  C_6
REMARK    6  A    between atoms: C_5  and  C_8
REMARK    7  A    between atoms: C_6  and  C_7
REMARK    8  A    between atoms: C_8  and  N_9
REMARK    9  A    between atoms: N_9  and  C_10
REMARK   10  A    between atoms: C_10  and  C_11
REMARK   11  A    between atoms: C_11  and  C_12
REMARK   12  A    between atoms: C_11  and  C_14
REMARK   13  A    between atoms: C_12  and  C_13
REMARK   14  A    between atoms: C_14  and  C_15
REMARK   15  A    between atoms: C_15  and  C_16
REMARK   16  A    between atoms: C_16  and  C_17
REMARK                            x       y       z     vdW  Elec       q    Type
REMARK                         _______ _______ _______ _____ _____    ______ ____
ROOT
ATOM      1  N   UNL     1       5.800   3.974  18.579  0.00  0.00    +0.000 NA
ATOM      2  H   UNL     1       5.233   3.427  17.935  0.00  0.00    +0.000 HD
ENDROOT
BRANCH   1   3
ATOM      3  C   UNL     1       4.922   4.867  19.335  0.00  0.00    +0.000 C 
BRANCH   3   4
ATOM      4  C   UNL     1       3.444   4.420  19.224  0.00  0.00    +0.000 C 
BRANCH   4   5
ATOM      5  C   UNL     1       2.860   4.569  17.794  0.00  0.00    +0.000 C 
ATOM      6  C   UNL     1       2.598   3.266  17.056  0.00  0.00    +0.000 C 
ENDBRANCH   4   5
BRANCH   4   7
ATOM      7  C   UNL     1       2.605   5.144  20.308  0.00  0.00    +0.000 C 
BRANCH   7   8
ATOM      8  C   UNL     1       1.192   4.576  20.455  0.00  0.00    +0.000 C 
BRANCH   8  10
ATOM      9  C   UNL     1       1.650   2.576  21.887  0.00  0.00    +0.000 C 
ATOM     10  C   UNL     1       1.171   3.050  20.522  0.00  0.00    +0.000 C 
ENDBRANCH   8  10
ENDBRANCH   7   8
ENDBRANCH   4   7
ENDBRANCH   3   4
ENDBRANCH   1   3
BRANCH   1  11
ATOM     11  C   UNL     1       6.797   4.714  17.809  0.00  0.00    +0.000 C 
BRANCH  11  12
ATOM     12  C   UNL     1       6.212   6.011  17.193  0.00  0.00    +0.000 C 
BRANCH  12  13
ATOM     13  C   UNL     1       7.150   7.241  17.311  0.00  0.00    +0.000 C 
ATOM     14  C   UNL     1       8.138   7.215  18.470  0.00  0.00    +0.000 C 
ENDBRANCH  12  13
BRANCH  12  15
ATOM     15  C   UNL     1       5.778   5.786  15.725  0.00  0.00    +0.000 C 
BRANCH  15  16
ATOM     16  C   UNL     1       6.711   4.832  14.968  0.00  0.00    +0.000 C 
BRANCH  16  17
ATOM     17  C   UNL     1       5.950   3.700  14.283  0.00  0.00    +0.000 C 
ATOM     18  C   UNL     1       6.257   3.674  12.794  0.00  0.00    +0.000 C 
ENDBRANCH  16  17
ENDBRANCH  15  16
ENDBRANCH  12  15
ENDBRANCH  11  12
ENDBRANCH   1  11
TORSDOF 12
ENDMDL
MODEL 2
REMARK VINA RESULT:      -5.7      1.402      3.409
REMARK  Name = 
REMARK  16 active torsions:
REMARK  status: ('A' for Active; 'I' for Inactive)
REMARK    1  A    between atoms: C_1  and  C_2
REMARK    2  A    between atoms: C_2  and  C_3
REMARK    3  A    between atoms: C_3  and  C_4
REMARK    4  A    between atoms: C_4  and  C_5
REMARK    5  A    between atoms: C_5  and  C_6
REMARK    6  A    between atoms: C_5  and  C_8
REMARK    7  A    between atoms: C_6  and  C_7
REMARK    8  A    between atoms: C_8  and  N_9
REMARK    9  A    between atoms: N_9  and  C_10
REMARK   10  A    between atoms: C_10  and  C_11
REMARK   11  A    between atoms: C_11  and  C_12
REMARK   12  A    between atoms: C_11  and  C_14
REMARK   13  A    between atoms: C_12  and  C_13
REMARK   14  A    between atoms: C_14  and  C_15
REMARK   15  A    between atoms: C_15  and  C_16
REMARK   16  A    between atoms: C_16  and  C_17
REMARK                            x       y       z     vdW  Elec       q    Type
REMARK                         _______ _______ _______ _____ _____    ______ ____
ROOT
ATOM      1  N   UNL     1       4.786   3.109  17.263  0.00  0.00    +0.000 NA
ATOM      2  H   UNL     1       4.065   2.433  17.021  0.00  0.00    +0.000 HD
ENDROOT
BRANCH   1   3
ATOM      3  C   UNL     1       4.374   3.823  18.471  0.00  0.00    +0.000 C 
BRANCH   3   4
ATOM      4  C   UNL     1       3.290   4.880  18.150  0.00  0.00    +0.000 C 
BRANCH   4   5
ATOM      5  C   UNL     1       3.641   6.301  18.666  0.00  0.00    +0.000 C 
ATOM      6  C   UNL     1       3.535   7.415  17.637  0.00  0.00    +0.000 C 
ENDBRANCH   4   5
BRANCH   4   7
ATOM      7  C   UNL     1       1.912   4.370  18.645  0.00  0.00    +0.000 C 
BRANCH   7   8
ATOM      8  C   UNL     1       1.553   4.868  20.047  0.00  0.00    +0.000 C 
BRANCH   8  10
ATOM      9  C   UNL     1       1.478   2.384  20.344  0.00  0.00    +0.000 C 
ATOM     10  C   UNL     1       1.358   3.730  21.047  0.00  0.00    +0.000 C 
ENDBRANCH   8  10
ENDBRANCH   7   8
ENDBRANCH   4   7
ENDBRANCH   3   4
ENDBRANCH   1   3
BRANCH   1  11
ATOM     11  C   UNL     1       4.977   4.013  16.132  0.00  0.00    +0.000 C 
BRANCH  11  12
ATOM     12  C   UNL     1       6.444   4.018  15.632  0.00  0.00    +0.000 C 
BRANCH  12  13
ATOM     13  C   UNL     1       6.620   4.601  14.205  0.00  0.00    +0.000 C 
ATOM     14  C   UNL     1       6.131   3.720  13.062  0.00  0.00    +0.000 C 
ENDBRANCH  12  13
BRANCH  12  15
ATOM     15  C   UNL     1       7.375   4.734  16.639  0.00  0.00    +0.000 C 
BRANCH  15  16
ATOM     16  C   UNL     1       7.004   6.207  16.850  0.00  0.00    +0.000 C 
BRANCH  16  17
ATOM     17  C   UNL     1       7.640   6.789  18.110  0.00  0.00    +0.000 C 
ATOM     18  C   UNL     1       7.640   5.761  19.232  0.00  0.00    +0.000 C 
ENDBRANCH  16  17
ENDBRANCH  15  16
ENDBRANCH  12  15
ENDBRANCH  11  12
ENDBRANCH   1  11
TORSDOF 12
ENDMDL
MODEL 3
REMARK VINA RESULT:      -5.6      1.547      2.532
REMARK  Name = 
REMARK  16 active torsions:
REMARK  status: ('A' for Active; 'I' for Inactive)
REMARK    1  A    between atoms: C_1  and  C_2
REMARK    2  A    between atoms: C_2  and  C_3
REMARK    3  A    between atoms: C_3  and  C_4
REMARK    4  A    between atoms: C_4  and  C_5
REMARK    5  A    between atoms: C_5  and  C_6
REMARK    6  A    between atoms: C_5  and  C_8
REMARK    7  A    between atoms: C_6  and  C_7
REMARK    8  A    between atoms: C_8  and  N_9
REMARK    9  A    between atoms: N_9  and  C_10
REMARK   10  A    between atoms: C_10  and  C_11
REMARK   11  A    between atoms: C_11  and  C_12
REMARK   12  A    between atoms: C_11  and  C_14
REMARK   13  A    between atoms: C_12  and  C_13
REMARK   14  A    between atoms: C_14  and  C_15
REMARK   15  A    between atoms: C_15  and  C_16
REMARK   16  A    between atoms: C_16  and  C_17
REMARK                            x       y       z     vdW  Elec       q    Type
REMARK                         _______ _______ _______ _____ _____    ______ ____
ROOT
ATOM      1  N   UNL     1       5.822   4.004  18.654  0.00  0.00    +0.000 NA
ATOM      2  H   UNL     1       5.291   3.273  18.187  0.00  0.00    +0.000 HD
ENDROOT
BRANCH   1   3
ATOM      3  C   UNL     1       4.886   4.936  19.282  0.00  0.00    +0.000 C 
BRANCH   3   4
ATOM      4  C   UNL     1       3.431   4.419  19.177  0.00  0.00    +0.000 C 
BRANCH   4   5
ATOM      5  C   UNL     1       3.331   2.953  18.680  0.00  0.00    +0.000 C 
ATOM      6  C   UNL     1       2.560   2.752  17.385  0.00  0.00    +0.000 C 
ENDBRANCH   4   5
BRANCH   4   7
ATOM      7  C   UNL     1       2.592   5.412  18.332  0.00  0.00    +0.000 C 
BRANCH   7   8
ATOM      8  C   UNL     1       2.604   6.838  18.890  0.00  0.00    +0.000 C 
BRANCH   8  10
ATOM      9  C   UNL     1       1.856   8.988  17.851  0.00  0.00    +0.000 C 
ATOM     10  C   UNL     1       2.910   7.888  17.824  0.00  0.00    +0.000 C 
ENDBRANCH   8  10
ENDBRANCH   7   8
ENDBRANCH   4   7
ENDBRANCH   3   4
ENDBRANCH   1   3
BRANCH   1  11
ATOM     11  C   UNL     1       6.673   4.666  17.668  0.00  0.00    +0.000 C 
BRANCH  11  12
ATOM     12  C   UNL     1       6.041   5.982  17.145  0.00  0.00    +0.000 C 
BRANCH  12  13
ATOM     13  C   UNL     1       6.966   7.220  17.280  0.00  0.00    +0.000 C 
ATOM     14  C   UNL     1       8.019   7.147  18.378  0.00  0.00    +0.000 C 
ENDBRANCH  12  13
BRANCH  12  15
ATOM     15  C   UNL     1       5.540   5.822  15.690  0.00  0.00    +0.000 C 
BRANCH  15  16
ATOM     16  C   UNL     1       6.495   4.996  14.819  0.00  0.00    +0.000 C 
BRANCH  16  17
ATOM     17  C   UNL     1       5.808   3.787  14.192  0.00  0.00    +0.000 C 
ATOM     18  C   UNL     1       6.207   3.642  12.732  0.00  0.00    +0.000 C 
ENDBRANCH  16  17
ENDBRANCH  15  16
ENDBRANCH  12  15
ENDBRANCH  11  12
ENDBRANCH   1  11
TORSDOF 12
ENDMDL
MODEL 4
REMARK VINA RESULT:      -5.6      1.167      6.117
REMARK  Name = 
REMARK  16 active torsions:
REMARK  status: ('A' for Active; 'I' for Inactive)
REMARK    1  A    between atoms: C_1  and  C_2
REMARK    2  A    between atoms: C_2  and  C_3
REMARK    3  A    between atoms: C_3  and  C_4
REMARK    4  A    between atoms: C_4  and  C_5
REMARK    5  A    between atoms: C_5  and  C_6
REMARK    6  A    between atoms: C_5  and  C_8
REMARK    7  A    between atoms: C_6  and  C_7
REMARK    8  A    between atoms: C_8  and  N_9
REMARK    9  A    between atoms: N_9  and  C_10
REMARK   10  A    between atoms: C_10  and  C_11
REMARK   11  A    between atoms: C_11  and  C_12
REMARK   12  A    between atoms: C_11  and  C_14
REMARK   13  A    between atoms: C_12  and  C_13
REMARK   14  A    between atoms: C_14  and  C_15
REMARK   15  A    between atoms: C_15  and  C_16
REMARK   16  A    between atoms: C_16  and  C_17
REMARK                            x       y       z     vdW  Elec       q    Type
REMARK                         _______ _______ _______ _____ _____    ______ ____
ROOT
ATOM      1  N   UNL     1       5.854   4.912  19.062  0.00  0.00    +0.000 NA
ATOM      2  H   UNL     1       5.790   5.926  19.116  0.00  0.00    +0.000 HD
ENDROOT
BRANCH   1   3
ATOM      3  C   UNL     1       6.431   4.546  17.769  0.00  0.00    +0.000 C 
BRANCH   3   4
ATOM      4  C   UNL     1       6.418   5.747  16.793  0.00  0.00    +0.000 C 
BRANCH   4   5
ATOM      5  C   UNL     1       6.451   7.124  17.508  0.00  0.00    +0.000 C 
ATOM      6  C   UNL     1       7.830   7.744  17.669  0.00  0.00    +0.000 C 
ENDBRANCH   4   5
BRANCH   4   7
ATOM      7  C   UNL     1       5.232   5.595  15.807  0.00  0.00    +0.000 C 
BRANCH   7   8
ATOM      8  C   UNL     1       5.354   4.368  14.901  0.00  0.00    +0.000 C 
BRANCH   8  10
ATOM      9  C   UNL     1       6.373   3.600  12.748  0.00  0.00    +0.000 C 
ATOM     10  C   UNL     1       6.602   4.404  14.021  0.00  0.00    +0.000 C 
ENDBRANCH   8  10
ENDBRANCH   7   8
ENDBRANCH   4   7
ENDBRANCH   3   4
ENDBRANCH   1   3
BRANCH   1  11
ATOM     11  C   UNL     1       4.517   4.351  19.241  0.00  0.00    +0.000 C 
BRANCH  11  12
ATOM     12  C   UNL     1       3.465   5.444  19.562  0.00  0.00    +0.000 C 
BRANCH  12  13
ATOM     13  C   UNL     1       2.670   5.934  18.323  0.00  0.00    +0.000 C 
ATOM     14  C   UNL     1       2.538   7.444  18.172  0.00  0.00    +0.000 C 
ENDBRANCH  12  13
BRANCH  12  15
ATOM     15  C   UNL     1       2.508   4.985  20.687  0.00  0.00    +0.000 C 
BRANCH  15  16
ATOM     16  C   UNL     1       2.216   3.480  20.644  0.00  0.00    +0.000 C 
BRANCH  16  17
ATOM     17  C   UNL     1       0.832   3.175  20.078  0.00  0.00    +0.000 C 
ATOM     18  C   UNL     1       0.947   2.493  18.723  0.00  0.00    +0.000 C 
ENDBRANCH  16  17
ENDBRANCH  15  16
ENDBRANCH  12  15
ENDBRANCH  11  12
ENDBRANCH   1  11
TORSDOF 12
ENDMDL
MODEL 5
REMARK VINA RESULT:      -5.6      1.648      5.592
REMARK  Name = 
REMARK  16 active torsions:
REMARK  status: ('A' for Active; 'I' for Inactive)
REMARK    1  A    between atoms: C_1  and  C_2
REMARK    2  A    between atoms: C_2  and  C_3
REMARK    3  A    between atoms: C_3  and  C_4
REMARK    4  A    between atoms: C_4  and  C_5
REMARK    5  A    between atoms: C_5  and  C_6
REMARK    6  A    between atoms: C_5  and  C_8
REMARK    7  A    between atoms: C_6  and  C_7
REMARK    8  A    between atoms: C_8  and  N_9
REMARK    9  A    between atoms: N_9  and  C_10
REMARK   10  A    between atoms: C_10  and  C_11
REMARK   11  A    between atoms: C_11  and  C_12
REMARK   12  A    between atoms: C_11  and  C_14
REMARK   13  A    between atoms: C_12  and  C_13
REMARK   14  A    between atoms: C_14  and  C_15
REMARK   15  A    between atoms: C_15  and  C_16
REMARK   16  A    between atoms: C_16  and  C_17
REMARK                            x       y       z     vdW  Elec       q    Type
REMARK                         _______ _______ _______ _____ _____    ______ ____
ROOT
ATOM      1  N   UNL     1       4.799   5.590  19.462  0.00  0.00    +0.000 NA
ATOM      2  H   UNL     1       4.770   6.431  18.889  0.00  0.00    +0.000 HD
ENDROOT
BRANCH   1   3
ATOM      3  C   UNL     1       5.537   4.555  18.739  0.00  0.00    +0.000 C 
BRANCH   3   4
ATOM      4  C   UNL     1       6.170   5.122  17.446  0.00  0.00    +0.000 C 
BRANCH   4   5
ATOM      5  C   UNL     1       6.514   6.632  17.537  0.00  0.00    +0.000 C 
ATOM      6  C   UNL     1       7.856   6.960  18.173  0.00  0.00    +0.000 C 
ENDBRANCH   4   5
BRANCH   4   7
ATOM      7  C   UNL     1       5.268   4.770  16.235  0.00  0.00    +0.000 C 
BRANCH   7   8
ATOM      8  C   UNL     1       5.770   3.563  15.440  0.00  0.00    +0.000 C 
BRANCH   8  10
ATOM      9  C   UNL     1       7.191   4.962  13.928  0.00  0.00    +0.000 C 
ATOM     10  C   UNL     1       6.096   3.904  13.988  0.00  0.00    +0.000 C 
ENDBRANCH   8  10
ENDBRANCH   7   8
ENDBRANCH   4   7
ENDBRANCH   3   4
ENDBRANCH   1   3
BRANCH   1  11
ATOM     11  C   UNL     1       3.428   5.179  19.755  0.00  0.00    +0.000 C 
BRANCH  11  12
ATOM     12  C   UNL     1       2.407   5.815  18.777  0.00  0.00    +0.000 C 
BRANCH  12  13
ATOM     13  C   UNL     1       2.944   7.070  18.038  0.00  0.00    +0.000 C 
ATOM     14  C   UNL     1       2.065   8.312  18.113  0.00  0.00    +0.000 C 
ENDBRANCH  12  13
BRANCH  12  15
ATOM     15  C   UNL     1       1.870   4.770  17.771  0.00  0.00    +0.000 C 
BRANCH  15  16
ATOM     16  C   UNL     1       1.745   3.367  18.380  0.00  0.00    +0.000 C 
BRANCH  16  17
ATOM     17  C   UNL     1       2.501   2.316  17.573  0.00  0.00    +0.000 C 
ATOM     18  C   UNL     1       3.482   1.565  18.460  0.00  0.00    +0.000 C 
ENDBRANCH  16  17
ENDBRANCH  15  16
ENDBRANCH  12  15
ENDBRANCH  11  12
ENDBRANCH   1  11
TORSDOF 12
ENDMDL
MODEL 6
REMARK VINA RESULT:      -5.5      1.303      2.490
REMARK  Name = 
REMARK  16 active torsions:
REMARK  status: ('A' for Active; 'I' for Inactive)
REMARK    1  A    between atoms: C_1  and  C_2
REMARK    2  A    between atoms: C_2  and  C_3
REMARK    3  A    between atoms: C_3  and  C_4
REMARK    4  A    between atoms: C_4  and  C_5
REMARK    5  A    between atoms: C_5  and  C_6
REMARK    6  A    between atoms: C_5  and  C_8
REMARK    7  A    between atoms: C_6  and  C_7
REMARK    8  A    between atoms: C_8  and  N_9
REMARK    9  A    between atoms: N_9  and  C_10
REMARK   10  A    between atoms: C_10  and  C_11
REMARK   11  A    between atoms: C_11  and  C_12
REMARK   12  A    between atoms: C_11  and  C_14
REMARK   13  A    between atoms: C_12  and  C_13
REMARK   14  A    between atoms: C_14  and  C_15
REMARK   15  A    between atoms: C_15  and  C_16
REMARK   16  A    between atoms: C_16  and  C_17
REMARK                            x       y       z     vdW  Elec       q    Type
REMARK                         _______ _______ _______ _____ _____    ______ ____
ROOT
ATOM      1  N   UNL     1       4.206   5.550  20.007  0.00  0.00    +0.000 NA
ATOM      2  H   UNL     1       4.156   4.895  20.784  0.00  0.00    +0.000 HD
ENDROOT
BRANCH   1   3
ATOM      3  C   UNL     1       2.868   5.708  19.437  0.00  0.00    +0.000 C 
BRANCH   3   4
ATOM      4  C   UNL     1       1.826   4.879  20.225  0.00  0.00    +0.000 C 
BRANCH   4   5
ATOM      5  C   UNL     1       2.420   4.155  21.463  0.00  0.00    +0.000 C 
ATOM      6  C   UNL     1       2.203   2.651  21.508  0.00  0.00    +0.000 C 
ENDBRANCH   4   5
BRANCH   4   7
ATOM      7  C   UNL     1       1.086   3.925  19.253  0.00  0.00    +0.000 C 
BRANCH   7   8
ATOM      8  C   UNL     1       1.851   3.680  17.950  0.00  0.00    +0.000 C 
BRANCH   8  10
ATOM      9  C   UNL     1       3.718   2.017  18.061  0.00  0.00    +0.000 C 
ATOM     10  C   UNL     1       2.238   2.215  17.759  0.00  0.00    +0.000 C 
ENDBRANCH   8  10
ENDBRANCH   7   8
ENDBRANCH   4   7
ENDBRANCH   3   4
ENDBRANCH   1   3
BRANCH   1  11
ATOM     11  C   UNL     1       5.161   5.038  19.027  0.00  0.00    +0.000 C 
BRANCH  11  12
ATOM     12  C   UNL     1       5.490   6.087  17.933  0.00  0.00    +0.000 C 
BRANCH  12  13
ATOM     13  C   UNL     1       7.003   6.404  17.801  0.00  0.00    +0.000 C 
ATOM     14  C   UNL     1       7.891   5.880  18.922  0.00  0.00    +0.000 C 
ENDBRANCH  12  13
BRANCH  12  15
ATOM     15  C   UNL     1       4.891   5.675  16.567  0.00  0.00    +0.000 C 
BRANCH  15  16
ATOM     16  C   UNL     1       5.638   4.503  15.917  0.00  0.00    +0.000 C 
BRANCH  16  17
ATOM     17  C   UNL     1       6.265   4.887  14.580  0.00  0.00    +0.000 C 
ATOM     18  C   UNL     1       6.106   3.758  13.572  0.00  0.00    +0.000 C 
ENDBRANCH  16  17
ENDBRANCH  15  16
ENDBRANCH  12  15
ENDBRANCH  11  12
ENDBRANCH   1  11
TORSDOF 12
ENDMDL
MODEL 7
REMARK VINA RESULT:      -5.4      1.250      6.140
REMARK  Name = 
REMARK  16 active torsions:
REMARK  status: ('A' for Active; 'I' for Inactive)
REMARK    1  A    between atoms: C_1  and  C_2
REMARK    2  A    between atoms: C_2  and  C_3
REMARK    3  A    between atoms: C_3  and  C_4
REMARK    4  A    between atoms: C_4  and  C_5
REMARK    5  A    between atoms: C_5  and  C_6
REMARK    6  A    between atoms: C_5  and  C_8
REMARK    7  A    between atoms: C_6  and  C_7
REMARK    8  A    between atoms: C_8  and  N_9
REMARK    9  A    between atoms: N_9  and  C_10
REMARK   10  A    between atoms: C_10  and  C_11
REMARK   11  A    between atoms: C_11  and  C_12
REMARK   12  A    between atoms: C_11  and  C_14
REMARK   13  A    between atoms: C_12  and  C_13
REMARK   14  A    between atoms: C_14  and  C_15
REMARK   15  A    between atoms: C_15  and  C_16
REMARK   16  A    between atoms: C_16  and  C_17
REMARK                            x       y       z     vdW  Elec       q    Type
REMARK                         _______ _______ _______ _____ _____    ______ ____
ROOT
ATOM      1  N   UNL     1       5.425   3.257  19.341  0.00  0.00    +0.000 NA
ATOM      2  H   UNL     1       6.122   2.947  20.013  0.00  0.00    +0.000 HD
ENDROOT
BRANCH   1   3
ATOM      3  C   UNL     1       5.475   4.716  19.251  0.00  0.00    +0.000 C 
BRANCH   3   4
ATOM      4  C   UNL     1       6.232   5.170  17.980  0.00  0.00    +0.000 C 
BRANCH   4   5
ATOM      5  C   UNL     1       7.576   5.884  18.284  0.00  0.00    +0.000 C 
ATOM      6  C   UNL     1       7.699   7.302  17.749  0.00  0.00    +0.000 C 
ENDBRANCH   4   5
BRANCH   4   7
ATOM      7  C   UNL     1       5.281   6.007  17.086  0.00  0.00    +0.000 C 
BRANCH   7   8
ATOM      8  C   UNL     1       5.005   5.359  15.728  0.00  0.00    +0.000 C 
BRANCH   8  10
ATOM      9  C   UNL     1       6.160   3.971  13.994  0.00  0.00    +0.000 C 
ATOM     10  C   UNL     1       5.859   4.117  15.480  0.00  0.00    +0.000 C 
ENDBRANCH   8  10
ENDBRANCH   7   8
ENDBRANCH   4   7
ENDBRANCH   3   4
ENDBRANCH   1   3
BRANCH   1  11
ATOM     11  C   UNL     1       4.114   2.781  19.777  0.00  0.00    +0.000 C 
BRANCH  11  12
ATOM     12  C   UNL     1       2.983   3.776  19.408  0.00  0.00    +0.000 C 
BRANCH  12  13
ATOM     13  C   UNL     1       2.204   3.393  18.121  0.00  0.00    +0.000 C 
ATOM     14  C   UNL     1       2.682   2.137  17.404  0.00  0.00    +0.000 C 
ENDBRANCH  12  13
BRANCH  12  15
ATOM     15  C   UNL     1       2.015   3.986  20.596  0.00  0.00    +0.000 C 
BRANCH  15  16
ATOM     16  C   UNL     1       1.533   5.437  20.723  0.00  0.00    +0.000 C 
BRANCH  16  17
ATOM     17  C   UNL     1       2.342   6.394  19.851  0.00  0.00    +0.000 C 
ATOM     18  C   UNL     1       1.866   7.826  20.045  0.00  0.00    +0.000 C 
ENDBRANCH  16  17
ENDBRANCH  15  16
ENDBRANCH  12  15
ENDBRANCH  11  12
ENDBRANCH   1  11
TORSDOF 12
ENDMDL
MODEL 8
REMARK VINA RESULT:      -5.4      1.345      1.917
REMARK  Name = 
REMARK  16 active torsions:
REMARK  status: ('A' for Active; 'I' for Inactive)
REMARK    1  A    between atoms: C_1  and  C_2
REMARK    2  A    between atoms: C_2  and  C_3
REMARK    3  A    between atoms: C_3  and  C_4
REMARK    4  A    between atoms: C_4  and  C_5
REMARK    5  A    between atoms: C_5  and  C_6
REMARK    6  A    between atoms: C_5  and  C_8
REMARK    7  A    between atoms: C_6  and  C_7
REMARK    8  A    between atoms: C_8  and  N_9
REMARK    9  A    between atoms: N_9  and  C_10
REMARK   10  A    between atoms: C_10  and  C_11
REMARK   11  A    between atoms: C_11  and  C_12
REMARK   12  A    between atoms: C_11  and  C_14
REMARK   13  A    between atoms: C_12  and  C_13
REMARK   14  A    between atoms: C_14  and  C_15
REMARK   15  A    between atoms: C_15  and  C_16
REMARK   16  A    between atoms: C_16  and  C_17
REMARK                            x       y       z     vdW  Elec       q    Type
REMARK                         _______ _______ _______ _____ _____    ______ ____
ROOT
ATOM      1  N   UNL     1       4.967   3.541  17.912  0.00  0.00    +0.000 NA
ATOM      2  H   UNL     1       4.459   2.660  17.881  0.00  0.00    +0.000 HD
ENDROOT
BRANCH   1   3
ATOM      3  C   UNL     1       4.385   4.382  18.958  0.00  0.00    +0.000 C 
BRANCH   3   4
ATOM      4  C   UNL     1       2.912   4.731  18.637  0.00  0.00    +0.000 C 
BRANCH   4   5
ATOM      5  C   UNL     1       2.460   6.096  19.222  0.00  0.00    +0.000 C 
ATOM      6  C   UNL     1       2.457   7.259  18.243  0.00  0.00    +0.000 C 
ENDBRANCH   4   5
BRANCH   4   7
ATOM      7  C   UNL     1       2.000   3.550  19.058  0.00  0.00    +0.000 C 
BRANCH   7   8
ATOM      8  C   UNL     1       0.998   3.923  20.152  0.00  0.00    +0.000 C 
BRANCH   8  10
ATOM      9  C   UNL     1       2.593   2.450  21.396  0.00  0.00    +0.000 C 
ATOM     10  C   UNL     1       1.289   3.232  21.483  0.00  0.00    +0.000 C 
ENDBRANCH   8  10
ENDBRANCH   7   8
ENDBRANCH   4   7
ENDBRANCH   3   4
ENDBRANCH   1   3
BRANCH   1  11
ATOM     11  C   UNL     1       4.886   4.171  16.596  0.00  0.00    +0.000 C 
BRANCH  11  12
ATOM     12  C   UNL     1       6.228   4.829  16.183  0.00  0.00    +0.000 C 
BRANCH  12  13
ATOM     13  C   UNL     1       7.354   4.675  17.239  0.00  0.00    +0.000 C 
ATOM     14  C   UNL     1       7.585   5.878  18.145  0.00  0.00    +0.000 C 
ENDBRANCH  12  13
BRANCH  12  15
ATOM     15  C   UNL     1       6.696   4.320  14.799  0.00  0.00    +0.000 C 
BRANCH  15  16
ATOM     16  C   UNL     1       5.535   4.109  13.818  0.00  0.00    +0.000 C 
BRANCH  16  17
ATOM     17  C   UNL     1       5.995   3.484  12.504  0.00  0.00    +0.000 C 
ATOM     18  C   UNL     1       4.797   3.097  11.649  0.00  0.00    +0.000 C 
ENDBRANCH  16  17
ENDBRANCH  15  16
ENDBRANCH  12  15
ENDBRANCH  11  12
ENDBRANCH   1  11
TORSDOF 12
ENDMDL
MODEL 9
REMARK VINA RESULT:      -5.4      1.824      4.126
REMARK  Name = 
REMARK  16 active torsions:
REMARK  status: ('A' for Active; 'I' for Inactive)
REMARK    1  A    between atoms: C_1  and  C_2
REMARK    2  A    between atoms: C_2  and  C_3
REMARK    3  A    between atoms: C_3  and  C_4
REMARK    4  A    between atoms: C_4  and  C_5
REMARK    5  A    between atoms: C_5  and  C_6
REMARK    6  A    between atoms: C_5  and  C_8
REMARK    7  A    between atoms: C_6  and  C_7
REMARK    8  A    between atoms: C_8  and  N_9
REMARK    9  A    between atoms: N_9  and  C_10
REMARK   10  A    between atoms: C_10  and  C_11
REMARK   11  A    between atoms: C_11  and  C_12
REMARK   12  A    between atoms: C_11  and  C_14
REMARK   13  A    between atoms: C_12  and  C_13
REMARK   14  A    between atoms: C_14  and  C_15
REMARK   15  A    between atoms: C_15  and  C_16
REMARK   16  A    between atoms: C_16  and  C_17
REMARK                            x       y       z     vdW  Elec       q    Type
REMARK                         _______ _______ _______ _____ _____    ______ ____
ROOT
ATOM      1  N   UNL     1       3.440   3.176  18.064  0.00  0.00    +0.000 NA
ATOM      2  H   UNL     1       3.152   2.221  17.865  0.00  0.00    +0.000 HD
ENDROOT
BRANCH   1   3
ATOM      3  C   UNL     1       2.330   3.875  18.712  0.00  0.00    +0.000 C 
BRANCH   3   4
ATOM      4  C   UNL     1       2.813   4.646  19.963  0.00  0.00    +0.000 C 
BRANCH   4   5
ATOM      5  C   UNL     1       2.180   4.135  21.285  0.00  0.00    +0.000 C 
ATOM      6  C   UNL     1       1.258   2.934  21.148  0.00  0.00    +0.000 C 
ENDBRANCH   4   5
BRANCH   4   7
ATOM      7  C   UNL     1       2.619   6.167  19.737  0.00  0.00    +0.000 C 
BRANCH   7   8
ATOM      8  C   UNL     1       2.355   6.530  18.274  0.00  0.00    +0.000 C 
BRANCH   8  10
ATOM      9  C   UNL     1       1.960   8.959  17.822  0.00  0.00    +0.000 C 
ATOM     10  C   UNL     1       3.004   7.851  17.865  0.00  0.00    +0.000 C 
ENDBRANCH   8  10
ENDBRANCH   7   8
ENDBRANCH   4   7
ENDBRANCH   3   4
ENDBRANCH   1   3
BRANCH   1  11
ATOM     11  C   UNL     1       3.831   3.816  16.810  0.00  0.00    +0.000 C 
BRANCH  11  12
ATOM     12  C   UNL     1       5.361   4.055  16.732  0.00  0.00    +0.000 C 
BRANCH  12  13
ATOM     13  C   UNL     1       5.807   4.866  15.486  0.00  0.00    +0.000 C 
ATOM     14  C   UNL     1       6.322   4.048  14.310  0.00  0.00    +0.000 C 
ENDBRANCH  12  13
BRANCH  12  15
ATOM     15  C   UNL     1       5.892   4.704  18.032  0.00  0.00    +0.000 C 
BRANCH  15  16
ATOM     16  C   UNL     1       7.397   4.998  17.980  0.00  0.00    +0.000 C 
BRANCH  16  17
ATOM     17  C   UNL     1       7.741   6.358  18.581  0.00  0.00    +0.000 C 
ATOM     18  C   UNL     1       7.597   7.455  17.537  0.00  0.00    +0.000 C 
ENDBRANCH  16  17
ENDBRANCH  15  16
ENDBRANCH  12  15
ENDBRANCH  11  12
ENDBRANCH   1  11
TORSDOF 12
ENDMDL
