MODEL 1
REMARK VINA RESULT:      -7.7      0.000      0.000
REMARK  Name = 
REMARK  12 active torsions:
REMARK  status: ('A' for Active; 'I' for Inactive)
REMARK    1  A    between atoms: C_2  and  C_4
REMARK    2  A    between atoms: C_7  and  N_8
REMARK    3  A    between atoms: N_8  and  C_9
REMARK    4  A    between atoms: C_9  and  C_10
REMARK    5  A    between atoms: C_10  and  C_11
REMARK    6  A    between atoms: C_11  and  C_12
REMARK    7  A    between atoms: C_12  and  C_13
REMARK    8  A    between atoms: C_13  and  N_14
REMARK    9  A    between atoms: N_14  and  C_15
REMARK   10  A    between atoms: C_18  and  C_19
REMARK   11  A    between atoms: C_23  and  N_24
REMARK   12  A    between atoms: C_25  and  N_26
REMARK                            x       y       z     vdW  Elec       q    Type
REMARK                         _______ _______ _______ _____ _____    ______ ____
ROOT
ATOM      1  C   UNL     1       7.659   5.769  18.900  0.00  0.00    +0.000 C 
ENDROOT
BRANCH   1   2
ATOM      2  C   UNL     1       7.631   7.027  18.021  0.00  0.00    +0.000 C 
BRANCH   2   3
ATOM      3  C   UNL     1       6.890   6.761  16.712  0.00  0.00    +0.000 C 
BRANCH   3   4
ATOM      4  N   UNL     1       7.710   6.006  15.812  0.00  0.00    +0.000 N 
ATOM      5  H   UNL     1       8.725   6.097  15.910  0.00  0.00    +0.000 HD
BRANCH   4   9
ATOM      6  C   UNL     1       5.916   3.531  12.856  0.00  0.00    +0.000 A 
ATOM      7  C   UNL     1       5.449   3.528  14.176  0.00  0.00    +0.000 A 
ATOM      8  C   UNL     1       6.050   4.324  15.139  0.00  0.00    +0.000 A 
ATOM      9  C   UNL     1       7.142   5.157  14.813  0.00  0.00    +0.000 A 
ATOM     10  C   UNL     1       7.645   5.147  13.495  0.00  0.00    +0.000 A 
ATOM     11  C   UNL     1       7.019   4.339  12.529  0.00  0.00    +0.000 A 
BRANCH   6  13
ATOM     12  N   UNL     1       5.778   1.598  11.444  0.00  0.00    +0.000 NA
ATOM     13  C   UNL     1       5.251   2.718  11.798  0.00  0.00    +0.000 C 
ATOM     14  N   UNL     1       4.060   3.155  11.154  0.00  0.00    +0.000 N 
ATOM     15  H   UNL     1       5.356   1.010  10.706  0.00  0.00    +0.000 HD
ATOM     16  H   UNL     1       3.628   2.581  10.407  0.00  0.00    +0.000 HD
ATOM     17  H   UNL     1       3.597   4.045  11.367  0.00  0.00    +0.000 HD
ENDBRANCH   6  13
BRANCH  10  18
ATOM     18  N   UNL     1       8.751   5.941  13.090  0.00  0.00    +0.000 N 
ATOM     19  H   UNL     1       8.900   6.280  12.130  0.00  0.00    +0.000 HD
ATOM     20  H   UNL     1       9.450   6.248  13.781  0.00  0.00    +0.000 HD
ENDBRANCH  10  18
ENDBRANCH   4   9
ENDBRANCH   3   4
ENDBRANCH   2   3
ENDBRANCH   1   2
BRANCH   1  21
ATOM     21  C   UNL     1       6.273   5.421  19.482  0.00  0.00    +0.000 C 
BRANCH  21  22
ATOM     22  C   UNL     1       5.636   4.220  18.763  0.00  0.00    +0.000 C 
BRANCH  22  23
ATOM     23  N   UNL     1       4.194   4.366  18.643  0.00  0.00    +0.000 N 
ATOM     24  H   UNL     1       3.632   3.517  18.536  0.00  0.00    +0.000 HD
BRANCH  23  25
ATOM     25  C   UNL     1       3.560   5.656  18.657  0.00  0.00    +0.000 A 
ATOM     26  C   UNL     1       3.704   6.512  17.545  0.00  0.00    +0.000 A 
ATOM     27  C   UNL     1       3.071   7.753  17.497  0.00  0.00    +0.000 A 
ATOM     28  C   UNL     1       2.256   8.197  18.551  0.00  0.00    +0.000 A 
ATOM     29  C   UNL     1       2.113   7.344  19.660  0.00  0.00    +0.000 A 
ATOM     30  C   UNL     1       2.756   6.100  19.744  0.00  0.00    +0.000 A 
BRANCH  28  31
ATOM     31  C   UNL     1       1.542   9.527  18.516  0.00  0.00    +0.000 C 
ATOM     32  N   UNL     1       1.742  10.381  17.566  0.00  0.00    +0.000 NA
ATOM     33  N   UNL     1       0.610   9.914  19.529  0.00  0.00    +0.000 N 
ATOM     34  H   UNL     1       2.377  10.234  16.774  0.00  0.00    +0.000 HD
ATOM     35  H   UNL     1       0.344   9.310  20.319  0.00  0.00    +0.000 HD
ATOM     36  H   UNL     1       0.143  10.823  19.473  0.00  0.00    +0.000 HD
ENDBRANCH  28  31
BRANCH  30  37
ATOM     37  N   UNL     1       2.558   5.365  20.944  0.00  0.00    +0.000 N 
ATOM     38  H   UNL     1       1.814   4.650  20.989  0.00  0.00    +0.000 HD
ATOM     39  H   UNL     1       3.060   5.566  21.819  0.00  0.00    +0.000 HD
ENDBRANCH  30  37
ENDBRANCH  23  25
ENDBRANCH  22  23
ENDBRANCH  21  22
ENDBRANCH   1  21
TORSDOF 12
ENDMDL
MODEL 2
REMARK VINA RESULT:      -7.6      3.156      5.244
REMARK  Name = 
REMARK  12 active torsions:
REMARK  status: ('A' for Active; 'I' for Inactive)
REMARK    1  A    between atoms: C_2  and  C_4
REMARK    2  A    between atoms: C_7  and  N_8
REMARK    3  A    between atoms: N_8  and  C_9
REMARK    4  A    between atoms: C_9  and  C_10
REMARK    5  A    between atoms: C_10  and  C_11
REMARK    6  A    between atoms: C_11  and  C_12
REMARK    7  A    between atoms: C_12  and  C_13
REMARK    8  A    between atoms: C_13  and  N_14
REMARK    9  A    between atoms: N_14  and  C_15
REMARK   10  A    between atoms: C_18  and  C_19
REMARK   11  A    between atoms: C_23  and  N_24
REMARK   12  A    between atoms: C_25  and  N_26
REMARK                            x       y       z     vdW  Elec       q    Type
REMARK                         _______ _______ _______ _____ _____    ______ ____
ROOT
ATOM      1  C   UNL     1       1.207   3.005  20.519  0.00  0.00    +0.000 C 
ENDROOT
BRANCH   1   2
ATOM      2  C   UNL     1       1.625   2.333  19.204  0.00  0.00    +0.000 C 
BRANCH   2   3
ATOM      3  C   UNL     1       1.780   3.367  18.090  0.00  0.00    +0.000 C 
BRANCH   3   4
ATOM      4  N   UNL     1       3.003   3.159  17.373  0.00  0.00    +0.000 N 
ATOM      5  H   UNL     1       3.046   2.358  16.736  0.00  0.00    +0.000 HD
BRANCH   4   9
ATOM      6  C   UNL     1       6.266   5.840  17.872  0.00  0.00    +0.000 A 
ATOM      7  C   UNL     1       5.327   6.031  16.850  0.00  0.00    +0.000 A 
ATOM      8  C   UNL     1       4.276   5.144  16.682  0.00  0.00    +0.000 A 
ATOM      9  C   UNL     1       4.124   4.030  17.535  0.00  0.00    +0.000 A 
ATOM     10  C   UNL     1       5.079   3.804  18.549  0.00  0.00    +0.000 A 
ATOM     11  C   UNL     1       6.135   4.719  18.710  0.00  0.00    +0.000 A 
BRANCH   6  13
ATOM     12  N   UNL     1       8.216   6.595  19.046  0.00  0.00    +0.000 NA
ATOM     13  C   UNL     1       7.374   6.811  18.097  0.00  0.00    +0.000 C 
ATOM     14  N   UNL     1       7.517   7.983  17.301  0.00  0.00    +0.000 N 
ATOM     15  H   UNL     1       8.991   7.250  19.243  0.00  0.00    +0.000 HD
ATOM     16  H   UNL     1       8.284   8.653  17.490  0.00  0.00    +0.000 HD
ATOM     17  H   UNL     1       6.872   8.232  16.544  0.00  0.00    +0.000 HD
ENDBRANCH   6  13
BRANCH  10  18
ATOM     18  N   UNL     1       5.009   2.699  19.438  0.00  0.00    +0.000 N 
ATOM     19  H   UNL     1       5.686   1.924  19.453  0.00  0.00    +0.000 HD
ATOM     20  H   UNL     1       4.268   2.654  20.153  0.00  0.00    +0.000 HD
ENDBRANCH  10  18
ENDBRANCH   4   9
ENDBRANCH   3   4
ENDBRANCH   2   3
ENDBRANCH   1   2
BRANCH   1  21
ATOM     21  C   UNL     1       2.187   4.112  20.959  0.00  0.00    +0.000 C 
BRANCH  21  22
ATOM     22  C   UNL     1       1.566   5.513  20.820  0.00  0.00    +0.000 C 
BRANCH  22  23
ATOM     23  N   UNL     1       2.470   6.439  20.155  0.00  0.00    +0.000 N 
ATOM     24  H   UNL     1       3.439   6.143  20.007  0.00  0.00    +0.000 HD
BRANCH  23  25
ATOM     25  C   UNL     1       2.039   7.741  19.727  0.00  0.00    +0.000 A 
ATOM     26  C   UNL     1       2.084   8.072  18.357  0.00  0.00    +0.000 A 
ATOM     27  C   UNL     1       1.636   9.307  17.893  0.00  0.00    +0.000 A 
ATOM     28  C   UNL     1       1.111  10.270  18.771  0.00  0.00    +0.000 A 
ATOM     29  C   UNL     1       1.067   9.941  20.137  0.00  0.00    +0.000 A 
ATOM     30  C   UNL     1       1.532   8.714  20.635  0.00  0.00    +0.000 A 
BRANCH  28  31
ATOM     31  C   UNL     1       0.600  11.608  18.292  0.00  0.00    +0.000 C 
ATOM     32  N   UNL     1      -0.658  11.820  18.088  0.00  0.00    +0.000 NA
ATOM     33  N   UNL     1       1.478  12.708  18.038  0.00  0.00    +0.000 N 
ATOM     34  H   UNL     1      -1.398  11.126  18.235  0.00  0.00    +0.000 HD
ATOM     35  H   UNL     1       2.495  12.672  18.193  0.00  0.00    +0.000 HD
ATOM     36  H   UNL     1       1.097  13.601  17.716  0.00  0.00    +0.000 HD
ENDBRANCH  28  31
BRANCH  30  37
ATOM     37  N   UNL     1       1.469   8.536  22.043  0.00  0.00    +0.000 N 
ATOM     38  H   UNL     1       2.187   7.968  22.520  0.00  0.00    +0.000 HD
ATOM     39  H   UNL     1       0.685   8.870  22.619  0.00  0.00    +0.000 HD
ENDBRANCH  30  37
ENDBRANCH  23  25
ENDBRANCH  22  23
ENDBRANCH  21  22
ENDBRANCH   1  21
TORSDOF 12
ENDMDL
MODEL 3
REMARK VINA RESULT:      -7.6      3.007      8.033
REMARK  Name = 
REMARK  12 active torsions:
REMARK  status: ('A' for Active; 'I' for Inactive)
REMARK    1  A    between atoms: C_2  and  C_4
REMARK    2  A    between atoms: C_7  and  N_8
REMARK    3  A    between atoms: N_8  and  C_9
REMARK    4  A    between atoms: C_9  and  C_10
REMARK    5  A    between atoms: C_10  and  C_11
REMARK    6  A    between atoms: C_11  and  C_12
REMARK    7  A    between atoms: C_12  and  C_13
REMARK    8  A    between atoms: C_13  and  N_14
REMARK    9  A    between atoms: N_14  and  C_15
REMARK   10  A    between atoms: C_18  and  C_19
REMARK   11  A    between atoms: C_23  and  N_24
REMARK   12  A    between atoms: C_25  and  N_26
REMARK                            x       y       z     vdW  Elec       q    Type
REMARK                         _______ _______ _______ _____ _____    ______ ____
ROOT
ATOM      1  C   UNL     1       0.926   4.423  20.428  0.00  0.00    +0.000 C 
ENDROOT
BRANCH   1   2
ATOM      2  C   UNL     1       2.198   5.253  20.649  0.00  0.00    +0.000 C 
BRANCH   2   3
ATOM      3  C   UNL     1       2.241   6.446  19.697  0.00  0.00    +0.000 C 
BRANCH   3   4
ATOM      4  N   UNL     1       2.080   7.675  20.418  0.00  0.00    +0.000 N 
ATOM      5  H   UNL     1       2.606   7.782  21.290  0.00  0.00    +0.000 HD
BRANCH   4   9
ATOM      6  C   UNL     1      -0.441  10.835  19.100  0.00  0.00    +0.000 A 
ATOM      7  C   UNL     1      -0.614  10.255  20.363  0.00  0.00    +0.000 A 
ATOM      8  C   UNL     1       0.199   9.213  20.780  0.00  0.00    +0.000 A 
ATOM      9  C   UNL     1       1.222   8.714  19.945  0.00  0.00    +0.000 A 
ATOM     10  C   UNL     1       1.388   9.264  18.656  0.00  0.00    +0.000 A 
ATOM     11  C   UNL     1       0.558  10.326  18.252  0.00  0.00    +0.000 A 
BRANCH   6  13
ATOM     12  N   UNL     1      -1.011  12.560  17.534  0.00  0.00    +0.000 NA
ATOM     13  C   UNL     1      -1.277  11.987  18.655  0.00  0.00    +0.000 C 
ATOM     14  N   UNL     1      -2.350  12.483  19.447  0.00  0.00    +0.000 N 
ATOM     15  H   UNL     1      -1.557  13.369  17.195  0.00  0.00    +0.000 HD
ATOM     16  H   UNL     1      -2.903  13.299  19.126  0.00  0.00    +0.000 HD
ATOM     17  H   UNL     1      -2.605  12.093  20.360  0.00  0.00    +0.000 HD
ENDBRANCH   6  13
BRANCH  10  18
ATOM     18  N   UNL     1       2.380   8.807  17.748  0.00  0.00    +0.000 N 
ATOM     19  H   UNL     1       2.543   9.211  16.816  0.00  0.00    +0.000 HD
ATOM     20  H   UNL     1       3.022   8.049  18.021  0.00  0.00    +0.000 HD
ENDBRANCH  10  18
ENDBRANCH   4   9
ENDBRANCH   3   4
ENDBRANCH   2   3
ENDBRANCH   1   2
BRANCH   1  21
ATOM     21  C   UNL     1       1.205   2.906  20.403  0.00  0.00    +0.000 C 
BRANCH  21  22
ATOM     22  C   UNL     1       1.142   2.336  18.975  0.00  0.00    +0.000 C 
BRANCH  22  23
ATOM     23  N   UNL     1       2.451   1.910  18.507  0.00  0.00    +0.000 N 
ATOM     24  H   UNL     1       2.648   0.905  18.477  0.00  0.00    +0.000 HD
BRANCH  23  25
ATOM     25  C   UNL     1       3.459   2.855  18.111  0.00  0.00    +0.000 A 
ATOM     26  C   UNL     1       3.277   3.611  16.934  0.00  0.00    +0.000 A 
ATOM     27  C   UNL     1       4.208   4.569  16.535  0.00  0.00    +0.000 A 
ATOM     28  C   UNL     1       5.361   4.827  17.295  0.00  0.00    +0.000 A 
ATOM     29  C   UNL     1       5.542   4.073  18.468  0.00  0.00    +0.000 A 
ATOM     30  C   UNL     1       4.633   3.087  18.881  0.00  0.00    +0.000 A 
BRANCH  28  31
ATOM     31  C   UNL     1       6.374   5.874  16.898  0.00  0.00    +0.000 C 
ATOM     32  N   UNL     1       7.239   5.661  15.962  0.00  0.00    +0.000 NA
ATOM     33  N   UNL     1       6.431   7.153  17.535  0.00  0.00    +0.000 N 
ATOM     34  H   UNL     1       7.309   4.794  15.419  0.00  0.00    +0.000 HD
ATOM     35  H   UNL     1       5.777   7.452  18.271  0.00  0.00    +0.000 HD
ATOM     36  H   UNL     1       7.130   7.840  17.239  0.00  0.00    +0.000 HD
ENDBRANCH  28  31
BRANCH  30  37
ATOM     37  N   UNL     1       4.968   2.371  20.062  0.00  0.00    +0.000 N 
ATOM     38  H   UNL     1       5.512   1.496  19.993  0.00  0.00    +0.000 HD
ATOM     39  H   UNL     1       4.618   2.626  20.995  0.00  0.00    +0.000 HD
ENDBRANCH  30  37
ENDBRANCH  23  25
ENDBRANCH  22  23
ENDBRANCH  21  22
ENDBRANCH   1  21
TORSDOF 12
ENDMDL
MODEL 4
REMARK VINA RESULT:      -7.6      2.659      5.608
REMARK  Name = 
REMARK  12 active torsions:
REMARK  status: ('A' for Active; 'I' for Inactive)
REMARK    1  A    between atoms: C_2  and  C_4
REMARK    2  A    between atoms: C_7  and  N_8
REMARK    3  A    between atoms: N_8  and  C_9
REMARK    4  A    between atoms: C_9  and  C_10
REMARK    5  A    between atoms: C_10  and  C_11
REMARK    6  A    between atoms: C_11  and  C_12
REMARK    7  A    between atoms: C_12  and  C_13
REMARK    8  A    between atoms: C_13  and  N_14
REMARK    9  A    between atoms: N_14  and  C_15
REMARK   10  A    between atoms: C_18  and  C_19
REMARK   11  A    between atoms: C_23  and  N_24
REMARK   12  A    between atoms: C_25  and  N_26
REMARK                            x       y       z     vdW  Elec       q    Type
REMARK                         _______ _______ _______ _____ _____    ______ ____
ROOT
ATOM      1  C   UNL     1       5.074   6.828  15.947  0.00  0.00    +0.000 C 
ENDROOT
BRANCH   1   2
ATOM      2  C   UNL     1       5.997   5.654  15.594  0.00  0.00    +0.000 C 
BRANCH   2   3
ATOM      3  C   UNL     1       5.184   4.424  15.196  0.00  0.00    +0.000 C 
BRANCH   3   4
ATOM      4  N   UNL     1       5.304   3.396  16.189  0.00  0.00    +0.000 N 
ATOM      5  H   UNL     1       6.019   2.678  16.040  0.00  0.00    +0.000 HD
BRANCH   4   9
ATOM      6  C   UNL     1       2.779   3.200  19.605  0.00  0.00    +0.000 A 
ATOM      7  C   UNL     1       2.277   2.943  18.323  0.00  0.00    +0.000 A 
ATOM      8  C   UNL     1       3.101   3.026  17.211  0.00  0.00    +0.000 A 
ATOM      9  C   UNL     1       4.464   3.368  17.343  0.00  0.00    +0.000 A 
ATOM     10  C   UNL     1       4.978   3.663  18.624  0.00  0.00    +0.000 A 
ATOM     11  C   UNL     1       4.130   3.567  19.742  0.00  0.00    +0.000 A 
BRANCH   6  13
ATOM     12  N   UNL     1       2.472   2.894  21.963  0.00  0.00    +0.000 NA
ATOM     13  C   UNL     1       1.918   3.069  20.814  0.00  0.00    +0.000 C 
ATOM     14  N   UNL     1       0.498   3.114  20.732  0.00  0.00    +0.000 N 
ATOM     15  H   UNL     1       1.910   2.785  22.825  0.00  0.00    +0.000 HD
ATOM     16  H   UNL     1      -0.079   3.000  21.585  0.00  0.00    +0.000 HD
ATOM     17  H   UNL     1      -0.012   3.229  19.850  0.00  0.00    +0.000 HD
ENDBRANCH   6  13
BRANCH  10  18
ATOM     18  N   UNL     1       6.332   4.033  18.841  0.00  0.00    +0.000 N 
ATOM     19  H   UNL     1       7.118   3.368  18.866  0.00  0.00    +0.000 HD
ATOM     20  H   UNL     1       6.588   5.025  18.947  0.00  0.00    +0.000 HD
ENDBRANCH  10  18
ENDBRANCH   4   9
ENDBRANCH   3   4
ENDBRANCH   2   3
ENDBRANCH   1   2
BRANCH   1  21
ATOM     21  C   UNL     1       4.859   6.979  17.467  0.00  0.00    +0.000 C 
BRANCH  21  22
ATOM     22  C   UNL     1       3.386   6.775  17.859  0.00  0.00    +0.000 C 
BRANCH  22  23
ATOM     23  N   UNL     1       2.635   8.020  17.802  0.00  0.00    +0.000 N 
ATOM     24  H   UNL     1       2.634   8.541  16.920  0.00  0.00    +0.000 HD
BRANCH  23  25
ATOM     25  C   UNL     1       1.925   8.529  18.942  0.00  0.00    +0.000 A 
ATOM     26  C   UNL     1       1.837   7.746  20.112  0.00  0.00    +0.000 A 
ATOM     27  C   UNL     1       1.195   8.218  21.256  0.00  0.00    +0.000 A 
ATOM     28  C   UNL     1       0.617   9.498  21.292  0.00  0.00    +0.000 A 
ATOM     29  C   UNL     1       0.704  10.278  20.126  0.00  0.00    +0.000 A 
ATOM     30  C   UNL     1       1.324   9.820  18.954  0.00  0.00    +0.000 A 
BRANCH  28  31
ATOM     31  C   UNL     1      -0.065  10.042  22.524  0.00  0.00    +0.000 C 
ATOM     32  N   UNL     1      -0.258  11.309  22.691  0.00  0.00    +0.000 NA
ATOM     33  N   UNL     1      -0.533   9.187  23.571  0.00  0.00    +0.000 N 
ATOM     34  H   UNL     1       0.020  12.034  22.021  0.00  0.00    +0.000 HD
ATOM     35  H   UNL     1      -0.466   8.160  23.540  0.00  0.00    +0.000 HD
ATOM     36  H   UNL     1      -0.994   9.589  24.392  0.00  0.00    +0.000 HD
ENDBRANCH  28  31
BRANCH  30  37
ATOM     37  N   UNL     1       1.296  10.698  17.837  0.00  0.00    +0.000 N 
ATOM     38  H   UNL     1       0.397  11.099  17.524  0.00  0.00    +0.000 HD
ATOM     39  H   UNL     1       2.119  10.892  17.251  0.00  0.00    +0.000 HD
ENDBRANCH  30  37
ENDBRANCH  23  25
ENDBRANCH  22  23
ENDBRANCH  21  22
ENDBRANCH   1  21
TORSDOF 12
ENDMDL
MODEL 5
REMARK VINA RESULT:      -7.5      3.415      5.777
REMARK  Name = 
REMARK  12 active torsions:
REMARK  status: ('A' for Active; 'I' for Inactive)
REMARK    1  A    between atoms: C_2  and  C_4
REMARK    2  A    between atoms: C_7  and  N_8
REMARK    3  A    between atoms: N_8  and  C_9
REMARK    4  A    between atoms: C_9  and  C_10
REMARK    5  A    between atoms: C_10  and  C_11
REMARK    6  A    between atoms: C_11  and  C_12
REMARK    7  A    between atoms: C_12  and  C_13
REMARK    8  A    between atoms: C_13  and  N_14
REMARK    9  A    between atoms: N_14  and  C_15
REMARK   10  A    between atoms: C_18  and  C_19
REMARK   11  A    between atoms: C_23  and  N_24
REMARK   12  A    between atoms: C_25  and  N_26
REMARK                            x       y       z     vdW  Elec       q    Type
REMARK                         _______ _______ _______ _____ _____    ______ ____
ROOT
ATOM      1  C   UNL     1       0.973   4.318  20.048  0.00  0.00    +0.000 C 
ENDROOT
BRANCH   1   2
ATOM      2  C   UNL     1       1.453   2.880  20.284  0.00  0.00    +0.000 C 
BRANCH   2   3
ATOM      3  C   UNL     1       1.326   2.047  19.010  0.00  0.00    +0.000 C 
BRANCH   3   4
ATOM      4  N   UNL     1       2.616   1.794  18.440  0.00  0.00    +0.000 N 
ATOM      5  H   UNL     1       2.845   0.824  18.203  0.00  0.00    +0.000 HD
BRANCH   4   9
ATOM      6  C   UNL     1       5.318   5.006  17.761  0.00  0.00    +0.000 A 
ATOM      7  C   UNL     1       4.214   4.805  16.922  0.00  0.00    +0.000 A 
ATOM      8  C   UNL     1       3.347   3.745  17.138  0.00  0.00    +0.000 A 
ATOM      9  C   UNL     1       3.553   2.847  18.207  0.00  0.00    +0.000 A 
ATOM     10  C   UNL     1       4.678   3.016  19.042  0.00  0.00    +0.000 A 
ATOM     11  C   UNL     1       5.543   4.101  18.813  0.00  0.00    +0.000 A 
BRANCH   6  13
ATOM     12  N   UNL     1       5.986   7.015  16.634  0.00  0.00    +0.000 NA
ATOM     13  C   UNL     1       6.233   6.168  17.571  0.00  0.00    +0.000 C 
ATOM     14  N   UNL     1       7.384   6.356  18.387  0.00  0.00    +0.000 N 
ATOM     15  H   UNL     1       6.603   7.826  16.460  0.00  0.00    +0.000 HD
ATOM     16  H   UNL     1       8.016   7.161  18.222  0.00  0.00    +0.000 HD
ATOM     17  H   UNL     1       7.656   5.712  19.137  0.00  0.00    +0.000 HD
ENDBRANCH   6  13
BRANCH  10  18
ATOM     18  N   UNL     1       4.966   2.147  20.128  0.00  0.00    +0.000 N 
ATOM     19  H   UNL     1       5.514   2.417  20.956  0.00  0.00    +0.000 HD
ATOM     20  H   UNL     1       4.587   1.189  20.140  0.00  0.00    +0.000 HD
ENDBRANCH  10  18
ENDBRANCH   4   9
ENDBRANCH   3   4
ENDBRANCH   2   3
ENDBRANCH   1   2
BRANCH   1  21
ATOM     21  C   UNL     1       2.039   5.369  20.420  0.00  0.00    +0.000 C 
BRANCH  21  22
ATOM     22  C   UNL     1       1.414   6.601  21.097  0.00  0.00    +0.000 C 
BRANCH  22  23
ATOM     23  N   UNL     1       2.000   7.839  20.608  0.00  0.00    +0.000 N 
ATOM     24  H   UNL     1       3.015   7.954  20.684  0.00  0.00    +0.000 HD
BRANCH  23  25
ATOM     25  C   UNL     1       1.194   8.889  20.048  0.00  0.00    +0.000 A 
ATOM     26  C   UNL     1       0.259   9.557  20.865  0.00  0.00    +0.000 A 
ATOM     27  C   UNL     1      -0.513  10.610  20.374  0.00  0.00    +0.000 A 
ATOM     28  C   UNL     1      -0.382  11.053  19.047  0.00  0.00    +0.000 A 
ATOM     29  C   UNL     1       0.550  10.386  18.233  0.00  0.00    +0.000 A 
ATOM     30  C   UNL     1       1.323   9.310  18.694  0.00  0.00    +0.000 A 
BRANCH  28  31
ATOM     31  C   UNL     1      -1.190  12.204  18.497  0.00  0.00    +0.000 C 
ATOM     32  N   UNL     1      -1.584  13.179  19.248  0.00  0.00    +0.000 NA
ATOM     33  N   UNL     1      -1.564  12.275  17.118  0.00  0.00    +0.000 N 
ATOM     34  H   UNL     1      -1.383  13.260  20.250  0.00  0.00    +0.000 HD
ATOM     35  H   UNL     1      -1.285  11.577  16.415  0.00  0.00    +0.000 HD
ATOM     36  H   UNL     1      -2.111  13.071  16.778  0.00  0.00    +0.000 HD
ENDBRANCH  28  31
BRANCH  30  37
ATOM     37  N   UNL     1       2.190   8.701  17.747  0.00  0.00    +0.000 N 
ATOM     38  H   UNL     1       2.193   7.674  17.643  0.00  0.00    +0.000 HD
ATOM     39  H   UNL     1       2.896   9.223  17.211  0.00  0.00    +0.000 HD
ENDBRANCH  30  37
ENDBRANCH  23  25
ENDBRANCH  22  23
ENDBRANCH  21  22
ENDBRANCH   1  21
TORSDOF 12
ENDMDL
MODEL 6
REMARK VINA RESULT:      -7.4      3.001      7.930
REMARK  Name = 
REMARK  12 active torsions:
REMARK  status: ('A' for Active; 'I' for Inactive)
REMARK    1  A    between atoms: C_2  and  C_4
REMARK    2  A    between atoms: C_7  and  N_8
REMARK    3  A    between atoms: N_8  and  C_9
REMARK    4  A    between atoms: C_9  and  C_10
REMARK    5  A    between atoms: C_10  and  C_11
REMARK    6  A    between atoms: C_11  and  C_12
REMARK    7  A    between atoms: C_12  and  C_13
REMARK    8  A    between atoms: C_13  and  N_14
REMARK    9  A    between atoms: N_14  and  C_15
REMARK   10  A    between atoms: C_18  and  C_19
REMARK   11  A    between atoms: C_23  and  N_24
REMARK   12  A    between atoms: C_25  and  N_26
REMARK                            x       y       z     vdW  Elec       q    Type
REMARK                         _______ _______ _______ _____ _____    ______ ____
ROOT
ATOM      1  C   UNL     1       1.417   3.267  20.924  0.00  0.00    +0.000 C 
ENDROOT
BRANCH   1   2
ATOM      2  C   UNL     1       2.241   4.515  21.270  0.00  0.00    +0.000 C 
BRANCH   2   3
ATOM      3  C   UNL     1       2.008   5.622  20.244  0.00  0.00    +0.000 C 
BRANCH   3   4
ATOM      4  N   UNL     1       2.152   6.913  20.851  0.00  0.00    +0.000 N 
ATOM      5  H   UNL     1       2.633   6.958  21.754  0.00  0.00    +0.000 HD
BRANCH   4   9
ATOM      6  C   UNL     1       0.578  10.364  18.930  0.00  0.00    +0.000 A 
ATOM      7  C   UNL     1       1.271   9.389  18.202  0.00  0.00    +0.000 A 
ATOM      8  C   UNL     1       1.797   8.274  18.837  0.00  0.00    +0.000 A 
ATOM      9  C   UNL     1       1.646   8.095  20.229  0.00  0.00    +0.000 A 
ATOM     10  C   UNL     1       0.979   9.084  20.982  0.00  0.00    +0.000 A 
ATOM     11  C   UNL     1       0.445  10.205  20.320  0.00  0.00    +0.000 A 
BRANCH   6  13
ATOM     12  N   UNL     1      -1.220  11.442  17.766  0.00  0.00    +0.000 NA
ATOM     13  C   UNL     1      -0.034  11.544  18.255  0.00  0.00    +0.000 C 
ATOM     14  N   UNL     1       0.665  12.777  18.120  0.00  0.00    +0.000 N 
ATOM     15  H   UNL     1      -1.676  12.232  17.279  0.00  0.00    +0.000 HD
ATOM     16  H   UNL     1       0.225  13.576  17.629  0.00  0.00    +0.000 HD
ATOM     17  H   UNL     1       1.619  12.924  18.464  0.00  0.00    +0.000 HD
ENDBRANCH   6  13
BRANCH  10  18
ATOM     18  N   UNL     1       0.800   8.988  22.388  0.00  0.00    +0.000 N 
ATOM     19  H   UNL     1       1.524   8.667  23.044  0.00  0.00    +0.000 HD
ATOM     20  H   UNL     1      -0.087   9.287  22.819  0.00  0.00    +0.000 HD
ENDBRANCH  10  18
ENDBRANCH   4   9
ENDBRANCH   3   4
ENDBRANCH   2   3
ENDBRANCH   1   2
BRANCH   1  21
ATOM     21  C   UNL     1       0.713   3.381  19.557  0.00  0.00    +0.000 C 
BRANCH  21  22
ATOM     22  C   UNL     1       1.083   2.215  18.624  0.00  0.00    +0.000 C 
BRANCH  22  23
ATOM     23  N   UNL     1       2.506   1.919  18.671  0.00  0.00    +0.000 N 
ATOM     24  H   UNL     1       2.797   1.014  19.053  0.00  0.00    +0.000 HD
BRANCH  23  25
ATOM     25  C   UNL     1       3.492   2.861  18.217  0.00  0.00    +0.000 A 
ATOM     26  C   UNL     1       3.257   3.595  17.035  0.00  0.00    +0.000 A 
ATOM     27  C   UNL     1       4.165   4.551  16.582  0.00  0.00    +0.000 A 
ATOM     28  C   UNL     1       5.347   4.828  17.289  0.00  0.00    +0.000 A 
ATOM     29  C   UNL     1       5.580   4.096  18.467  0.00  0.00    +0.000 A 
ATOM     30  C   UNL     1       4.695   3.113  18.934  0.00  0.00    +0.000 A 
BRANCH  28  31
ATOM     31  C   UNL     1       6.337   5.873  16.832  0.00  0.00    +0.000 C 
ATOM     32  N   UNL     1       7.202   5.628  15.904  0.00  0.00    +0.000 NA
ATOM     33  N   UNL     1       6.370   7.185  17.400  0.00  0.00    +0.000 N 
ATOM     34  H   UNL     1       7.287   4.735  15.407  0.00  0.00    +0.000 HD
ATOM     35  H   UNL     1       5.713   7.510  18.122  0.00  0.00    +0.000 HD
ATOM     36  H   UNL     1       7.054   7.869  17.064  0.00  0.00    +0.000 HD
ENDBRANCH  28  31
BRANCH  30  37
ATOM     37  N   UNL     1       5.082   2.420  20.113  0.00  0.00    +0.000 N 
ATOM     38  H   UNL     1       4.861   2.821  21.038  0.00  0.00    +0.000 HD
ATOM     39  H   UNL     1       5.662   1.571  20.103  0.00  0.00    +0.000 HD
ENDBRANCH  30  37
ENDBRANCH  23  25
ENDBRANCH  22  23
ENDBRANCH  21  22
ENDBRANCH   1  21
TORSDOF 12
ENDMDL
MODEL 7
REMARK VINA RESULT:      -7.4      2.356      4.667
REMARK  Name = 
REMARK  12 active torsions:
REMARK  status: ('A' for Active; 'I' for Inactive)
REMARK    1  A    between atoms: C_2  and  C_4
REMARK    2  A    between atoms: C_7  and  N_8
REMARK    3  A    between atoms: N_8  and  C_9
REMARK    4  A    between atoms: C_9  and  C_10
REMARK    5  A    between atoms: C_10  and  C_11
REMARK    6  A    between atoms: C_11  and  C_12
REMARK    7  A    between atoms: C_12  and  C_13
REMARK    8  A    between atoms: C_13  and  N_14
REMARK    9  A    between atoms: N_14  and  C_15
REMARK   10  A    between atoms: C_18  and  C_19
REMARK   11  A    between atoms: C_23  and  N_24
REMARK   12  A    between atoms: C_25  and  N_26
REMARK                            x       y       z     vdW  Elec       q    Type
REMARK                         _______ _______ _______ _____ _____    ______ ____
ROOT
ATOM      1  C   UNL     1       1.552   4.177  19.719  0.00  0.00    +0.000 C 
ENDROOT
BRANCH   1   2
ATOM      2  C   UNL     1       2.207   3.104  20.600  0.00  0.00    +0.000 C 
BRANCH   2   3
ATOM      3  C   UNL     1       3.568   2.695  20.038  0.00  0.00    +0.000 C 
BRANCH   3   4
ATOM      4  N   UNL     1       4.345   3.851  19.703  0.00  0.00    +0.000 N 
ATOM      5  H   UNL     1       4.425   4.587  20.411  0.00  0.00    +0.000 HD
BRANCH   4   9
ATOM      6  C   UNL     1       6.162   4.297  15.885  0.00  0.00    +0.000 A 
ATOM      7  C   UNL     1       4.937   3.632  16.025  0.00  0.00    +0.000 A 
ATOM      8  C   UNL     1       4.359   3.475  17.275  0.00  0.00    +0.000 A 
ATOM      9  C   UNL     1       4.987   3.981  18.433  0.00  0.00    +0.000 A 
ATOM     10  C   UNL     1       6.237   4.624  18.313  0.00  0.00    +0.000 A 
ATOM     11  C   UNL     1       6.806   4.782  17.037  0.00  0.00    +0.000 A 
BRANCH   6  13
ATOM     12  N   UNL     1       7.621   5.473  14.388  0.00  0.00    +0.000 NA
ATOM     13  C   UNL     1       6.775   4.516  14.543  0.00  0.00    +0.000 C 
ATOM     14  N   UNL     1       6.434   3.707  13.423  0.00  0.00    +0.000 N 
ATOM     15  H   UNL     1       8.058   5.667  13.472  0.00  0.00    +0.000 HD
ATOM     16  H   UNL     1       6.858   3.892  12.496  0.00  0.00    +0.000 HD
ATOM     17  H   UNL     1       5.753   2.942  13.466  0.00  0.00    +0.000 HD
ENDBRANCH   6  13
BRANCH  10  18
ATOM     18  N   UNL     1       6.943   5.146  19.430  0.00  0.00    +0.000 N 
ATOM     19  H   UNL     1       6.499   5.440  20.311  0.00  0.00    +0.000 HD
ATOM     20  H   UNL     1       7.971   5.214  19.408  0.00  0.00    +0.000 HD
ENDBRANCH  10  18
ENDBRANCH   4   9
ENDBRANCH   3   4
ENDBRANCH   2   3
ENDBRANCH   1   2
BRANCH   1  21
ATOM     21  C   UNL     1       1.172   5.445  20.512  0.00  0.00    +0.000 C 
BRANCH  21  22
ATOM     22  C   UNL     1       2.158   6.597  20.253  0.00  0.00    +0.000 C 
BRANCH  22  23
ATOM     23  N   UNL     1       1.775   7.804  20.968  0.00  0.00    +0.000 N 
ATOM     24  H   UNL     1       2.015   7.871  21.962  0.00  0.00    +0.000 HD
BRANCH  23  25
ATOM     25  C   UNL     1       1.067   8.875  20.323  0.00  0.00    +0.000 A 
ATOM     26  C   UNL     1       1.413   9.242  19.006  0.00  0.00    +0.000 A 
ATOM     27  C   UNL     1       0.724  10.245  18.327  0.00  0.00    +0.000 A 
ATOM     28  C   UNL     1      -0.351  10.925  18.924  0.00  0.00    +0.000 A 
ATOM     29  C   UNL     1      -0.696  10.559  20.237  0.00  0.00    +0.000 A 
ATOM     30  C   UNL     1      -0.005   9.570  20.952  0.00  0.00    +0.000 A 
BRANCH  28  31
ATOM     31  C   UNL     1      -1.128  12.001  18.203  0.00  0.00    +0.000 C 
ATOM     32  N   UNL     1      -1.182  13.213  18.647  0.00  0.00    +0.000 NA
ATOM     33  N   UNL     1      -1.846  11.735  16.995  0.00  0.00    +0.000 N 
ATOM     34  H   UNL     1      -0.711  13.545  19.495  0.00  0.00    +0.000 HD
ATOM     35  H   UNL     1      -1.855  10.819  16.527  0.00  0.00    +0.000 HD
ATOM     36  H   UNL     1      -2.361  12.489  16.531  0.00  0.00    +0.000 HD
ENDBRANCH  28  31
BRANCH  30  37
ATOM     37  N   UNL     1      -0.433   9.337  22.287  0.00  0.00    +0.000 N 
ATOM     38  H   UNL     1       0.056   9.800  23.069  0.00  0.00    +0.000 HD
ATOM     39  H   UNL     1      -1.158   8.651  22.536  0.00  0.00    +0.000 HD
ENDBRANCH  30  37
ENDBRANCH  23  25
ENDBRANCH  22  23
ENDBRANCH  21  22
ENDBRANCH   1  21
TORSDOF 12
ENDMDL
MODEL 8
REMARK VINA RESULT:      -7.4      2.869      5.138
REMARK  Name = 
REMARK  12 active torsions:
REMARK  status: ('A' for Active; 'I' for Inactive)
REMARK    1  A    between atoms: C_2  and  C_4
REMARK    2  A    between atoms: C_7  and  N_8
REMARK    3  A    between atoms: N_8  and  C_9
REMARK    4  A    between atoms: C_9  and  C_10
REMARK    5  A    between atoms: C_10  and  C_11
REMARK    6  A    between atoms: C_11  and  C_12
REMARK    7  A    between atoms: C_12  and  C_13
REMARK    8  A    between atoms: C_13  and  N_14
REMARK    9  A    between atoms: N_14  and  C_15
REMARK   10  A    between atoms: C_18  and  C_19
REMARK   11  A    between atoms: C_23  and  N_24
REMARK   12  A    between atoms: C_25  and  N_26
REMARK                            x       y       z     vdW  Elec       q    Type
REMARK                         _______ _______ _______ _____ _____    ______ ____
ROOT
ATOM      1  C   UNL     1       1.488   3.294  19.257  0.00  0.00    +0.000 C 
ENDROOT
BRANCH   1   2
ATOM      2  C   UNL     1       1.898   3.916  17.915  0.00  0.00    +0.000 C 
BRANCH   2   3
ATOM      3  C   UNL     1       2.476   2.858  16.978  0.00  0.00    +0.000 C 
BRANCH   3   4
ATOM      4  N   UNL     1       3.842   2.581  17.310  0.00  0.00    +0.000 N 
ATOM      5  H   UNL     1       4.110   1.599  17.423  0.00  0.00    +0.000 HD
BRANCH   4   9
ATOM      6  C   UNL     1       6.611   5.774  17.776  0.00  0.00    +0.000 A 
ATOM      7  C   UNL     1       6.012   5.516  16.536  0.00  0.00    +0.000 A 
ATOM      8  C   UNL     1       5.124   4.462  16.386  0.00  0.00    +0.000 A 
ATOM      9  C   UNL     1       4.800   3.627  17.477  0.00  0.00    +0.000 A 
ATOM     10  C   UNL     1       5.419   3.853  18.725  0.00  0.00    +0.000 A 
ATOM     11  C   UNL     1       6.313   4.931  18.861  0.00  0.00    +0.000 A 
BRANCH   6  13
ATOM     12  N   UNL     1       8.306   6.956  18.993  0.00  0.00    +0.000 NA
ATOM     13  C   UNL     1       7.532   6.931  17.965  0.00  0.00    +0.000 C 
ATOM     14  N   UNL     1       7.565   8.020  17.050  0.00  0.00    +0.000 N 
ATOM     15  H   UNL     1       8.950   7.746  19.169  0.00  0.00    +0.000 HD
ATOM     16  H   UNL     1       8.199   8.823  17.214  0.00  0.00    +0.000 HD
ATOM     17  H   UNL     1       6.962   8.080  16.222  0.00  0.00    +0.000 HD
ENDBRANCH   6  13
BRANCH  10  18
ATOM     18  N   UNL     1       5.161   3.049  19.867  0.00  0.00    +0.000 N 
ATOM     19  H   UNL     1       4.392   2.368  19.935  0.00  0.00    +0.000 HD
ATOM     20  H   UNL     1       5.786   3.095  20.685  0.00  0.00    +0.000 HD
ENDBRANCH  10  18
ENDBRANCH   4   9
ENDBRANCH   3   4
ENDBRANCH   2   3
ENDBRANCH   1   2
BRANCH   1  21
ATOM     21  C   UNL     1       1.049   4.351  20.291  0.00  0.00    +0.000 C 
BRANCH  21  22
ATOM     22  C   UNL     1       2.242   4.893  21.097  0.00  0.00    +0.000 C 
BRANCH  22  23
ATOM     23  N   UNL     1       2.900   5.994  20.410  0.00  0.00    +0.000 N 
ATOM     24  H   UNL     1       3.900   5.905  20.207  0.00  0.00    +0.000 HD
BRANCH  23  25
ATOM     25  C   UNL     1       2.189   7.185  20.035  0.00  0.00    +0.000 A 
ATOM     26  C   UNL     1       1.329   7.803  20.966  0.00  0.00    +0.000 A 
ATOM     27  C   UNL     1       0.653   8.983  20.660  0.00  0.00    +0.000 A 
ATOM     28  C   UNL     1       0.811   9.611  19.413  0.00  0.00    +0.000 A 
ATOM     29  C   UNL     1       1.668   8.995  18.484  0.00  0.00    +0.000 A 
ATOM     30  C   UNL     1       2.342   7.795  18.757  0.00  0.00    +0.000 A 
BRANCH  28  31
ATOM     31  C   UNL     1       0.108  10.900  19.062  0.00  0.00    +0.000 C 
ATOM     32  N   UNL     1      -0.613  11.014  17.996  0.00  0.00    +0.000 NA
ATOM     33  N   UNL     1       0.203  12.063  19.889  0.00  0.00    +0.000 N 
ATOM     34  H   UNL     1      -0.773  10.261  17.318  0.00  0.00    +0.000 HD
ATOM     35  H   UNL     1       0.721  12.090  20.778  0.00  0.00    +0.000 HD
ATOM     36  H   UNL     1      -0.288  12.921  19.622  0.00  0.00    +0.000 HD
ENDBRANCH  28  31
BRANCH  30  37
ATOM     37  N   UNL     1       3.139   7.263  17.708  0.00  0.00    +0.000 N 
ATOM     38  H   UNL     1       3.266   6.241  17.631  0.00  0.00    +0.000 HD
ATOM     39  H   UNL     1       3.683   7.847  17.060  0.00  0.00    +0.000 HD
ENDBRANCH  30  37
ENDBRANCH  23  25
ENDBRANCH  22  23
ENDBRANCH  21  22
ENDBRANCH   1  21
TORSDOF 12
ENDMDL
MODEL 9
REMARK VINA RESULT:      -7.3      2.599      7.677
REMARK  Name = 
REMARK  12 active torsions:
REMARK  status: ('A' for Active; 'I' for Inactive)
REMARK    1  A    between atoms: C_2  and  C_4
REMARK    2  A    between atoms: C_7  and  N_8
REMARK    3  A    between atoms: N_8  and  C_9
REMARK    4  A    between atoms: C_9  and  C_10
REMARK    5  A    between atoms: C_10  and  C_11
REMARK    6  A    between atoms: C_11  and  C_12
REMARK    7  A    between atoms: C_12  and  C_13
REMARK    8  A    between atoms: C_13  and  N_14
REMARK    9  A    between atoms: N_14  and  C_15
REMARK   10  A    between atoms: C_18  and  C_19
REMARK   11  A    between atoms: C_23  and  N_24
REMARK   12  A    between atoms: C_25  and  N_26
REMARK                            x       y       z     vdW  Elec       q    Type
REMARK                         _______ _______ _______ _____ _____    ______ ____
ROOT
ATOM      1  C   UNL     1       6.146   6.801  16.336  0.00  0.00    +0.000 C 
ENDROOT
BRANCH   1   2
ATOM      2  C   UNL     1       4.616   6.805  16.457  0.00  0.00    +0.000 C 
BRANCH   2   3
ATOM      3  C   UNL     1       4.182   7.236  17.857  0.00  0.00    +0.000 C 
BRANCH   3   4
ATOM      4  N   UNL     1       2.761   7.119  18.003  0.00  0.00    +0.000 N 
ATOM      5  H   UNL     1       2.267   6.510  17.344  0.00  0.00    +0.000 HD
BRANCH   4   9
ATOM      6  C   UNL     1       0.746   9.197  21.119  0.00  0.00    +0.000 A 
ATOM      7  C   UNL     1       1.218   7.892  21.312  0.00  0.00    +0.000 A 
ATOM      8  C   UNL     1       1.858   7.213  20.287  0.00  0.00    +0.000 A 
ATOM      9  C   UNL     1       2.052   7.819  19.027  0.00  0.00    +0.000 A 
ATOM     10  C   UNL     1       1.554   9.121  18.805  0.00  0.00    +0.000 A 
ATOM     11  C   UNL     1       0.913   9.797  19.859  0.00  0.00    +0.000 A 
BRANCH   6  13
ATOM     12  N   UNL     1       0.381   9.656  23.444  0.00  0.00    +0.000 NA
ATOM     13  C   UNL     1       0.098   9.958  22.225  0.00  0.00    +0.000 C 
ATOM     14  N   UNL     1      -0.841  10.997  21.970  0.00  0.00    +0.000 N 
ATOM     15  H   UNL     1      -0.057  10.150  24.240  0.00  0.00    +0.000 HD
ATOM     16  H   UNL     1      -1.293  11.497  22.757  0.00  0.00    +0.000 HD
ATOM     17  H   UNL     1      -1.131  11.276  21.027  0.00  0.00    +0.000 HD
ENDBRANCH   6  13
BRANCH  10  18
ATOM     18  N   UNL     1       1.691   9.794  17.562  0.00  0.00    +0.000 N 
ATOM     19  H   UNL     1       2.073   9.364  16.709  0.00  0.00    +0.000 HD
ATOM     20  H   UNL     1       1.364  10.766  17.460  0.00  0.00    +0.000 HD
ENDBRANCH  10  18
ENDBRANCH   4   9
ENDBRANCH   3   4
ENDBRANCH   2   3
ENDBRANCH   1   2
BRANCH   1  21
ATOM     21  C   UNL     1       6.697   5.453  15.826  0.00  0.00    +0.000 C 
BRANCH  21  22
ATOM     22  C   UNL     1       5.577   4.541  15.297  0.00  0.00    +0.000 C 
BRANCH  22  23
ATOM     23  N   UNL     1       5.359   3.396  16.166  0.00  0.00    +0.000 N 
ATOM     24  H   UNL     1       5.850   2.525  15.947  0.00  0.00    +0.000 HD
BRANCH  23  25
ATOM     25  C   UNL     1       4.470   3.459  17.294  0.00  0.00    +0.000 A 
ATOM     26  C   UNL     1       3.103   3.155  17.118  0.00  0.00    +0.000 A 
ATOM     27  C   UNL     1       2.214   3.162  18.192  0.00  0.00    +0.000 A 
ATOM     28  C   UNL     1       2.646   3.463  19.495  0.00  0.00    +0.000 A 
ATOM     29  C   UNL     1       4.008   3.767  19.669  0.00  0.00    +0.000 A 
ATOM     30  C   UNL     1       4.920   3.790  18.603  0.00  0.00    +0.000 A 
BRANCH  28  31
ATOM     31  C   UNL     1       1.709   3.457  20.679  0.00  0.00    +0.000 C 
ATOM     32  N   UNL     1       2.113   3.138  21.864  0.00  0.00    +0.000 NA
ATOM     33  N   UNL     1       0.327   3.802  20.552  0.00  0.00    +0.000 N 
ATOM     34  H   UNL     1       3.076   2.876  22.100  0.00  0.00    +0.000 HD
ATOM     35  H   UNL     1      -0.107   4.103  19.668  0.00  0.00    +0.000 HD
ATOM     36  H   UNL     1      -0.280   3.790  21.376  0.00  0.00    +0.000 HD
ENDBRANCH  28  31
BRANCH  30  37
ATOM     37  N   UNL     1       6.255   4.159  18.919  0.00  0.00    +0.000 N 
ATOM     38  H   UNL     1       6.595   5.104  18.677  0.00  0.00    +0.000 HD
ATOM     39  H   UNL     1       6.947   3.501  19.300  0.00  0.00    +0.000 HD
ENDBRANCH  30  37
ENDBRANCH  23  25
ENDBRANCH  22  23
ENDBRANCH  21  22
ENDBRANCH   1  21
TORSDOF 12
ENDMDL
