MODEL 1
REMARK VINA RESULT:      -7.2      0.000      0.000
REMARK  Name = 
REMARK  4 active torsions:
REMARK  status: ('A' for Active; 'I' for Inactive)
REMARK    1  A    between atoms: C_4  and  N_5
REMARK    2  A    between atoms: C_13  and  C_14
REMARK    3  A    between atoms: C_14  and  C_15
REMARK    4  A    between atoms: C_15  and  N_16
REMARK                            x       y       z     vdW  Elec       q    Type
REMARK                         _______ _______ _______ _____ _____    ______ ____
ROOT
ATOM      1  N   UNL     1       6.880   4.751  15.849  0.00  0.00    +0.000 N 
ATOM      2  N   UNL     1       7.864   4.202  16.602  0.00  0.00    +0.000 NA
ATOM      3  C   UNL     1       7.562   4.536  17.849  0.00  0.00    +0.000 A 
ATOM      4  C   UNL     1       6.279   5.108  17.957  0.00  0.00    +0.000 A 
ATOM      5  C   UNL     1       5.892   5.308  16.653  0.00  0.00    +0.000 A 
ATOM      6  C   UNL     1       4.617   5.905  16.196  0.00  0.00    +0.000 C 
ATOM      7  C   UNL     1       3.651   6.201  17.350  0.00  0.00    +0.000 C 
ATOM      8  C   UNL     1       4.185   6.239  18.797  0.00  0.00    +0.000 C 
ATOM      9  C   UNL     1       5.467   5.436  19.163  0.00  0.00    +0.000 C 
ENDROOT
BRANCH   1  13
ATOM     10  C   UNL     1       7.230   4.537  11.668  0.00  0.00    +0.000 A 
ATOM     11  C   UNL     1       6.370   3.680  12.341  0.00  0.00    +0.000 A 
ATOM     12  C   UNL     1       6.256   3.751  13.728  0.00  0.00    +0.000 A 
ATOM     13  C   UNL     1       6.990   4.717  14.438  0.00  0.00    +0.000 A 
ATOM     14  C   UNL     1       7.856   5.574  13.758  0.00  0.00    +0.000 A 
ATOM     15  C   UNL     1       7.986   5.475  12.376  0.00  0.00    +0.000 A 
ENDBRANCH   1  13
BRANCH   9  16
ATOM     16  C   UNL     1       5.082   4.181  19.991  0.00  0.00    +0.000 C 
BRANCH  16  17
ATOM     17  C   UNL     1       4.108   3.218  19.280  0.00  0.00    +0.000 C 
BRANCH  17  18
ATOM     18  N   UNL     1       3.159   2.528  20.167  0.00  0.00    +0.000 NA
ATOM     19  C   UNL     1       2.055   1.920  19.379  0.00  0.00    +0.000 C 
ATOM     20  C   UNL     1       0.975   2.909  18.894  0.00  0.00    +0.000 C 
ATOM     21  O   UNL     1       0.451   3.695  19.972  0.00  0.00    +0.000 OA
ATOM     22  C   UNL     1       1.508   4.397  20.633  0.00  0.00    +0.000 C 
ATOM     23  C   UNL     1       2.553   3.415  21.186  0.00  0.00    +0.000 C 
ENDBRANCH  17  18
ENDBRANCH  16  17
ENDBRANCH   9  16
TORSDOF 4
ENDMDL
MODEL 2
REMARK VINA RESULT:      -7.1      0.104      1.015
REMARK  Name = 
REMARK  4 active torsions:
REMARK  status: ('A' for Active; 'I' for Inactive)
REMARK    1  A    between atoms: C_4  and  N_5
REMARK    2  A    between atoms: C_13  and  C_14
REMARK    3  A    between atoms: C_14  and  C_15
REMARK    4  A    between atoms: C_15  and  N_16
REMARK                            x       y       z     vdW  Elec       q    Type
REMARK                         _______ _______ _______ _____ _____    ______ ____
ROOT
ATOM      1  N   UNL     1       6.882   4.705  15.857  0.00  0.00    +0.000 N 
ATOM      2  N   UNL     1       7.857   4.183  16.639  0.00  0.00    +0.000 NA
ATOM      3  C   UNL     1       7.538   4.550  17.872  0.00  0.00    +0.000 A 
ATOM      4  C   UNL     1       6.251   5.120  17.946  0.00  0.00    +0.000 A 
ATOM      5  C   UNL     1       5.880   5.280  16.632  0.00  0.00    +0.000 A 
ATOM      6  C   UNL     1       4.610   5.857  16.141  0.00  0.00    +0.000 C 
ATOM      7  C   UNL     1       3.627   6.183  17.273  0.00  0.00    +0.000 C 
ATOM      8  C   UNL     1       4.141   6.264  18.725  0.00  0.00    +0.000 C 
ATOM      9  C   UNL     1       5.422   5.478  19.131  0.00  0.00    +0.000 C 
ENDROOT
BRANCH   1  13
ATOM     10  C   UNL     1       7.238   4.594  11.672  0.00  0.00    +0.000 A 
ATOM     11  C   UNL     1       7.976   5.507  12.411  0.00  0.00    +0.000 A 
ATOM     12  C   UNL     1       7.857   5.545  13.799  0.00  0.00    +0.000 A 
ATOM     13  C   UNL     1       7.010   4.630  14.450  0.00  0.00    +0.000 A 
ATOM     14  C   UNL     1       6.266   3.715  13.703  0.00  0.00    +0.000 A 
ATOM     15  C   UNL     1       6.371   3.706  12.315  0.00  0.00    +0.000 A 
ENDBRANCH   1  13
BRANCH   9  16
ATOM     16  C   UNL     1       5.031   4.245  19.990  0.00  0.00    +0.000 C 
BRANCH  16  17
ATOM     17  C   UNL     1       4.214   3.174  19.238  0.00  0.00    +0.000 C 
BRANCH  17  18
ATOM     18  N   UNL     1       3.237   2.446  20.063  0.00  0.00    +0.000 NA
ATOM     19  C   UNL     1       2.106   1.963  19.229  0.00  0.00    +0.000 C 
ATOM     20  C   UNL     1       1.070   3.039  18.844  0.00  0.00    +0.000 C 
ATOM     21  O   UNL     1       0.582   3.743  19.993  0.00  0.00    +0.000 OA
ATOM     22  C   UNL     1       1.671   4.335  20.710  0.00  0.00    +0.000 C 
ATOM     23  C   UNL     1       2.672   3.261  21.164  0.00  0.00    +0.000 C 
ENDBRANCH  17  18
ENDBRANCH  16  17
ENDBRANCH   9  16
TORSDOF 4
ENDMDL
MODEL 3
REMARK VINA RESULT:      -7.1      0.887      1.113
REMARK  Name = 
REMARK  4 active torsions:
REMARK  status: ('A' for Active; 'I' for Inactive)
REMARK    1  A    between atoms: C_4  and  N_5
REMARK    2  A    between atoms: C_13  and  C_14
REMARK    3  A    between atoms: C_14  and  C_15
REMARK    4  A    between atoms: C_15  and  N_16
REMARK                            x       y       z     vdW  Elec       q    Type
REMARK                         _______ _______ _______ _____ _____    ______ ____
ROOT
ATOM      1  N   UNL     1       6.837   4.721  15.898  0.00  0.00    +0.000 N 
ATOM      2  N   UNL     1       7.847   4.237  16.661  0.00  0.00    +0.000 NA
ATOM      3  C   UNL     1       7.527   4.575  17.902  0.00  0.00    +0.000 A 
ATOM      4  C   UNL     1       6.215   5.082  18.000  0.00  0.00    +0.000 A 
ATOM      5  C   UNL     1       5.820   5.238  16.692  0.00  0.00    +0.000 A 
ATOM      6  C   UNL     1       4.517   5.760  16.225  0.00  0.00    +0.000 C 
ATOM      7  C   UNL     1       3.535   6.026  17.373  0.00  0.00    +0.000 C 
ATOM      8  C   UNL     1       4.064   6.115  18.819  0.00  0.00    +0.000 C 
ATOM      9  C   UNL     1       5.386   5.386  19.200  0.00  0.00    +0.000 C 
ENDROOT
BRANCH   1  13
ATOM     10  C   UNL     1       7.196   4.453  11.721  0.00  0.00    +0.000 A 
ATOM     11  C   UNL     1       6.320   3.618  12.401  0.00  0.00    +0.000 A 
ATOM     12  C   UNL     1       6.203   3.706  13.787  0.00  0.00    +0.000 A 
ATOM     13  C   UNL     1       6.950   4.668  14.489  0.00  0.00    +0.000 A 
ATOM     14  C   UNL     1       7.833   5.504  13.801  0.00  0.00    +0.000 A 
ATOM     15  C   UNL     1       7.965   5.387  12.421  0.00  0.00    +0.000 A 
ENDBRANCH   1  13
BRANCH   9  16
ATOM     16  C   UNL     1       5.066   4.127  20.049  0.00  0.00    +0.000 C 
BRANCH  16  17
ATOM     17  C   UNL     1       3.568   3.932  20.365  0.00  0.00    +0.000 C 
BRANCH  17  18
ATOM     18  N   UNL     1       3.074   2.556  20.202  0.00  0.00    +0.000 NA
ATOM     19  C   UNL     1       3.655   1.932  18.984  0.00  0.00    +0.000 C 
ATOM     20  C   UNL     1       3.020   2.383  17.652  0.00  0.00    +0.000 C 
ATOM     21  O   UNL     1       1.595   2.232  17.664  0.00  0.00    +0.000 OA
ATOM     22  C   UNL     1       1.028   2.962  18.756  0.00  0.00    +0.000 C 
ATOM     23  C   UNL     1       1.599   2.469  20.095  0.00  0.00    +0.000 C 
ENDBRANCH  17  18
ENDBRANCH  16  17
ENDBRANCH   9  16
TORSDOF 4
ENDMDL
MODEL 4
REMARK VINA RESULT:      -7.1      3.731      7.573
REMARK  Name = 
REMARK  4 active torsions:
REMARK  status: ('A' for Active; 'I' for Inactive)
REMARK    1  A    between atoms: C_4  and  N_5
REMARK    2  A    between atoms: C_13  and  C_14
REMARK    3  A    between atoms: C_14  and  C_15
REMARK    4  A    between atoms: C_15  and  N_16
REMARK                            x       y       z     vdW  Elec       q    Type
REMARK                         _______ _______ _______ _____ _____    ______ ____
ROOT
ATOM      1  N   UNL     1       1.861   7.182  20.180  0.00  0.00    +0.000 N 
ATOM      2  N   UNL     1       1.725   6.104  20.989  0.00  0.00    +0.000 NA
ATOM      3  C   UNL     1       2.209   5.089  20.286  0.00  0.00    +0.000 A 
ATOM      4  C   UNL     1       2.865   5.512  19.113  0.00  0.00    +0.000 A 
ATOM      5  C   UNL     1       2.563   6.851  19.026  0.00  0.00    +0.000 A 
ATOM      6  C   UNL     1       2.993   7.781  17.959  0.00  0.00    +0.000 C 
ATOM      7  C   UNL     1       3.954   7.132  16.954  0.00  0.00    +0.000 C 
ATOM      8  C   UNL     1       4.065   5.595  16.895  0.00  0.00    +0.000 C 
ATOM      9  C   UNL     1       3.713   4.750  18.154  0.00  0.00    +0.000 C 
ENDROOT
BRANCH   1  13
ATOM     10  C   UNL     1       0.080  10.787  21.397  0.00  0.00    +0.000 A 
ATOM     11  C   UNL     1       0.438   9.833  22.339  0.00  0.00    +0.000 A 
ATOM     12  C   UNL     1       1.027   8.636  21.935  0.00  0.00    +0.000 A 
ATOM     13  C   UNL     1       1.289   8.416  20.571  0.00  0.00    +0.000 A 
ATOM     14  C   UNL     1       0.924   9.377  19.627  0.00  0.00    +0.000 A 
ATOM     15  C   UNL     1       0.309  10.555  20.038  0.00  0.00    +0.000 A 
ENDBRANCH   1  13
BRANCH   9  16
ATOM     16  C   UNL     1       5.015   4.204  18.799  0.00  0.00    +0.000 C 
BRANCH  16  17
ATOM     17  C   UNL     1       5.964   5.291  19.345  0.00  0.00    +0.000 C 
BRANCH  17  18
ATOM     18  N   UNL     1       7.361   5.176  18.898  0.00  0.00    +0.000 NA
ATOM     19  C   UNL     1       7.995   6.518  18.813  0.00  0.00    +0.000 C 
ATOM     20  C   UNL     1       7.603   7.350  17.575  0.00  0.00    +0.000 C 
ATOM     21  O   UNL     1       7.806   6.620  16.358  0.00  0.00    +0.000 OA
ATOM     22  C   UNL     1       7.068   5.394  16.386  0.00  0.00    +0.000 C 
ATOM     23  C   UNL     1       7.505   4.524  17.576  0.00  0.00    +0.000 C 
ENDBRANCH  17  18
ENDBRANCH  16  17
ENDBRANCH   9  16
TORSDOF 4
ENDMDL
MODEL 5
REMARK VINA RESULT:      -7.1      4.619      7.877
REMARK  Name = 
REMARK  4 active torsions:
REMARK  status: ('A' for Active; 'I' for Inactive)
REMARK    1  A    between atoms: C_4  and  N_5
REMARK    2  A    between atoms: C_13  and  C_14
REMARK    3  A    between atoms: C_14  and  C_15
REMARK    4  A    between atoms: C_15  and  N_16
REMARK                            x       y       z     vdW  Elec       q    Type
REMARK                         _______ _______ _______ _____ _____    ______ ____
ROOT
ATOM      1  N   UNL     1       1.405   9.102  18.855  0.00  0.00    +0.000 N 
ATOM      2  N   UNL     1       2.081   9.281  17.695  0.00  0.00    +0.000 NA
ATOM      3  C   UNL     1       2.962   8.291  17.659  0.00  0.00    +0.000 A 
ATOM      4  C   UNL     1       2.735   7.333  18.667  0.00  0.00    +0.000 A 
ATOM      5  C   UNL     1       1.781   7.912  19.469  0.00  0.00    +0.000 A 
ATOM      6  C   UNL     1       1.191   7.329  20.695  0.00  0.00    +0.000 C 
ATOM      7  C   UNL     1       1.668   5.896  20.961  0.00  0.00    +0.000 C 
ATOM      8  C   UNL     1       2.922   5.365  20.236  0.00  0.00    +0.000 C 
ATOM      9  C   UNL     1       3.339   5.986  18.871  0.00  0.00    +0.000 C 
ENDROOT
BRANCH   1  13
ATOM     10  C   UNL     1      -1.323  12.081  20.010  0.00  0.00    +0.000 A 
ATOM     11  C   UNL     1      -1.641  11.204  18.982  0.00  0.00    +0.000 A 
ATOM     12  C   UNL     1      -0.735  10.217  18.598  0.00  0.00    +0.000 A 
ATOM     13  C   UNL     1       0.488  10.092  19.280  0.00  0.00    +0.000 A 
ATOM     14  C   UNL     1       0.805  10.978  20.311  0.00  0.00    +0.000 A 
ATOM     15  C   UNL     1      -0.094  11.979  20.667  0.00  0.00    +0.000 A 
ENDBRANCH   1  13
BRANCH   9  16
ATOM     16  C   UNL     1       3.010   4.996  17.721  0.00  0.00    +0.000 C 
BRANCH  16  17
ATOM     17  C   UNL     1       4.232   4.545  16.895  0.00  0.00    +0.000 C 
BRANCH  17  18
ATOM     18  N   UNL     1       5.142   5.627  16.492  0.00  0.00    +0.000 NA
ATOM     19  C   UNL     1       5.627   5.412  15.103  0.00  0.00    +0.000 C 
ATOM     20  C   UNL     1       6.731   4.345  14.953  0.00  0.00    +0.000 C 
ATOM     21  O   UNL     1       7.832   4.590  15.838  0.00  0.00    +0.000 OA
ATOM     22  C   UNL     1       7.376   4.646  17.193  0.00  0.00    +0.000 C 
ATOM     23  C   UNL     1       6.329   5.757  17.370  0.00  0.00    +0.000 C 
ENDBRANCH  17  18
ENDBRANCH  16  17
ENDBRANCH   9  16
TORSDOF 4
ENDMDL
MODEL 6
REMARK VINA RESULT:      -7.0      3.693      7.529
REMARK  Name = 
REMARK  4 active torsions:
REMARK  status: ('A' for Active; 'I' for Inactive)
REMARK    1  A    between atoms: C_4  and  N_5
REMARK    2  A    between atoms: C_13  and  C_14
REMARK    3  A    between atoms: C_14  and  C_15
REMARK    4  A    between atoms: C_15  and  N_16
REMARK                            x       y       z     vdW  Elec       q    Type
REMARK                         _______ _______ _______ _____ _____    ______ ____
ROOT
ATOM      1  N   UNL     1       1.899   7.097  20.175  0.00  0.00    +0.000 N 
ATOM      2  N   UNL     1       1.787   6.024  20.995  0.00  0.00    +0.000 NA
ATOM      3  C   UNL     1       2.281   5.011  20.298  0.00  0.00    +0.000 A 
ATOM      4  C   UNL     1       2.921   5.434  19.116  0.00  0.00    +0.000 A 
ATOM      5  C   UNL     1       2.597   6.766  19.019  0.00  0.00    +0.000 A 
ATOM      6  C   UNL     1       3.004   7.693  17.940  0.00  0.00    +0.000 C 
ATOM      7  C   UNL     1       3.967   7.050  16.933  0.00  0.00    +0.000 C 
ATOM      8  C   UNL     1       4.102   5.514  16.887  0.00  0.00    +0.000 C 
ATOM      9  C   UNL     1       3.774   4.676  18.157  0.00  0.00    +0.000 C 
ENDROOT
BRANCH   1  13
ATOM     10  C   UNL     1       0.232  10.798  21.258  0.00  0.00    +0.000 A 
ATOM     11  C   UNL     1       0.444  10.493  19.921  0.00  0.00    +0.000 A 
ATOM     12  C   UNL     1       0.998   9.266  19.562  0.00  0.00    +0.000 A 
ATOM     13  C   UNL     1       1.310   8.325  20.559  0.00  0.00    +0.000 A 
ATOM     14  C   UNL     1       1.099   8.638  21.903  0.00  0.00    +0.000 A 
ATOM     15  C   UNL     1       0.573   9.877  22.252  0.00  0.00    +0.000 A 
ENDBRANCH   1  13
BRANCH   9  16
ATOM     16  C   UNL     1       5.089   4.156  18.797  0.00  0.00    +0.000 C 
BRANCH  16  17
ATOM     17  C   UNL     1       6.015   5.262  19.345  0.00  0.00    +0.000 C 
BRANCH  17  18
ATOM     18  N   UNL     1       7.414   5.177  18.900  0.00  0.00    +0.000 NA
ATOM     19  C   UNL     1       8.013   6.533  18.796  0.00  0.00    +0.000 C 
ATOM     20  C   UNL     1       7.601   7.337  17.546  0.00  0.00    +0.000 C 
ATOM     21  O   UNL     1       7.823   6.596  16.340  0.00  0.00    +0.000 OA
ATOM     22  C   UNL     1       7.117   5.352  16.385  0.00  0.00    +0.000 C 
ATOM     23  C   UNL     1       7.575   4.510  17.586  0.00  0.00    +0.000 C 
ENDBRANCH  17  18
ENDBRANCH  16  17
ENDBRANCH   9  16
TORSDOF 4
ENDMDL
MODEL 7
REMARK VINA RESULT:      -7.0      4.552      7.857
REMARK  Name = 
REMARK  4 active torsions:
REMARK  status: ('A' for Active; 'I' for Inactive)
REMARK    1  A    between atoms: C_4  and  N_5
REMARK    2  A    between atoms: C_13  and  C_14
REMARK    3  A    between atoms: C_14  and  C_15
REMARK    4  A    between atoms: C_15  and  N_16
REMARK                            x       y       z     vdW  Elec       q    Type
REMARK                         _______ _______ _______ _____ _____    ______ ____
ROOT
ATOM      1  N   UNL     1       1.496   9.051  18.865  0.00  0.00    +0.000 N 
ATOM      2  N   UNL     1       2.187   9.272  17.721  0.00  0.00    +0.000 NA
ATOM      3  C   UNL     1       3.069   8.284  17.661  0.00  0.00    +0.000 A 
ATOM      4  C   UNL     1       2.829   7.290  18.630  0.00  0.00    +0.000 A 
ATOM      5  C   UNL     1       1.863   7.839  19.440  0.00  0.00    +0.000 A 
ATOM      6  C   UNL     1       1.257   7.212  20.635  0.00  0.00    +0.000 C 
ATOM      7  C   UNL     1       1.731   5.769  20.855  0.00  0.00    +0.000 C 
ATOM      8  C   UNL     1       2.994   5.266  20.128  0.00  0.00    +0.000 C 
ATOM      9  C   UNL     1       3.430   5.936  18.793  0.00  0.00    +0.000 C 
ENDROOT
BRANCH   1  13
ATOM     10  C   UNL     1      -1.250  11.891  20.296  0.00  0.00    +0.000 A 
ATOM     11  C   UNL     1      -0.074  11.645  20.991  0.00  0.00    +0.000 A 
ATOM     12  C   UNL     1       0.836  10.701  20.517  0.00  0.00    +0.000 A 
ATOM     13  C   UNL     1       0.572  10.025  19.313  0.00  0.00    +0.000 A 
ATOM     14  C   UNL     1      -0.613  10.273  18.619  0.00  0.00    +0.000 A 
ATOM     15  C   UNL     1      -1.528  11.195  19.116  0.00  0.00    +0.000 A 
ENDBRANCH   1  13
BRANCH   9  16
ATOM     16  C   UNL     1       3.117   4.989  17.603  0.00  0.00    +0.000 C 
BRANCH  16  17
ATOM     17  C   UNL     1       4.320   4.157  17.113  0.00  0.00    +0.000 C 
BRANCH  17  18
ATOM     18  N   UNL     1       4.934   4.631  15.864  0.00  0.00    +0.000 NA
ATOM     19  C   UNL     1       6.240   3.958  15.635  0.00  0.00    +0.000 C 
ATOM     20  C   UNL     1       7.410   4.494  16.485  0.00  0.00    +0.000 C 
ATOM     21  O   UNL     1       7.549   5.916  16.363  0.00  0.00    +0.000 OA
ATOM     22  C   UNL     1       6.328   6.566  16.731  0.00  0.00    +0.000 C 
ATOM     23  C   UNL     1       5.169   6.093  15.840  0.00  0.00    +0.000 C 
ENDBRANCH  17  18
ENDBRANCH  16  17
ENDBRANCH   9  16
TORSDOF 4
ENDMDL
MODEL 8
REMARK VINA RESULT:      -6.9      3.916      7.371
REMARK  Name = 
REMARK  4 active torsions:
REMARK  status: ('A' for Active; 'I' for Inactive)
REMARK    1  A    between atoms: C_4  and  N_5
REMARK    2  A    between atoms: C_13  and  C_14
REMARK    3  A    between atoms: C_14  and  C_15
REMARK    4  A    between atoms: C_15  and  N_16
REMARK                            x       y       z     vdW  Elec       q    Type
REMARK                         _______ _______ _______ _____ _____    ______ ____
ROOT
ATOM      1  N   UNL     1       2.147   7.988  18.905  0.00  0.00    +0.000 N 
ATOM      2  N   UNL     1       2.992   8.187  17.864  0.00  0.00    +0.000 NA
ATOM      3  C   UNL     1       3.791   7.129  17.868  0.00  0.00    +0.000 A 
ATOM      4  C   UNL     1       3.351   6.127  18.756  0.00  0.00    +0.000 A 
ATOM      5  C   UNL     1       2.340   6.730  19.466  0.00  0.00    +0.000 A 
ATOM      6  C   UNL     1       1.540   6.118  20.549  0.00  0.00    +0.000 C 
ATOM      7  C   UNL     1       1.863   4.633  20.762  0.00  0.00    +0.000 C 
ATOM      8  C   UNL     1       3.162   4.047  20.172  0.00  0.00    +0.000 C 
ATOM      9  C   UNL     1       3.815   4.721  18.930  0.00  0.00    +0.000 C 
ENDROOT
BRANCH   1  13
ATOM     10  C   UNL     1      -0.437  11.131  19.950  0.00  0.00    +0.000 A 
ATOM     11  C   UNL     1      -0.260  10.787  18.617  0.00  0.00    +0.000 A 
ATOM     12  C   UNL     1       0.599   9.746  18.270  0.00  0.00    +0.000 A 
ATOM     13  C   UNL     1       1.258   9.022  19.280  0.00  0.00    +0.000 A 
ATOM     14  C   UNL     1       1.079   9.373  20.619  0.00  0.00    +0.000 A 
ATOM     15  C   UNL     1       0.243  10.434  20.952  0.00  0.00    +0.000 A 
ENDBRANCH   1  13
BRANCH   9  16
ATOM     16  C   UNL     1       3.576   3.846  17.671  0.00  0.00    +0.000 C 
BRANCH  16  17
ATOM     17  C   UNL     1       4.374   4.284  16.426  0.00  0.00    +0.000 C 
BRANCH  17  18
ATOM     18  N   UNL     1       5.732   3.727  16.331  0.00  0.00    +0.000 NA
ATOM     19  C   UNL     1       6.680   4.517  17.160  0.00  0.00    +0.000 C 
ATOM     20  C   UNL     1       7.123   5.861  16.545  0.00  0.00    +0.000 C 
ATOM     21  O   UNL     1       7.634   5.696  15.217  0.00  0.00    +0.000 OA
ATOM     22  C   UNL     1       6.654   5.068  14.384  0.00  0.00    +0.000 C 
ATOM     23  C   UNL     1       6.261   3.693  14.948  0.00  0.00    +0.000 C 
ENDBRANCH  17  18
ENDBRANCH  16  17
ENDBRANCH   9  16
TORSDOF 4
ENDMDL
MODEL 9
REMARK VINA RESULT:      -6.9      3.926      7.388
REMARK  Name = 
REMARK  4 active torsions:
REMARK  status: ('A' for Active; 'I' for Inactive)
REMARK    1  A    between atoms: C_4  and  N_5
REMARK    2  A    between atoms: C_13  and  C_14
REMARK    3  A    between atoms: C_14  and  C_15
REMARK    4  A    between atoms: C_15  and  N_16
REMARK                            x       y       z     vdW  Elec       q    Type
REMARK                         _______ _______ _______ _____ _____    ______ ____
ROOT
ATOM      1  N   UNL     1       2.138   8.026  18.865  0.00  0.00    +0.000 N 
ATOM      2  N   UNL     1       2.986   8.222  17.826  0.00  0.00    +0.000 NA
ATOM      3  C   UNL     1       3.780   7.160  17.831  0.00  0.00    +0.000 A 
ATOM      4  C   UNL     1       3.334   6.160  18.717  0.00  0.00    +0.000 A 
ATOM      5  C   UNL     1       2.324   6.767  19.425  0.00  0.00    +0.000 A 
ATOM      6  C   UNL     1       1.520   6.158  20.507  0.00  0.00    +0.000 C 
ATOM      7  C   UNL     1       1.836   4.671  20.720  0.00  0.00    +0.000 C 
ATOM      8  C   UNL     1       3.133   4.080  20.132  0.00  0.00    +0.000 C 
ATOM      9  C   UNL     1       3.791   4.752  18.892  0.00  0.00    +0.000 C 
ENDROOT
BRANCH   1  13
ATOM     10  C   UNL     1      -0.553  11.033  20.032  0.00  0.00    +0.000 A 
ATOM     11  C   UNL     1       0.061  10.236  20.989  0.00  0.00    +0.000 A 
ATOM     12  C   UNL     1       0.952   9.237  20.601  0.00  0.00    +0.000 A 
ATOM     13  C   UNL     1       1.253   9.064  19.238  0.00  0.00    +0.000 A 
ATOM     14  C   UNL     1       0.631   9.866  18.280  0.00  0.00    +0.000 A 
ATOM     15  C   UNL     1      -0.280  10.840  18.675  0.00  0.00    +0.000 A 
ENDBRANCH   1  13
BRANCH   9  16
ATOM     16  C   UNL     1       3.551   3.878  17.632  0.00  0.00    +0.000 C 
BRANCH  16  17
ATOM     17  C   UNL     1       4.376   4.295  16.397  0.00  0.00    +0.000 C 
BRANCH  17  18
ATOM     18  N   UNL     1       5.736   3.739  16.341  0.00  0.00    +0.000 NA
ATOM     19  C   UNL     1       6.667   4.548  17.171  0.00  0.00    +0.000 C 
ATOM     20  C   UNL     1       7.120   5.879  16.536  0.00  0.00    +0.000 C 
ATOM     21  O   UNL     1       7.657   5.686  15.221  0.00  0.00    +0.000 OA
ATOM     22  C   UNL     1       6.694   5.038  14.383  0.00  0.00    +0.000 C 
ATOM     23  C   UNL     1       6.292   3.675  14.970  0.00  0.00    +0.000 C 
ENDBRANCH  17  18
ENDBRANCH  16  17
ENDBRANCH   9  16
TORSDOF 4
ENDMDL
