MODEL 1
REMARK VINA RESULT:      -7.5      0.000      0.000
REMARK  Name = 
REMARK  3 active torsions:
REMARK  status: ('A' for Active; 'I' for Inactive)
REMARK    1  A    between atoms: N_1  and  C_2
REMARK    2  A    between atoms: C_7  and  N_8
REMARK    3  A    between atoms: C_9  and  C_11
REMARK                            x       y       z     vdW  Elec       q    Type
REMARK                         _______ _______ _______ _____ _____    ______ ____
ROOT
ATOM      1  N   UNL     1       4.051   3.435  17.844  0.00  0.00    +0.000 N 
ATOM      2  C   UNL     1       4.903   4.503  17.608  0.00  0.00    +0.000 C 
ATOM      3  O   UNL     1       5.108   5.442  18.374  0.00  0.00    +0.000 OA
ATOM      4  H   UNL     1       4.163   2.601  17.287  0.00  0.00    +0.000 HD
ENDROOT
BRANCH   1  10
ATOM      5  C   UNL     1       3.586   2.577  20.104  0.00  0.00    +0.000 A 
ATOM      6  C   UNL     1       2.756   2.573  21.241  0.00  0.00    +0.000 A 
ATOM      7  C   UNL     1       1.506   3.200  21.237  0.00  0.00    +0.000 A 
ATOM      8  C   UNL     1       1.082   3.867  20.100  0.00  0.00    +0.000 A 
ATOM      9  C   UNL     1       1.911   3.921  18.980  0.00  0.00    +0.000 A 
ATOM     10  C   UNL     1       3.183   3.321  18.972  0.00  0.00    +0.000 A 
BRANCH   5  11
ATOM     11  N   UNL     1       4.883   2.038  20.243  0.00  0.00    +0.000 N 
ATOM     12  H   UNL     1       4.969   1.424  21.048  0.00  0.00    +0.000 HD
ATOM     13  H   UNL     1       5.257   1.605  19.411  0.00  0.00    +0.000 HD
ENDBRANCH   5  11
ENDBRANCH   1  10
BRANCH   2  14
ATOM     14  C   UNL     1       5.676   4.520  16.343  0.00  0.00    +0.000 A 
ATOM     15  C   UNL     1       5.267   3.926  15.148  0.00  0.00    +0.000 A 
ATOM     16  C   UNL     1       6.034   4.124  13.995  0.00  0.00    +0.000 A 
ATOM     17  C   UNL     1       7.183   4.899  14.079  0.00  0.00    +0.000 A 
ATOM     18  N   UNL     1       7.610   5.478  15.217  0.00  0.00    +0.000 NA
ATOM     19  C   UNL     1       6.842   5.284  16.317  0.00  0.00    +0.000 A 
ENDBRANCH   2  14
TORSDOF 3
ENDMDL
MODEL 2
REMARK VINA RESULT:      -7.3      1.072      1.112
REMARK  Name = 
REMARK  3 active torsions:
REMARK  status: ('A' for Active; 'I' for Inactive)
REMARK    1  A    between atoms: N_1  and  C_2
REMARK    2  A    between atoms: C_7  and  N_8
REMARK    3  A    between atoms: C_9  and  C_11
REMARK                            x       y       z     vdW  Elec       q    Type
REMARK                         _______ _______ _______ _____ _____    ______ ____
ROOT
ATOM      1  N   UNL     1       3.768   3.961  17.594  0.00  0.00    +0.000 N 
ATOM      2  C   UNL     1       5.140   4.146  17.663  0.00  0.00    +0.000 C 
ATOM      3  O   UNL     1       5.816   4.135  18.690  0.00  0.00    +0.000 OA
ATOM      4  H   UNL     1       3.361   3.718  16.703  0.00  0.00    +0.000 HD
ENDROOT
BRANCH   1  10
ATOM      5  C   UNL     1       2.395   2.586  19.106  0.00  0.00    +0.000 A 
ATOM      6  C   UNL     1       1.635   2.491  20.287  0.00  0.00    +0.000 A 
ATOM      7  C   UNL     1       1.292   3.625  21.030  0.00  0.00    +0.000 A 
ATOM      8  C   UNL     1       1.733   4.871  20.614  0.00  0.00    +0.000 A 
ATOM      9  C   UNL     1       2.525   4.979  19.472  0.00  0.00    +0.000 A 
ATOM     10  C   UNL     1       2.904   3.848  18.726  0.00  0.00    +0.000 A 
BRANCH   5  11
ATOM     11  N   UNL     1       2.808   1.381  18.498  0.00  0.00    +0.000 N 
ATOM     12  H   UNL     1       2.553   0.560  19.041  0.00  0.00    +0.000 HD
ATOM     13  H   UNL     1       2.538   1.276  17.530  0.00  0.00    +0.000 HD
ENDBRANCH   5  11
ENDBRANCH   1  10
BRANCH   2  14
ATOM     14  C   UNL     1       5.888   4.336  16.398  0.00  0.00    +0.000 A 
ATOM     15  C   UNL     1       5.588   3.706  15.189  0.00  0.00    +0.000 A 
ATOM     16  C   UNL     1       6.297   4.072  14.039  0.00  0.00    +0.000 A 
ATOM     17  C   UNL     1       7.284   5.044  14.141  0.00  0.00    +0.000 A 
ATOM     18  N   UNL     1       7.604   5.664  15.292  0.00  0.00    +0.000 NA
ATOM     19  C   UNL     1       6.892   5.305  16.388  0.00  0.00    +0.000 A 
ENDBRANCH   2  14
TORSDOF 3
ENDMDL
MODEL 3
REMARK VINA RESULT:      -7.1      0.760      1.728
REMARK  Name = 
REMARK  3 active torsions:
REMARK  status: ('A' for Active; 'I' for Inactive)
REMARK    1  A    between atoms: N_1  and  C_2
REMARK    2  A    between atoms: C_7  and  N_8
REMARK    3  A    between atoms: C_9  and  C_11
REMARK                            x       y       z     vdW  Elec       q    Type
REMARK                         _______ _______ _______ _____ _____    ______ ____
ROOT
ATOM      1  N   UNL     1       4.055   3.456  18.042  0.00  0.00    +0.000 N 
ATOM      2  C   UNL     1       4.785   4.595  17.738  0.00  0.00    +0.000 C 
ATOM      3  O   UNL     1       4.838   5.618  18.417  0.00  0.00    +0.000 OA
ATOM      4  H   UNL     1       4.294   2.595  17.574  0.00  0.00    +0.000 HD
ENDROOT
BRANCH   1  10
ATOM      5  C   UNL     1       1.818   3.799  19.011  0.00  0.00    +0.000 A 
ATOM      6  C   UNL     1       0.920   3.573  20.070  0.00  0.00    +0.000 A 
ATOM      7  C   UNL     1       1.338   3.000  21.276  0.00  0.00    +0.000 A 
ATOM      8  C   UNL     1       2.661   2.618  21.425  0.00  0.00    +0.000 A 
ATOM      9  C   UNL     1       3.555   2.792  20.369  0.00  0.00    +0.000 A 
ATOM     10  C   UNL     1       3.148   3.340  19.140  0.00  0.00    +0.000 A 
BRANCH   5  11
ATOM     11  N   UNL     1       1.281   4.253  17.787  0.00  0.00    +0.000 N 
ATOM     12  H   UNL     1       1.861   4.009  16.989  0.00  0.00    +0.000 HD
ATOM     13  H   UNL     1       0.315   4.006  17.626  0.00  0.00    +0.000 HD
ENDBRANCH   5  11
ENDBRANCH   1  10
BRANCH   2  14
ATOM     14  C   UNL     1       5.617   4.590  16.511  0.00  0.00    +0.000 A 
ATOM     15  C   UNL     1       5.299   3.911  15.333  0.00  0.00    +0.000 A 
ATOM     16  C   UNL     1       6.108   4.093  14.206  0.00  0.00    +0.000 A 
ATOM     17  C   UNL     1       7.207   4.937  14.299  0.00  0.00    +0.000 A 
ATOM     18  N   UNL     1       7.546   5.600  15.421  0.00  0.00    +0.000 NA
ATOM     19  C   UNL     1       6.737   5.419  16.495  0.00  0.00    +0.000 A 
ENDBRANCH   2  14
TORSDOF 3
ENDMDL
MODEL 4
REMARK VINA RESULT:      -7.0      1.126      1.796
REMARK  Name = 
REMARK  3 active torsions:
REMARK  status: ('A' for Active; 'I' for Inactive)
REMARK    1  A    between atoms: N_1  and  C_2
REMARK    2  A    between atoms: C_7  and  N_8
REMARK    3  A    between atoms: C_9  and  C_11
REMARK                            x       y       z     vdW  Elec       q    Type
REMARK                         _______ _______ _______ _____ _____    ______ ____
ROOT
ATOM      1  N   UNL     1       4.182   3.869  18.037  0.00  0.00    +0.000 N 
ATOM      2  C   UNL     1       5.516   4.221  17.897  0.00  0.00    +0.000 C 
ATOM      3  O   UNL     1       6.309   4.413  18.817  0.00  0.00    +0.000 OA
ATOM      4  H   UNL     1       3.704   3.475  17.240  0.00  0.00    +0.000 HD
ENDROOT
BRANCH   1  10
ATOM      5  C   UNL     1       2.762   4.910  19.758  0.00  0.00    +0.000 A 
ATOM      6  C   UNL     1       2.000   4.770  20.932  0.00  0.00    +0.000 A 
ATOM      7  C   UNL     1       2.025   3.592  21.686  0.00  0.00    +0.000 A 
ATOM      8  C   UNL     1       2.794   2.524  21.255  0.00  0.00    +0.000 A 
ATOM      9  C   UNL     1       3.519   2.629  20.069  0.00  0.00    +0.000 A 
ATOM     10  C   UNL     1       3.487   3.794  19.282  0.00  0.00    +0.000 A 
BRANCH   5  11
ATOM     11  N   UNL     1       2.569   6.080  18.992  0.00  0.00    +0.000 N 
ATOM     12  H   UNL     1       3.408   6.365  18.494  0.00  0.00    +0.000 HD
ATOM     13  H   UNL     1       1.768   6.060  18.376  0.00  0.00    +0.000 HD
ENDBRANCH   5  11
ENDBRANCH   1  10
BRANCH   2  14
ATOM     14  C   UNL     1       6.071   4.343  16.528  0.00  0.00    +0.000 A 
ATOM     15  C   UNL     1       5.578   3.679  15.403  0.00  0.00    +0.000 A 
ATOM     16  C   UNL     1       6.116   3.982  14.148  0.00  0.00    +0.000 A 
ATOM     17  C   UNL     1       7.129   4.928  14.063  0.00  0.00    +0.000 A 
ATOM     18  N   UNL     1       7.632   5.580  15.127  0.00  0.00    +0.000 NA
ATOM     19  C   UNL     1       7.084   5.281  16.331  0.00  0.00    +0.000 A 
ENDBRANCH   2  14
TORSDOF 3
ENDMDL
MODEL 5
REMARK VINA RESULT:      -7.0      1.100      1.100
REMARK  Name = 
REMARK  3 active torsions:
REMARK  status: ('A' for Active; 'I' for Inactive)
REMARK    1  A    between atoms: N_1  and  C_2
REMARK    2  A    between atoms: C_7  and  N_8
REMARK    3  A    between atoms: C_9  and  C_11
REMARK                            x       y       z     vdW  Elec       q    Type
REMARK                         _______ _______ _______ _____ _____    ______ ____
ROOT
ATOM      1  N   UNL     1       4.593   4.268  18.401  0.00  0.00    +0.000 N 
ATOM      2  C   UNL     1       4.335   3.987  17.067  0.00  0.00    +0.000 C 
ATOM      3  O   UNL     1       3.280   3.549  16.615  0.00  0.00    +0.000 OA
ATOM      4  H   UNL     1       5.372   4.868  18.622  0.00  0.00    +0.000 HD
ENDROOT
BRANCH   1  10
ATOM      5  C   UNL     1       3.814   2.749  20.176  0.00  0.00    +0.000 A 
ATOM      6  C   UNL     1       2.997   2.535  21.301  0.00  0.00    +0.000 A 
ATOM      7  C   UNL     1       2.017   3.457  21.680  0.00  0.00    +0.000 A 
ATOM      8  C   UNL     1       1.862   4.625  20.952  0.00  0.00    +0.000 A 
ATOM      9  C   UNL     1       2.694   4.875  19.861  0.00  0.00    +0.000 A 
ATOM     10  C   UNL     1       3.704   3.974  19.479  0.00  0.00    +0.000 A 
BRANCH   5  11
ATOM     11  N   UNL     1       4.864   1.833  19.949  0.00  0.00    +0.000 N 
ATOM     12  H   UNL     1       5.458   2.102  19.169  0.00  0.00    +0.000 HD
ATOM     13  H   UNL     1       5.415   1.604  20.765  0.00  0.00    +0.000 HD
ENDBRANCH   5  11
ENDBRANCH   1  10
BRANCH   2  14
ATOM     14  C   UNL     1       5.398   4.270  16.072  0.00  0.00    +0.000 A 
ATOM     15  C   UNL     1       5.410   3.794  14.760  0.00  0.00    +0.000 A 
ATOM     16  C   UNL     1       6.408   4.240  13.887  0.00  0.00    +0.000 A 
ATOM     17  C   UNL     1       7.361   5.134  14.358  0.00  0.00    +0.000 A 
ATOM     18  N   UNL     1       7.383   5.604  15.619  0.00  0.00    +0.000 NA
ATOM     19  C   UNL     1       6.396   5.171  16.441  0.00  0.00    +0.000 A 
ENDBRANCH   2  14
TORSDOF 3
ENDMDL
MODEL 6
REMARK VINA RESULT:      -6.8      1.587      6.169
REMARK  Name = 
REMARK  3 active torsions:
REMARK  status: ('A' for Active; 'I' for Inactive)
REMARK    1  A    between atoms: N_1  and  C_2
REMARK    2  A    between atoms: C_7  and  N_8
REMARK    3  A    between atoms: C_9  and  C_11
REMARK                            x       y       z     vdW  Elec       q    Type
REMARK                         _______ _______ _______ _____ _____    ______ ____
ROOT
ATOM      1  N   UNL     1       4.477   4.263  18.010  0.00  0.00    +0.000 N 
ATOM      2  C   UNL     1       3.810   3.087  18.320  0.00  0.00    +0.000 C 
ATOM      3  O   UNL     1       3.923   2.018  17.726  0.00  0.00    +0.000 OA
ATOM      4  H   UNL     1       4.522   4.987  18.710  0.00  0.00    +0.000 HD
ENDROOT
BRANCH   1  10
ATOM      5  C   UNL     1       6.712   4.583  17.029  0.00  0.00    +0.000 A 
ATOM      6  C   UNL     1       7.521   4.652  15.880  0.00  0.00    +0.000 A 
ATOM      7  C   UNL     1       6.968   4.689  14.596  0.00  0.00    +0.000 A 
ATOM      8  C   UNL     1       5.593   4.627  14.445  0.00  0.00    +0.000 A 
ATOM      9  C   UNL     1       4.778   4.511  15.570  0.00  0.00    +0.000 A 
ATOM     10  C   UNL     1       5.315   4.445  16.868  0.00  0.00    +0.000 A 
BRANCH   5  11
ATOM     11  N   UNL     1       7.359   4.413  18.272  0.00  0.00    +0.000 N 
ATOM     12  H   UNL     1       6.732   4.078  18.998  0.00  0.00    +0.000 HD
ATOM     13  H   UNL     1       8.207   3.865  18.240  0.00  0.00    +0.000 HD
ENDBRANCH   5  11
ENDBRANCH   1  10
BRANCH   2  14
ATOM     14  C   UNL     1       2.903   3.083  19.493  0.00  0.00    +0.000 A 
ATOM     15  C   UNL     1       1.537   3.371  19.449  0.00  0.00    +0.000 A 
ATOM     16  C   UNL     1       0.772   3.206  20.609  0.00  0.00    +0.000 A 
ATOM     17  C   UNL     1       1.398   2.771  21.769  0.00  0.00    +0.000 A 
ATOM     18  N   UNL     1       2.713   2.493  21.848  0.00  0.00    +0.000 NA
ATOM     19  C   UNL     1       3.430   2.644  20.707  0.00  0.00    +0.000 A 
ENDBRANCH   2  14
TORSDOF 3
ENDMDL
MODEL 7
REMARK VINA RESULT:      -6.8      1.233      1.495
REMARK  Name = 
REMARK  3 active torsions:
REMARK  status: ('A' for Active; 'I' for Inactive)
REMARK    1  A    between atoms: N_1  and  C_2
REMARK    2  A    between atoms: C_7  and  N_8
REMARK    3  A    between atoms: C_9  and  C_11
REMARK                            x       y       z     vdW  Elec       q    Type
REMARK                         _______ _______ _______ _____ _____    ______ ____
ROOT
ATOM      1  N   UNL     1       4.461   3.529  16.604  0.00  0.00    +0.000 N 
ATOM      2  C   UNL     1       5.016   4.683  16.074  0.00  0.00    +0.000 C 
ATOM      3  O   UNL     1       4.889   5.817  16.530  0.00  0.00    +0.000 OA
ATOM      4  H   UNL     1       4.843   2.639  16.322  0.00  0.00    +0.000 HD
ENDROOT
BRANCH   1  10
ATOM      5  C   UNL     1       4.027   3.289  19.016  0.00  0.00    +0.000 A 
ATOM      6  C   UNL     1       3.119   3.369  20.088  0.00  0.00    +0.000 A 
ATOM      7  C   UNL     1       1.748   3.547  19.874  0.00  0.00    +0.000 A 
ATOM      8  C   UNL     1       1.272   3.676  18.580  0.00  0.00    +0.000 A 
ATOM      9  C   UNL     1       2.164   3.646  17.508  0.00  0.00    +0.000 A 
ATOM     10  C   UNL     1       3.548   3.495  17.703  0.00  0.00    +0.000 A 
BRANCH   5  11
ATOM     11  N   UNL     1       5.403   3.247  19.330  0.00  0.00    +0.000 N 
ATOM     12  H   UNL     1       5.715   4.069  19.839  0.00  0.00    +0.000 HD
ATOM     13  H   UNL     1       5.712   2.398  19.783  0.00  0.00    +0.000 HD
ENDBRANCH   5  11
ENDBRANCH   1  10
BRANCH   2  14
ATOM     14  C   UNL     1       5.877   4.561  14.873  0.00  0.00    +0.000 A 
ATOM     15  C   UNL     1       5.589   3.768  13.761  0.00  0.00    +0.000 A 
ATOM     16  C   UNL     1       6.425   3.843  12.641  0.00  0.00    +0.000 A 
ATOM     17  C   UNL     1       7.519   4.697  12.677  0.00  0.00    +0.000 A 
ATOM     18  N   UNL     1       7.829   5.469  13.735  0.00  0.00    +0.000 NA
ATOM     19  C   UNL     1       6.995   5.391  14.802  0.00  0.00    +0.000 A 
ENDBRANCH   2  14
TORSDOF 3
ENDMDL
MODEL 8
REMARK VINA RESULT:      -6.8      0.835      1.252
REMARK  Name = 
REMARK  3 active torsions:
REMARK  status: ('A' for Active; 'I' for Inactive)
REMARK    1  A    between atoms: N_1  and  C_2
REMARK    2  A    between atoms: C_7  and  N_8
REMARK    3  A    between atoms: C_9  and  C_11
REMARK                            x       y       z     vdW  Elec       q    Type
REMARK                         _______ _______ _______ _____ _____    ______ ____
ROOT
ATOM      1  N   UNL     1       3.878   3.612  18.062  0.00  0.00    +0.000 N 
ATOM      2  C   UNL     1       5.028   4.387  18.026  0.00  0.00    +0.000 C 
ATOM      3  O   UNL     1       5.579   4.901  18.996  0.00  0.00    +0.000 OA
ATOM      4  H   UNL     1       3.671   3.025  17.269  0.00  0.00    +0.000 HD
ENDROOT
BRANCH   1  10
ATOM      5  C   UNL     1       3.556   2.548  20.259  0.00  0.00    +0.000 A 
ATOM      6  C   UNL     1       2.801   2.436  21.440  0.00  0.00    +0.000 A 
ATOM      7  C   UNL     1       1.553   3.054  21.573  0.00  0.00    +0.000 A 
ATOM      8  C   UNL     1       1.059   3.821  20.531  0.00  0.00    +0.000 A 
ATOM      9  C   UNL     1       1.815   3.981  19.371  0.00  0.00    +0.000 A 
ATOM     10  C   UNL     1       3.083   3.391  19.228  0.00  0.00    +0.000 A 
BRANCH   5  11
ATOM     11  N   UNL     1       4.860   2.006  20.265  0.00  0.00    +0.000 N 
ATOM     12  H   UNL     1       4.956   1.208  19.642  0.00  0.00    +0.000 HD
ATOM     13  H   UNL     1       5.602   2.675  20.119  0.00  0.00    +0.000 HD
ENDBRANCH   5  11
ENDBRANCH   1  10
BRANCH   2  14
ATOM     14  C   UNL     1       5.693   4.596  16.718  0.00  0.00    +0.000 A 
ATOM     15  C   UNL     1       7.021   4.994  16.551  0.00  0.00    +0.000 A 
ATOM     16  C   UNL     1       7.560   5.032  15.260  0.00  0.00    +0.000 A 
ATOM     17  C   UNL     1       6.753   4.681  14.186  0.00  0.00    +0.000 A 
ATOM     18  N   UNL     1       5.468   4.302  14.311  0.00  0.00    +0.000 NA
ATOM     19  C   UNL     1       4.973   4.257  15.573  0.00  0.00    +0.000 A 
ENDBRANCH   2  14
TORSDOF 3
ENDMDL
MODEL 9
REMARK VINA RESULT:      -6.7      1.283      6.081
REMARK  Name = 
REMARK  3 active torsions:
REMARK  status: ('A' for Active; 'I' for Inactive)
REMARK    1  A    between atoms: N_1  and  C_2
REMARK    2  A    between atoms: C_7  and  N_8
REMARK    3  A    between atoms: C_9  and  C_11
REMARK                            x       y       z     vdW  Elec       q    Type
REMARK                         _______ _______ _______ _____ _____    ______ ____
ROOT
ATOM      1  N   UNL     1       4.587   3.622  17.732  0.00  0.00    +0.000 N 
ATOM      2  C   UNL     1       3.554   4.367  18.280  0.00  0.00    +0.000 C 
ATOM      3  O   UNL     1       3.135   5.440  17.852  0.00  0.00    +0.000 OA
ATOM      4  H   UNL     1       4.666   2.650  17.989  0.00  0.00    +0.000 HD
ENDROOT
BRANCH   1  10
ATOM      5  C   UNL     1       6.728   4.502  16.892  0.00  0.00    +0.000 A 
ATOM      6  C   UNL     1       7.551   4.814  15.794  0.00  0.00    +0.000 A 
ATOM      7  C   UNL     1       7.065   4.784  14.483  0.00  0.00    +0.000 A 
ATOM      8  C   UNL     1       5.751   4.411  14.252  0.00  0.00    +0.000 A 
ATOM      9  C   UNL     1       4.935   4.053  15.324  0.00  0.00    +0.000 A 
ATOM     10  C   UNL     1       5.411   4.050  16.647  0.00  0.00    +0.000 A 
BRANCH   5  11
ATOM     11  N   UNL     1       7.338   4.426  18.163  0.00  0.00    +0.000 N 
ATOM     12  H   UNL     1       6.796   4.890  18.886  0.00  0.00    +0.000 HD
ATOM     13  H   UNL     1       7.612   3.497  18.450  0.00  0.00    +0.000 HD
ENDBRANCH   5  11
ENDBRANCH   1  10
BRANCH   2  14
ATOM     14  C   UNL     1       2.848   3.823  19.465  0.00  0.00    +0.000 A 
ATOM     15  C   UNL     1       1.469   3.886  19.673  0.00  0.00    +0.000 A 
ATOM     16  C   UNL     1       0.918   3.222  20.774  0.00  0.00    +0.000 A 
ATOM     17  C   UNL     1       1.763   2.529  21.631  0.00  0.00    +0.000 A 
ATOM     18  N   UNL     1       3.097   2.456  21.465  0.00  0.00    +0.000 NA
ATOM     19  C   UNL     1       3.605   3.094  20.381  0.00  0.00    +0.000 A 
ENDBRANCH   2  14
TORSDOF 3
ENDMDL
