MODEL 1
REMARK VINA RESULT:      -8.0      0.000      0.000
REMARK  Name = 
REMARK  8 active torsions:
REMARK  status: ('A' for Active; 'I' for Inactive)
REMARK    1  A    between atoms: C_1  and  C_2
REMARK    2  A    between atoms: C_5  and  N_6
REMARK    3  A    between atoms: C_8  and  C_9
REMARK    4  A    between atoms: N_11  and  C_12
REMARK    5  A    between atoms: C_15  and  N_16
REMARK    6  A    between atoms: N_16  and  C_17
REMARK    7  A    between atoms: N_16  and  C_18
REMARK    8  A    between atoms: C_25  and  C_26
REMARK                            x       y       z     vdW  Elec       q    Type
REMARK                         _______ _______ _______ _____ _____    ______ ____
ROOT
ATOM      1  N   UNL     1       4.334   4.431  17.718  0.00  0.00    +0.000 N 
ATOM      2  C   UNL     1       3.833   5.575  18.431  0.00  0.00    +0.000 C 
ATOM      3  C   UNL     1       3.264   5.010  19.726  0.00  0.00    +0.000 C 
ATOM      4  C   UNL     1       2.787   3.630  19.310  0.00  0.00    +0.000 C 
ATOM      5  C   UNL     1       3.720   3.258  18.175  0.00  0.00    +0.000 C 
ATOM      6  O   UNL     1       3.828   2.117  17.763  0.00  0.00    +0.000 OA
ENDROOT
BRANCH   1  11
ATOM      7  C   UNL     1       7.898   5.047  13.230  0.00  0.00    +0.000 C 
ATOM      8  C   UNL     1       6.958   4.851  14.385  0.00  0.00    +0.000 A 
ATOM      9  C   UNL     1       7.309   5.352  15.644  0.00  0.00    +0.000 A 
ATOM     10  C   UNL     1       6.451   5.206  16.742  0.00  0.00    +0.000 A 
ATOM     11  C   UNL     1       5.224   4.557  16.618  0.00  0.00    +0.000 A 
ATOM     12  C   UNL     1       4.881   4.047  15.351  0.00  0.00    +0.000 A 
ATOM     13  C   UNL     1       5.727   4.191  14.233  0.00  0.00    +0.000 A 
ATOM     14  C   UNL     1       5.288   3.649  12.900  0.00  0.00    +0.000 C 
ENDBRANCH   1  11
BRANCH   3  15
ATOM     15  C   UNL     1       2.185   5.935  20.241  0.00  0.00    +0.000 C 
ATOM     16  O   UNL     1       1.178   5.462  20.766  0.00  0.00    +0.000 OA
ATOM     17  N   UNL     1       2.393   7.284  20.005  0.00  0.00    +0.000 N 
ATOM     18  H   UNL     1       3.122   7.549  19.353  0.00  0.00    +0.000 HD
BRANCH  17  19
ATOM     19  C   UNL     1       1.532   8.318  20.454  0.00  0.00    +0.000 A 
ATOM     20  C   UNL     1       1.156   8.457  21.785  0.00  0.00    +0.000 A 
ATOM     21  C   UNL     1       0.289   9.478  22.193  0.00  0.00    +0.000 A 
ATOM     22  C   UNL     1      -0.227  10.431  21.307  0.00  0.00    +0.000 A 
ATOM     23  C   UNL     1       0.167  10.277  19.966  0.00  0.00    +0.000 A 
ATOM     24  C   UNL     1       1.038   9.248  19.541  0.00  0.00    +0.000 A 
BRANCH  22  25
ATOM     25  N   UNL     1      -1.106  11.412  21.745  0.00  0.00    +0.000 N 
ATOM     26  C   UNL     1      -1.865  12.226  20.789  0.00  0.00    +0.000 C 
ATOM     27  C   UNL     1      -1.647  11.438  23.100  0.00  0.00    +0.000 C 
ENDBRANCH  22  25
ENDBRANCH  17  19
ENDBRANCH   3  15
TORSDOF 4
ENDMDL
MODEL 2
REMARK VINA RESULT:      -7.9      5.437      7.781
REMARK  Name = 
REMARK  8 active torsions:
REMARK  status: ('A' for Active; 'I' for Inactive)
REMARK    1  A    between atoms: C_1  and  C_2
REMARK    2  A    between atoms: C_5  and  N_6
REMARK    3  A    between atoms: C_8  and  C_9
REMARK    4  A    between atoms: N_11  and  C_12
REMARK    5  A    between atoms: C_15  and  N_16
REMARK    6  A    between atoms: N_16  and  C_17
REMARK    7  A    between atoms: N_16  and  C_18
REMARK    8  A    between atoms: C_25  and  C_26
REMARK                            x       y       z     vdW  Elec       q    Type
REMARK                         _______ _______ _______ _____ _____    ______ ____
ROOT
ATOM      1  N   UNL     1       5.322   5.229  17.433  0.00  0.00    +0.000 N 
ATOM      2  C   UNL     1       5.755   6.445  18.067  0.00  0.00    +0.000 C 
ATOM      3  C   UNL     1       6.786   7.037  17.115  0.00  0.00    +0.000 C 
ATOM      4  C   UNL     1       7.402   5.805  16.477  0.00  0.00    +0.000 C 
ATOM      5  C   UNL     1       6.278   4.788  16.510  0.00  0.00    +0.000 C 
ATOM      6  O   UNL     1       6.300   3.767  15.845  0.00  0.00    +0.000 OA
ENDROOT
BRANCH   1  11
ATOM      7  C   UNL     1       0.474   2.539  19.004  0.00  0.00    +0.000 C 
ATOM      8  C   UNL     1       1.748   3.241  18.633  0.00  0.00    +0.000 A 
ATOM      9  C   UNL     1       2.377   2.922  17.425  0.00  0.00    +0.000 A 
ATOM     10  C   UNL     1       3.557   3.569  17.034  0.00  0.00    +0.000 A 
ATOM     11  C   UNL     1       4.143   4.546  17.835  0.00  0.00    +0.000 A 
ATOM     12  C   UNL     1       3.511   4.857  19.054  0.00  0.00    +0.000 A 
ATOM     13  C   UNL     1       2.319   4.223  19.460  0.00  0.00    +0.000 A 
ATOM     14  C   UNL     1       1.678   4.621  20.761  0.00  0.00    +0.000 C 
ENDBRANCH   1  11
BRANCH   3  15
ATOM     15  C   UNL     1       7.745   7.905  17.896  0.00  0.00    +0.000 C 
ATOM     16  O   UNL     1       8.483   7.394  18.737  0.00  0.00    +0.000 OA
ATOM     17  N   UNL     1       7.660   9.265  17.644  0.00  0.00    +0.000 N 
ATOM     18  H   UNL     1       6.859   9.606  17.125  0.00  0.00    +0.000 HD
BRANCH  17  19
ATOM     19  C   UNL     1       8.505  10.243  18.228  0.00  0.00    +0.000 A 
ATOM     20  C   UNL     1       9.294   9.984  19.343  0.00  0.00    +0.000 A 
ATOM     21  C   UNL     1      10.104  10.977  19.908  0.00  0.00    +0.000 A 
ATOM     22  C   UNL     1      10.195  12.270  19.378  0.00  0.00    +0.000 A 
ATOM     23  C   UNL     1       9.393  12.512  18.249  0.00  0.00    +0.000 A 
ATOM     24  C   UNL     1       8.568  11.519  17.673  0.00  0.00    +0.000 A 
BRANCH  22  25
ATOM     25  N   UNL     1      10.988  13.235  19.983  0.00  0.00    +0.000 N 
ATOM     26  C   UNL     1      12.333  13.530  19.479  0.00  0.00    +0.000 C 
ATOM     27  C   UNL     1      10.441  14.278  20.845  0.00  0.00    +0.000 C 
ENDBRANCH  22  25
ENDBRANCH  17  19
ENDBRANCH   3  15
TORSDOF 4
ENDMDL
MODEL 3
REMARK VINA RESULT:      -7.5      6.087      7.949
REMARK  Name = 
REMARK  8 active torsions:
REMARK  status: ('A' for Active; 'I' for Inactive)
REMARK    1  A    between atoms: C_1  and  C_2
REMARK    2  A    between atoms: C_5  and  N_6
REMARK    3  A    between atoms: C_8  and  C_9
REMARK    4  A    between atoms: N_11  and  C_12
REMARK    5  A    between atoms: C_15  and  N_16
REMARK    6  A    between atoms: N_16  and  C_17
REMARK    7  A    between atoms: N_16  and  C_18
REMARK    8  A    between atoms: C_25  and  C_26
REMARK                            x       y       z     vdW  Elec       q    Type
REMARK                         _______ _______ _______ _____ _____    ______ ____
ROOT
ATOM      1  N   UNL     1       5.972   6.038  18.161  0.00  0.00    +0.000 N 
ATOM      2  C   UNL     1       6.070   7.452  17.917  0.00  0.00    +0.000 C 
ATOM      3  C   UNL     1       7.531   7.684  17.553  0.00  0.00    +0.000 C 
ATOM      4  C   UNL     1       8.252   6.615  18.355  0.00  0.00    +0.000 C 
ATOM      5  C   UNL     1       7.230   5.501  18.461  0.00  0.00    +0.000 C 
ATOM      6  O   UNL     1       7.529   4.369  18.797  0.00  0.00    +0.000 OA
ENDROOT
BRANCH   1  11
ATOM      7  C   UNL     1       0.849   3.400  18.315  0.00  0.00    +0.000 C 
ATOM      8  C   UNL     1       2.187   4.084  18.314  0.00  0.00    +0.000 A 
ATOM      9  C   UNL     1       3.051   3.892  17.231  0.00  0.00    +0.000 A 
ATOM     10  C   UNL     1       4.299   4.527  17.184  0.00  0.00    +0.000 A 
ATOM     11  C   UNL     1       4.721   5.365  18.213  0.00  0.00    +0.000 A 
ATOM     12  C   UNL     1       3.851   5.547  19.306  0.00  0.00    +0.000 A 
ATOM     13  C   UNL     1       2.589   4.923  19.367  0.00  0.00    +0.000 A 
ATOM     14  C   UNL     1       1.694   5.181  20.548  0.00  0.00    +0.000 C 
ENDBRANCH   1  11
BRANCH   3  15
ATOM     15  C   UNL     1       7.908   9.107  17.894  0.00  0.00    +0.000 C 
ATOM     16  O   UNL     1       7.298  10.041  17.375  0.00  0.00    +0.000 OA
ATOM     17  N   UNL     1       9.000   9.250  18.735  0.00  0.00    +0.000 N 
ATOM     18  H   UNL     1       9.581   8.438  18.905  0.00  0.00    +0.000 HD
BRANCH  17  19
ATOM     19  C   UNL     1       9.482  10.492  19.219  0.00  0.00    +0.000 A 
ATOM     20  C   UNL     1       9.306  10.905  20.535  0.00  0.00    +0.000 A 
ATOM     21  C   UNL     1       9.777  12.147  20.977  0.00  0.00    +0.000 A 
ATOM     22  C   UNL     1      10.474  13.032  20.145  0.00  0.00    +0.000 A 
ATOM     23  C   UNL     1      10.646  12.596  18.820  0.00  0.00    +0.000 A 
ATOM     24  C   UNL     1      10.170  11.347  18.360  0.00  0.00    +0.000 A 
BRANCH  22  25
ATOM     25  N   UNL     1      10.902  14.266  20.613  0.00  0.00    +0.000 N 
ATOM     26  C   UNL     1      11.868  15.067  19.855  0.00  0.00    +0.000 C 
ATOM     27  C   UNL     1      10.163  15.029  21.614  0.00  0.00    +0.000 C 
ENDBRANCH  22  25
ENDBRANCH  17  19
ENDBRANCH   3  15
TORSDOF 4
ENDMDL
MODEL 4
REMARK VINA RESULT:      -7.5      3.414      5.713
REMARK  Name = 
REMARK  8 active torsions:
REMARK  status: ('A' for Active; 'I' for Inactive)
REMARK    1  A    between atoms: C_1  and  C_2
REMARK    2  A    between atoms: C_5  and  N_6
REMARK    3  A    between atoms: C_8  and  C_9
REMARK    4  A    between atoms: N_11  and  C_12
REMARK    5  A    between atoms: C_15  and  N_16
REMARK    6  A    between atoms: N_16  and  C_17
REMARK    7  A    between atoms: N_16  and  C_18
REMARK    8  A    between atoms: C_25  and  C_26
REMARK                            x       y       z     vdW  Elec       q    Type
REMARK                         _______ _______ _______ _____ _____    ______ ____
ROOT
ATOM      1  N   UNL     1       1.871   7.529  19.770  0.00  0.00    +0.000 N 
ATOM      2  C   UNL     1       1.229   8.127  20.910  0.00  0.00    +0.000 C 
ATOM      3  C   UNL     1       0.429   9.291  20.341  0.00  0.00    +0.000 C 
ATOM      4  C   UNL     1       1.264   9.724  19.149  0.00  0.00    +0.000 C 
ATOM      5  C   UNL     1       1.950   8.444  18.713  0.00  0.00    +0.000 C 
ATOM      6  O   UNL     1       2.489   8.328  17.627  0.00  0.00    +0.000 OA
ENDROOT
BRANCH   1  11
ATOM      7  C   UNL     1       4.159   2.240  19.884  0.00  0.00    +0.000 C 
ATOM      8  C   UNL     1       3.548   3.613  19.891  0.00  0.00    +0.000 A 
ATOM      9  C   UNL     1       4.199   4.653  19.217  0.00  0.00    +0.000 A 
ATOM     10  C   UNL     1       3.652   5.942  19.185  0.00  0.00    +0.000 A 
ATOM     11  C   UNL     1       2.448   6.232  19.823  0.00  0.00    +0.000 A 
ATOM     12  C   UNL     1       1.803   5.184  20.508  0.00  0.00    +0.000 A 
ATOM     13  C   UNL     1       2.333   3.879  20.544  0.00  0.00    +0.000 A 
ATOM     14  C   UNL     1       1.580   2.796  21.268  0.00  0.00    +0.000 C 
ENDBRANCH   1  11
BRANCH   3  15
ATOM     15  C   UNL     1       0.246  10.342  21.413  0.00  0.00    +0.000 C 
ATOM     16  O   UNL     1       1.013  10.371  22.375  0.00  0.00    +0.000 OA
ATOM     17  N   UNL     1      -0.854  11.168  21.257  0.00  0.00    +0.000 N 
ATOM     18  H   UNL     1      -1.557  10.906  20.575  0.00  0.00    +0.000 HD
BRANCH  17  19
ATOM     19  C   UNL     1      -1.174  12.249  22.118  0.00  0.00    +0.000 A 
ATOM     20  C   UNL     1      -0.430  13.423  22.156  0.00  0.00    +0.000 A 
ATOM     21  C   UNL     1      -0.760  14.464  23.032  0.00  0.00    +0.000 A 
ATOM     22  C   UNL     1      -1.862  14.408  23.894  0.00  0.00    +0.000 A 
ATOM     23  C   UNL     1      -2.604  13.214  23.838  0.00  0.00    +0.000 A 
ATOM     24  C   UNL     1      -2.278  12.154  22.962  0.00  0.00    +0.000 A 
BRANCH  22  25
ATOM     25  N   UNL     1      -2.141  15.449  24.767  0.00  0.00    +0.000 N 
ATOM     26  C   UNL     1      -3.366  16.244  24.627  0.00  0.00    +0.000 C 
ATOM     27  C   UNL     1      -1.506  15.574  26.075  0.00  0.00    +0.000 C 
ENDBRANCH  22  25
ENDBRANCH  17  19
ENDBRANCH   3  15
TORSDOF 4
ENDMDL
MODEL 5
REMARK VINA RESULT:      -7.4      6.301      7.944
REMARK  Name = 
REMARK  8 active torsions:
REMARK  status: ('A' for Active; 'I' for Inactive)
REMARK    1  A    between atoms: C_1  and  C_2
REMARK    2  A    between atoms: C_5  and  N_6
REMARK    3  A    between atoms: C_8  and  C_9
REMARK    4  A    between atoms: N_11  and  C_12
REMARK    5  A    between atoms: C_15  and  N_16
REMARK    6  A    between atoms: N_16  and  C_17
REMARK    7  A    between atoms: N_16  and  C_18
REMARK    8  A    between atoms: C_25  and  C_26
REMARK                            x       y       z     vdW  Elec       q    Type
REMARK                         _______ _______ _______ _____ _____    ______ ____
ROOT
ATOM      1  N   UNL     1       6.088   6.245  18.240  0.00  0.00    +0.000 N 
ATOM      2  C   UNL     1       6.314   7.611  17.849  0.00  0.00    +0.000 C 
ATOM      3  C   UNL     1       7.828   7.748  17.765  0.00  0.00    +0.000 C 
ATOM      4  C   UNL     1       8.313   6.772  18.823  0.00  0.00    +0.000 C 
ATOM      5  C   UNL     1       7.228   5.714  18.854  0.00  0.00    +0.000 C 
ATOM      6  O   UNL     1       7.389   4.627  19.381  0.00  0.00    +0.000 OA
ENDROOT
BRANCH   1  11
ATOM      7  C   UNL     1       0.920   3.721  17.861  0.00  0.00    +0.000 C 
ATOM      8  C   UNL     1       2.281   4.352  17.935  0.00  0.00    +0.000 A 
ATOM      9  C   UNL     1       2.383   5.738  18.096  0.00  0.00    +0.000 A 
ATOM     10  C   UNL     1       3.635   6.362  18.188  0.00  0.00    +0.000 A 
ATOM     11  C   UNL     1       4.815   5.625  18.118  0.00  0.00    +0.000 A 
ATOM     12  C   UNL     1       4.706   4.232  17.945  0.00  0.00    +0.000 A 
ATOM     13  C   UNL     1       3.456   3.586  17.859  0.00  0.00    +0.000 A 
ATOM     14  C   UNL     1       3.408   2.090  17.705  0.00  0.00    +0.000 C 
ENDBRANCH   1  11
BRANCH   3  15
ATOM     15  C   UNL     1       8.212   9.191  17.998  0.00  0.00    +0.000 C 
ATOM     16  O   UNL     1       7.729  10.072  17.288  0.00  0.00    +0.000 OA
ATOM     17  N   UNL     1       9.167   9.403  18.979  0.00  0.00    +0.000 N 
ATOM     18  H   UNL     1       9.679   8.602  19.329  0.00  0.00    +0.000 HD
BRANCH  17  19
ATOM     19  C   UNL     1       9.623  10.682  19.389  0.00  0.00    +0.000 A 
ATOM     20  C   UNL     1      10.389  11.504  18.571  0.00  0.00    +0.000 A 
ATOM     21  C   UNL     1      10.841  12.753  19.013  0.00  0.00    +0.000 A 
ATOM     22  C   UNL     1      10.532  13.265  20.279  0.00  0.00    +0.000 A 
ATOM     23  C   UNL     1       9.754  12.421  21.092  0.00  0.00    +0.000 A 
ATOM     24  C   UNL     1       9.296  11.156  20.658  0.00  0.00    +0.000 A 
BRANCH  22  25
ATOM     25  N   UNL     1      11.021  14.496  20.692  0.00  0.00    +0.000 N 
ATOM     26  C   UNL     1      11.913  15.280  19.830  0.00  0.00    +0.000 C 
ATOM     27  C   UNL     1      10.401  15.274  21.760  0.00  0.00    +0.000 C 
ENDBRANCH  22  25
ENDBRANCH  17  19
ENDBRANCH   3  15
TORSDOF 4
ENDMDL
MODEL 6
REMARK VINA RESULT:      -7.4      3.090     10.603
REMARK  Name = 
REMARK  8 active torsions:
REMARK  status: ('A' for Active; 'I' for Inactive)
REMARK    1  A    between atoms: C_1  and  C_2
REMARK    2  A    between atoms: C_5  and  N_6
REMARK    3  A    between atoms: C_8  and  C_9
REMARK    4  A    between atoms: N_11  and  C_12
REMARK    5  A    between atoms: C_15  and  N_16
REMARK    6  A    between atoms: N_16  and  C_17
REMARK    7  A    between atoms: N_16  and  C_18
REMARK    8  A    between atoms: C_25  and  C_26
REMARK                            x       y       z     vdW  Elec       q    Type
REMARK                         _______ _______ _______ _____ _____    ______ ____
ROOT
ATOM      1  N   UNL     1      -0.826  11.563  21.321  0.00  0.00    +0.000 N 
ATOM      2  C   UNL     1       0.077  10.507  21.696  0.00  0.00    +0.000 C 
ATOM      3  C   UNL     1       0.728  10.068  20.391  0.00  0.00    +0.000 C 
ATOM      4  C   UNL     1      -0.365  10.321  19.367  0.00  0.00    +0.000 C 
ATOM      5  C   UNL     1      -1.148  11.476  19.961  0.00  0.00    +0.000 C 
ATOM      6  O   UNL     1      -1.933  12.139  19.307  0.00  0.00    +0.000 OA
ENDROOT
BRANCH   1  11
ATOM      7  C   UNL     1      -3.030  15.123  25.282  0.00  0.00    +0.000 C 
ATOM      8  C   UNL     1      -2.493  14.185  24.239  0.00  0.00    +0.000 A 
ATOM      9  C   UNL     1      -1.305  14.511  23.575  0.00  0.00    +0.000 A 
ATOM     10  C   UNL     1      -0.761  13.653  22.610  0.00  0.00    +0.000 A 
ATOM     11  C   UNL     1      -1.385  12.453  22.277  0.00  0.00    +0.000 A 
ATOM     12  C   UNL     1      -2.586  12.135  22.941  0.00  0.00    +0.000 A 
ATOM     13  C   UNL     1      -3.143  12.981  23.921  0.00  0.00    +0.000 A 
ATOM     14  C   UNL     1      -4.413  12.569  24.615  0.00  0.00    +0.000 C 
ENDBRANCH   1  11
BRANCH   3  15
ATOM     15  C   UNL     1       1.172   8.629  20.515  0.00  0.00    +0.000 C 
ATOM     16  O   UNL     1       0.928   8.003  21.546  0.00  0.00    +0.000 OA
ATOM     17  N   UNL     1       1.909   8.138  19.449  0.00  0.00    +0.000 N 
ATOM     18  H   UNL     1       2.265   8.800  18.769  0.00  0.00    +0.000 HD
BRANCH  17  19
ATOM     19  C   UNL     1       2.372   6.802  19.343  0.00  0.00    +0.000 A 
ATOM     20  C   UNL     1       2.122   5.841  20.316  0.00  0.00    +0.000 A 
ATOM     21  C   UNL     1       2.610   4.535  20.191  0.00  0.00    +0.000 A 
ATOM     22  C   UNL     1       3.346   4.106  19.079  0.00  0.00    +0.000 A 
ATOM     23  C   UNL     1       3.585   5.090  18.104  0.00  0.00    +0.000 A 
ATOM     24  C   UNL     1       3.102   6.413  18.222  0.00  0.00    +0.000 A 
BRANCH  22  25
ATOM     25  N   UNL     1       3.836   2.810  19.004  0.00  0.00    +0.000 N 
ATOM     26  C   UNL     1       4.485   2.180  20.159  0.00  0.00    +0.000 C 
ATOM     27  C   UNL     1       3.402   1.860  17.984  0.00  0.00    +0.000 C 
ENDBRANCH  22  25
ENDBRANCH  17  19
ENDBRANCH   3  15
TORSDOF 4
ENDMDL
MODEL 7
REMARK VINA RESULT:      -7.4      6.162      7.854
REMARK  Name = 
REMARK  8 active torsions:
REMARK  status: ('A' for Active; 'I' for Inactive)
REMARK    1  A    between atoms: C_1  and  C_2
REMARK    2  A    between atoms: C_5  and  N_6
REMARK    3  A    between atoms: C_8  and  C_9
REMARK    4  A    between atoms: N_11  and  C_12
REMARK    5  A    between atoms: C_15  and  N_16
REMARK    6  A    between atoms: N_16  and  C_17
REMARK    7  A    between atoms: N_16  and  C_18
REMARK    8  A    between atoms: C_25  and  C_26
REMARK                            x       y       z     vdW  Elec       q    Type
REMARK                         _______ _______ _______ _____ _____    ______ ____
ROOT
ATOM      1  N   UNL     1       6.036   6.072  18.150  0.00  0.00    +0.000 N 
ATOM      2  C   UNL     1       6.193   7.459  17.804  0.00  0.00    +0.000 C 
ATOM      3  C   UNL     1       7.693   7.651  17.628  0.00  0.00    +0.000 C 
ATOM      4  C   UNL     1       8.278   6.649  18.609  0.00  0.00    +0.000 C 
ATOM      5  C   UNL     1       7.231   5.555  18.666  0.00  0.00    +0.000 C 
ATOM      6  O   UNL     1       7.460   4.454  19.134  0.00  0.00    +0.000 OA
ENDROOT
BRANCH   1  11
ATOM      7  C   UNL     1       0.927   3.409  18.003  0.00  0.00    +0.000 C 
ATOM      8  C   UNL     1       2.273   4.073  18.019  0.00  0.00    +0.000 A 
ATOM      9  C   UNL     1       2.344   5.471  18.041  0.00  0.00    +0.000 A 
ATOM     10  C   UNL     1       3.581   6.128  18.075  0.00  0.00    +0.000 A 
ATOM     11  C   UNL     1       4.778   5.415  18.085  0.00  0.00    +0.000 A 
ATOM     12  C   UNL     1       4.700   4.009  18.053  0.00  0.00    +0.000 A 
ATOM     13  C   UNL     1       3.465   3.330  18.026  0.00  0.00    +0.000 A 
ATOM     14  C   UNL     1       3.450   1.826  18.022  0.00  0.00    +0.000 C 
ENDBRANCH   1  11
BRANCH   3  15
ATOM     15  C   UNL     1       8.047   9.095  17.897  0.00  0.00    +0.000 C 
ATOM     16  O   UNL     1       7.483   9.988  17.265  0.00  0.00    +0.000 OA
ATOM     17  N   UNL     1       9.066   9.299  18.812  0.00  0.00    +0.000 N 
ATOM     18  H   UNL     1       9.629   8.503  19.086  0.00  0.00    +0.000 HD
BRANCH  17  19
ATOM     19  C   UNL     1       9.511  10.574  19.245  0.00  0.00    +0.000 A 
ATOM     20  C   UNL     1       9.339  11.027  20.548  0.00  0.00    +0.000 A 
ATOM     21  C   UNL     1       9.772  12.300  20.939  0.00  0.00    +0.000 A 
ATOM     22  C   UNL     1      10.426  13.178  20.066  0.00  0.00    +0.000 A 
ATOM     23  C   UNL     1      10.595  12.701  18.754  0.00  0.00    +0.000 A 
ATOM     24  C   UNL     1      10.157  11.421  18.346  0.00  0.00    +0.000 A 
BRANCH  22  25
ATOM     25  N   UNL     1      10.817  14.442  20.484  0.00  0.00    +0.000 N 
ATOM     26  C   UNL     1      10.312  15.012  21.737  0.00  0.00    +0.000 C 
ATOM     27  C   UNL     1      12.013  15.106  19.976  0.00  0.00    +0.000 C 
ENDBRANCH  22  25
ENDBRANCH  17  19
ENDBRANCH   3  15
TORSDOF 4
ENDMDL
MODEL 8
REMARK VINA RESULT:      -7.3      3.363      5.616
REMARK  Name = 
REMARK  8 active torsions:
REMARK  status: ('A' for Active; 'I' for Inactive)
REMARK    1  A    between atoms: C_1  and  C_2
REMARK    2  A    between atoms: C_5  and  N_6
REMARK    3  A    between atoms: C_8  and  C_9
REMARK    4  A    between atoms: N_11  and  C_12
REMARK    5  A    between atoms: C_15  and  N_16
REMARK    6  A    between atoms: N_16  and  C_17
REMARK    7  A    between atoms: N_16  and  C_18
REMARK    8  A    between atoms: C_25  and  C_26
REMARK                            x       y       z     vdW  Elec       q    Type
REMARK                         _______ _______ _______ _____ _____    ______ ____
ROOT
ATOM      1  N   UNL     1       1.964   7.524  19.703  0.00  0.00    +0.000 N 
ATOM      2  C   UNL     1       1.354   8.134  20.854  0.00  0.00    +0.000 C 
ATOM      3  C   UNL     1       0.551   9.302  20.297  0.00  0.00    +0.000 C 
ATOM      4  C   UNL     1       1.361   9.719  19.082  0.00  0.00    +0.000 C 
ATOM      5  C   UNL     1       2.026   8.431  18.639  0.00  0.00    +0.000 C 
ATOM      6  O   UNL     1       2.538   8.304  17.541  0.00  0.00    +0.000 OA
ENDROOT
BRANCH   1  11
ATOM      7  C   UNL     1       4.206   2.215  19.797  0.00  0.00    +0.000 C 
ATOM      8  C   UNL     1       3.609   3.593  19.810  0.00  0.00    +0.000 A 
ATOM      9  C   UNL     1       4.249   4.621  19.108  0.00  0.00    +0.000 A 
ATOM     10  C   UNL     1       3.713   5.915  19.080  0.00  0.00    +0.000 A 
ATOM     11  C   UNL     1       2.531   6.221  19.751  0.00  0.00    +0.000 A 
ATOM     12  C   UNL     1       1.897   5.185  20.463  0.00  0.00    +0.000 A 
ATOM     13  C   UNL     1       2.416   3.876  20.496  0.00  0.00    +0.000 A 
ATOM     14  C   UNL     1       1.674   2.807  21.252  0.00  0.00    +0.000 C 
ENDBRANCH   1  11
BRANCH   3  15
ATOM     15  C   UNL     1       0.403  10.360  21.365  0.00  0.00    +0.000 C 
ATOM     16  O   UNL     1       1.091  10.299  22.383  0.00  0.00    +0.000 OA
ATOM     17  N   UNL     1      -0.584  11.305  21.137  0.00  0.00    +0.000 N 
ATOM     18  H   UNL     1      -1.257  11.126  20.400  0.00  0.00    +0.000 HD
BRANCH  17  19
ATOM     19  C   UNL     1      -0.848  12.410  21.985  0.00  0.00    +0.000 A 
ATOM     20  C   UNL     1      -1.870  12.406  22.928  0.00  0.00    +0.000 A 
ATOM     21  C   UNL     1      -2.118  13.521  23.738  0.00  0.00    +0.000 A 
ATOM     22  C   UNL     1      -1.344  14.687  23.676  0.00  0.00    +0.000 A 
ATOM     23  C   UNL     1      -0.313  14.671  22.721  0.00  0.00    +0.000 A 
ATOM     24  C   UNL     1      -0.057  13.554  21.894  0.00  0.00    +0.000 A 
BRANCH  22  25
ATOM     25  N   UNL     1      -1.638  15.782  24.477  0.00  0.00    +0.000 N 
ATOM     26  C   UNL     1      -2.483  16.873  23.982  0.00  0.00    +0.000 C 
ATOM     27  C   UNL     1      -1.503  15.755  25.930  0.00  0.00    +0.000 C 
ENDBRANCH  22  25
ENDBRANCH  17  19
ENDBRANCH   3  15
TORSDOF 4
ENDMDL
MODEL 9
REMARK VINA RESULT:      -7.3      1.552      2.683
REMARK  Name = 
REMARK  8 active torsions:
REMARK  status: ('A' for Active; 'I' for Inactive)
REMARK    1  A    between atoms: C_1  and  C_2
REMARK    2  A    between atoms: C_5  and  N_6
REMARK    3  A    between atoms: C_8  and  C_9
REMARK    4  A    between atoms: N_11  and  C_12
REMARK    5  A    between atoms: C_15  and  N_16
REMARK    6  A    between atoms: N_16  and  C_17
REMARK    7  A    between atoms: N_16  and  C_18
REMARK    8  A    between atoms: C_25  and  C_26
REMARK                            x       y       z     vdW  Elec       q    Type
REMARK                         _______ _______ _______ _____ _____    ______ ____
ROOT
ATOM      1  N   UNL     1       3.095   5.261  19.010  0.00  0.00    +0.000 N 
ATOM      2  C   UNL     1       2.643   6.525  19.527  0.00  0.00    +0.000 C 
ATOM      3  C   UNL     1       1.930   6.182  20.828  0.00  0.00    +0.000 C 
ATOM      4  C   UNL     1       1.366   4.799  20.549  0.00  0.00    +0.000 C 
ATOM      5  C   UNL     1       2.347   4.210  19.555  0.00  0.00    +0.000 C 
ATOM      6  O   UNL     1       2.386   3.019  19.301  0.00  0.00    +0.000 OA
ENDROOT
BRANCH   1  11
ATOM      7  C   UNL     1       7.124   4.815  14.912  0.00  0.00    +0.000 C 
ATOM      8  C   UNL     1       6.081   4.970  15.982  0.00  0.00    +0.000 A 
ATOM      9  C   UNL     1       4.948   4.150  15.955  0.00  0.00    +0.000 A 
ATOM     10  C   UNL     1       3.962   4.251  16.945  0.00  0.00    +0.000 A 
ATOM     11  C   UNL     1       4.075   5.172  17.985  0.00  0.00    +0.000 A 
ATOM     12  C   UNL     1       5.213   6.001  18.001  0.00  0.00    +0.000 A 
ATOM     13  C   UNL     1       6.219   5.908  17.019  0.00  0.00    +0.000 A 
ATOM     14  C   UNL     1       7.424   6.804  17.110  0.00  0.00    +0.000 C 
ENDBRANCH   1  11
BRANCH   3  15
ATOM     15  C   UNL     1       0.900   7.247  21.128  0.00  0.00    +0.000 C 
ATOM     16  O   UNL     1      -0.297   6.989  21.003  0.00  0.00    +0.000 OA
ATOM     17  N   UNL     1       1.409   8.492  21.457  0.00  0.00    +0.000 N 
ATOM     18  H   UNL     1       2.393   8.666  21.290  0.00  0.00    +0.000 HD
BRANCH  17  19
ATOM     19  C   UNL     1       0.617   9.609  21.825  0.00  0.00    +0.000 A 
ATOM     20  C   UNL     1       0.663  10.820  21.144  0.00  0.00    +0.000 A 
ATOM     21  C   UNL     1      -0.118  11.911  21.544  0.00  0.00    +0.000 A 
ATOM     22  C   UNL     1      -1.007  11.849  22.624  0.00  0.00    +0.000 A 
ATOM     23  C   UNL     1      -1.043  10.616  23.299  0.00  0.00    +0.000 A 
ATOM     24  C   UNL     1      -0.256   9.509  22.907  0.00  0.00    +0.000 A 
BRANCH  22  25
ATOM     25  N   UNL     1      -1.744  12.960  23.008  0.00  0.00    +0.000 N 
ATOM     26  C   UNL     1      -3.157  12.837  23.379  0.00  0.00    +0.000 C 
ATOM     27  C   UNL     1      -1.122  14.200  23.464  0.00  0.00    +0.000 C 
ENDBRANCH  22  25
ENDBRANCH  17  19
ENDBRANCH   3  15
TORSDOF 4
ENDMDL
