MODEL 1
REMARK VINA RESULT:      -7.5      0.000      0.000
REMARK  Name = 
REMARK  4 active torsions:
REMARK  status: ('A' for Active; 'I' for Inactive)
REMARK    1  A    between atoms: C_2  and  C_3
REMARK    2  A    between atoms: C_4  and  N_5
REMARK    3  A    between atoms: N_5  and  C_6
REMARK    4  A    between atoms: C_6  and  C_7
REMARK                            x       y       z     vdW  Elec       q    Type
REMARK                         _______ _______ _______ _____ _____    ______ ____
ROOT
ATOM      1  C   UNL     1       4.523   5.755  18.167  0.00  0.00    +0.000 A 
ATOM      2  C   UNL     1       5.411   4.884  18.695  0.00  0.00    +0.000 A 
ATOM      3  N   UNL     1       4.999   3.863  19.523  0.00  0.00    +0.000 NA
ATOM      4  C   UNL     1       3.738   3.730  19.811  0.00  0.00    +0.000 A 
ATOM      5  C   UNL     1       3.296   2.632  20.711  0.00  0.00    +0.000 A 
ATOM      6  C   UNL     1       2.003   2.485  21.017  0.00  0.00    +0.000 A 
ATOM      7  C   UNL     1       1.023   3.382  20.466  0.00  0.00    +0.000 A 
ATOM      8  C   UNL     1       1.406   4.371  19.650  0.00  0.00    +0.000 A 
ATOM      9  N   UNL     1       2.742   4.554  19.310  0.00  0.00    +0.000 N 
ATOM     10  C   UNL     1       3.081   5.571  18.438  0.00  0.00    +0.000 A 
ATOM     11  O   UNL     1       2.260   6.315  17.896  0.00  0.00    +0.000 OA
ENDROOT
BRANCH   1  13
ATOM     12  O   UNL     1       6.004   7.476  17.316  0.00  0.00    +0.000 OA
ATOM     13  C   UNL     1       4.912   6.924  17.328  0.00  0.00    +0.000 C 
ENDBRANCH   1  13
BRANCH   2  14
ATOM     14  N   UNL     1       6.766   5.047  18.473  0.00  0.00    +0.000 N 
ATOM     15  H   UNL     1       7.290   5.224  19.322  0.00  0.00    +0.000 HD
BRANCH  14  16
ATOM     16  C   UNL     1       7.550   4.394  17.427  0.00  0.00    +0.000 C 
BRANCH  16  17
ATOM     17  C   UNL     1       7.011   4.363  16.034  0.00  0.00    +0.000 A 
ATOM     18  C   UNL     1       6.022   3.653  15.384  0.00  0.00    +0.000 A 
ATOM     19  C   UNL     1       6.052   4.056  14.026  0.00  0.00    +0.000 A 
ATOM     20  C   UNL     1       7.045   5.001  13.929  0.00  0.00    +0.000 A 
ATOM     21  O   UNL     1       7.627   5.201  15.139  0.00  0.00    +0.000 OA
ENDBRANCH  16  17
ENDBRANCH  14  16
ENDBRANCH   2  14
TORSDOF 4
ENDMDL
MODEL 2
REMARK VINA RESULT:      -7.3      2.265      3.134
REMARK  Name = 
REMARK  4 active torsions:
REMARK  status: ('A' for Active; 'I' for Inactive)
REMARK    1  A    between atoms: C_2  and  C_3
REMARK    2  A    between atoms: C_4  and  N_5
REMARK    3  A    between atoms: N_5  and  C_6
REMARK    4  A    between atoms: C_6  and  C_7
REMARK                            x       y       z     vdW  Elec       q    Type
REMARK                         _______ _______ _______ _____ _____    ______ ____
ROOT
ATOM      1  C   UNL     1       6.130   4.537  17.580  0.00  0.00    +0.000 A 
ATOM      2  C   UNL     1       5.532   3.922  16.535  0.00  0.00    +0.000 A 
ATOM      3  N   UNL     1       4.188   3.620  16.561  0.00  0.00    +0.000 NA
ATOM      4  C   UNL     1       3.476   3.923  17.607  0.00  0.00    +0.000 A 
ATOM      5  C   UNL     1       2.026   3.591  17.637  0.00  0.00    +0.000 A 
ATOM      6  C   UNL     1       1.284   3.895  18.705  0.00  0.00    +0.000 A 
ATOM      7  C   UNL     1       1.876   4.561  19.834  0.00  0.00    +0.000 A 
ATOM      8  C   UNL     1       3.178   4.871  19.817  0.00  0.00    +0.000 A 
ATOM      9  N   UNL     1       3.982   4.571  18.723  0.00  0.00    +0.000 N 
ATOM     10  C   UNL     1       5.313   4.942  18.743  0.00  0.00    +0.000 A 
ATOM     11  O   UNL     1       5.838   5.573  19.665  0.00  0.00    +0.000 OA
ENDROOT
BRANCH   1  13
ATOM     12  O   UNL     1       8.485   3.994  17.761  0.00  0.00    +0.000 OA
ATOM     13  C   UNL     1       7.592   4.820  17.643  0.00  0.00    +0.000 C 
ENDBRANCH   1  13
BRANCH   2  14
ATOM     14  N   UNL     1       6.278   3.515  15.444  0.00  0.00    +0.000 N 
ATOM     15  H   UNL     1       6.349   2.507  15.365  0.00  0.00    +0.000 HD
BRANCH  14  16
ATOM     16  C   UNL     1       6.378   4.211  14.164  0.00  0.00    +0.000 C 
BRANCH  16  17
ATOM     17  C   UNL     1       5.766   3.586  12.952  0.00  0.00    +0.000 A 
ATOM     18  C   UNL     1       4.623   3.806  12.210  0.00  0.00    +0.000 A 
ATOM     19  C   UNL     1       4.590   2.810  11.202  0.00  0.00    +0.000 A 
ATOM     20  C   UNL     1       5.722   2.051  11.377  0.00  0.00    +0.000 A 
ATOM     21  O   UNL     1       6.445   2.515  12.428  0.00  0.00    +0.000 OA
ENDBRANCH  16  17
ENDBRANCH  14  16
ENDBRANCH   2  14
TORSDOF 4
ENDMDL
MODEL 3
REMARK VINA RESULT:      -7.2      2.300      3.022
REMARK  Name = 
REMARK  4 active torsions:
REMARK  status: ('A' for Active; 'I' for Inactive)
REMARK    1  A    between atoms: C_2  and  C_3
REMARK    2  A    between atoms: C_4  and  N_5
REMARK    3  A    between atoms: N_5  and  C_6
REMARK    4  A    between atoms: C_6  and  C_7
REMARK                            x       y       z     vdW  Elec       q    Type
REMARK                         _______ _______ _______ _____ _____    ______ ____
ROOT
ATOM      1  C   UNL     1       6.203   5.238  17.371  0.00  0.00    +0.000 A 
ATOM      2  C   UNL     1       5.542   4.940  16.230  0.00  0.00    +0.000 A 
ATOM      3  N   UNL     1       4.424   4.134  16.245  0.00  0.00    +0.000 NA
ATOM      4  C   UNL     1       3.994   3.643  17.370  0.00  0.00    +0.000 A 
ATOM      5  C   UNL     1       2.792   2.768  17.384  0.00  0.00    +0.000 A 
ATOM      6  C   UNL     1       2.340   2.256  18.533  0.00  0.00    +0.000 A 
ATOM      7  C   UNL     1       3.005   2.558  19.772  0.00  0.00    +0.000 A 
ATOM      8  C   UNL     1       4.085   3.349  19.774  0.00  0.00    +0.000 A 
ATOM      9  N   UNL     1       4.584   3.900  18.599  0.00  0.00    +0.000 N 
ATOM     10  C   UNL     1       5.682   4.736  18.660  0.00  0.00    +0.000 A 
ATOM     11  O   UNL     1       6.236   5.069  19.712  0.00  0.00    +0.000 OA
ENDROOT
BRANCH   1  13
ATOM     12  O   UNL     1       7.700   7.043  16.756  0.00  0.00    +0.000 OA
ATOM     13  C   UNL     1       7.460   6.039  17.411  0.00  0.00    +0.000 C 
ENDBRANCH   1  13
BRANCH   2  14
ATOM     14  N   UNL     1       6.022   5.379  15.009  0.00  0.00    +0.000 N 
ATOM     15  H   UNL     1       6.228   6.372  14.997  0.00  0.00    +0.000 HD
BRANCH  14  16
ATOM     16  C   UNL     1       6.830   4.601  14.074  0.00  0.00    +0.000 C 
BRANCH  16  17
ATOM     17  C   UNL     1       6.141   3.824  12.999  0.00  0.00    +0.000 A 
ATOM     18  C   UNL     1       4.835   3.688  12.575  0.00  0.00    +0.000 A 
ATOM     19  C   UNL     1       4.841   2.733  11.528  0.00  0.00    +0.000 A 
ATOM     20  C   UNL     1       6.152   2.355  11.362  0.00  0.00    +0.000 A 
ATOM     21  O   UNL     1       6.949   3.014  12.241  0.00  0.00    +0.000 OA
ENDBRANCH  16  17
ENDBRANCH  14  16
ENDBRANCH   2  14
TORSDOF 4
ENDMDL
MODEL 4
REMARK VINA RESULT:      -7.1      1.982      2.899
REMARK  Name = 
REMARK  4 active torsions:
REMARK  status: ('A' for Active; 'I' for Inactive)
REMARK    1  A    between atoms: C_2  and  C_3
REMARK    2  A    between atoms: C_4  and  N_5
REMARK    3  A    between atoms: N_5  and  C_6
REMARK    4  A    between atoms: C_6  and  C_7
REMARK                            x       y       z     vdW  Elec       q    Type
REMARK                         _______ _______ _______ _____ _____    ______ ____
ROOT
ATOM      1  C   UNL     1       4.512   3.873  17.359  0.00  0.00    +0.000 A 
ATOM      2  C   UNL     1       5.328   3.803  18.434  0.00  0.00    +0.000 A 
ATOM      3  N   UNL     1       4.832   3.520  19.687  0.00  0.00    +0.000 NA
ATOM      4  C   UNL     1       3.557   3.320  19.849  0.00  0.00    +0.000 A 
ATOM      5  C   UNL     1       3.021   3.020  21.204  0.00  0.00    +0.000 A 
ATOM      6  C   UNL     1       1.713   2.814  21.385  0.00  0.00    +0.000 A 
ATOM      7  C   UNL     1       0.810   2.866  20.267  0.00  0.00    +0.000 A 
ATOM      8  C   UNL     1       1.280   3.128  19.041  0.00  0.00    +0.000 A 
ATOM      9  N   UNL     1       2.634   3.348  18.815  0.00  0.00    +0.000 N 
ATOM     10  C   UNL     1       3.072   3.583  17.525  0.00  0.00    +0.000 A 
ATOM     11  O   UNL     1       2.335   3.568  16.535  0.00  0.00    +0.000 OA
ENDROOT
BRANCH   1  13
ATOM     12  O   UNL     1       5.888   3.729  15.368  0.00  0.00    +0.000 OA
ATOM     13  C   UNL     1       4.976   4.250  15.993  0.00  0.00    +0.000 C 
ENDBRANCH   1  13
BRANCH   2  14
ATOM     14  N   UNL     1       6.675   4.091  18.308  0.00  0.00    +0.000 N 
ATOM     15  H   UNL     1       7.032   3.923  17.374  0.00  0.00    +0.000 HD
BRANCH  14  16
ATOM     16  C   UNL     1       7.404   5.127  19.036  0.00  0.00    +0.000 C 
BRANCH  16  17
ATOM     17  C   UNL     1       7.516   6.490  18.432  0.00  0.00    +0.000 A 
ATOM     18  C   UNL     1       6.892   7.155  17.397  0.00  0.00    +0.000 A 
ATOM     19  C   UNL     1       7.510   8.425  17.294  0.00  0.00    +0.000 A 
ATOM     20  C   UNL     1       8.463   8.469  18.283  0.00  0.00    +0.000 A 
ATOM     21  O   UNL     1       8.470   7.307  18.983  0.00  0.00    +0.000 OA
ENDBRANCH  16  17
ENDBRANCH  14  16
ENDBRANCH   2  14
TORSDOF 4
ENDMDL
MODEL 5
REMARK VINA RESULT:      -7.1      1.218      1.488
REMARK  Name = 
REMARK  4 active torsions:
REMARK  status: ('A' for Active; 'I' for Inactive)
REMARK    1  A    between atoms: C_2  and  C_3
REMARK    2  A    between atoms: C_4  and  N_5
REMARK    3  A    between atoms: N_5  and  C_6
REMARK    4  A    between atoms: C_6  and  C_7
REMARK                            x       y       z     vdW  Elec       q    Type
REMARK                         _______ _______ _______ _____ _____    ______ ____
ROOT
ATOM      1  C   UNL     1       4.327   5.671  17.533  0.00  0.00    +0.000 A 
ATOM      2  C   UNL     1       4.872   4.439  17.428  0.00  0.00    +0.000 A 
ATOM      3  N   UNL     1       4.403   3.387  18.184  0.00  0.00    +0.000 NA
ATOM      4  C   UNL     1       3.425   3.575  19.020  0.00  0.00    +0.000 A 
ATOM      5  C   UNL     1       2.924   2.440  19.841  0.00  0.00    +0.000 A 
ATOM      6  C   UNL     1       1.921   2.620  20.705  0.00  0.00    +0.000 A 
ATOM      7  C   UNL     1       1.303   3.912  20.839  0.00  0.00    +0.000 A 
ATOM      8  C   UNL     1       1.740   4.940  20.102  0.00  0.00    +0.000 A 
ATOM      9  N   UNL     1       2.781   4.791  19.193  0.00  0.00    +0.000 N 
ATOM     10  C   UNL     1       3.173   5.877  18.433  0.00  0.00    +0.000 A 
ATOM     11  O   UNL     1       2.622   6.980  18.474  0.00  0.00    +0.000 OA
ENDROOT
BRANCH   1  13
ATOM     12  O   UNL     1       5.162   6.907  15.621  0.00  0.00    +0.000 OA
ATOM     13  C   UNL     1       4.839   6.865  16.800  0.00  0.00    +0.000 C 
ENDBRANCH   1  13
BRANCH   2  14
ATOM     14  N   UNL     1       5.966   4.226  16.608  0.00  0.00    +0.000 N 
ATOM     15  H   UNL     1       6.843   4.199  17.115  0.00  0.00    +0.000 HD
BRANCH  14  16
ATOM     16  C   UNL     1       5.977   3.440  15.377  0.00  0.00    +0.000 C 
BRANCH  16  17
ATOM     17  C   UNL     1       6.568   4.040  14.143  0.00  0.00    +0.000 A 
ATOM     18  C   UNL     1       6.443   3.812  12.788  0.00  0.00    +0.000 A 
ATOM     19  C   UNL     1       7.337   4.698  12.138  0.00  0.00    +0.000 A 
ATOM     20  C   UNL     1       7.944   5.428  13.132  0.00  0.00    +0.000 A 
ATOM     21  O   UNL     1       7.481   5.044  14.349  0.00  0.00    +0.000 OA
ENDBRANCH  16  17
ENDBRANCH  14  16
ENDBRANCH   2  14
TORSDOF 4
ENDMDL
MODEL 6
REMARK VINA RESULT:      -7.1      1.750      2.559
REMARK  Name = 
REMARK  4 active torsions:
REMARK  status: ('A' for Active; 'I' for Inactive)
REMARK    1  A    between atoms: C_2  and  C_3
REMARK    2  A    between atoms: C_4  and  N_5
REMARK    3  A    between atoms: N_5  and  C_6
REMARK    4  A    between atoms: C_6  and  C_7
REMARK                            x       y       z     vdW  Elec       q    Type
REMARK                         _______ _______ _______ _____ _____    ______ ____
ROOT
ATOM      1  C   UNL     1       3.948   5.652  17.234  0.00  0.00    +0.000 A 
ATOM      2  C   UNL     1       4.441   4.417  16.990  0.00  0.00    +0.000 A 
ATOM      3  N   UNL     1       3.997   3.321  17.696  0.00  0.00    +0.000 NA
ATOM      4  C   UNL     1       3.093   3.468  18.619  0.00  0.00    +0.000 A 
ATOM      5  C   UNL     1       2.619   2.285  19.386  0.00  0.00    +0.000 A 
ATOM      6  C   UNL     1       1.692   2.422  20.338  0.00  0.00    +0.000 A 
ATOM      7  C   UNL     1       1.130   3.715  20.622  0.00  0.00    +0.000 A 
ATOM      8  C   UNL     1       1.543   4.787  19.935  0.00  0.00    +0.000 A 
ATOM      9  N   UNL     1       2.506   4.683  18.938  0.00  0.00    +0.000 N 
ATOM     10  C   UNL     1       2.874   5.816  18.236  0.00  0.00    +0.000 A 
ATOM     11  O   UNL     1       2.365   6.927  18.408  0.00  0.00    +0.000 OA
ENDROOT
BRANCH   1  13
ATOM     12  O   UNL     1       4.911   6.957  15.432  0.00  0.00    +0.000 OA
ATOM     13  C   UNL     1       4.441   6.886  16.559  0.00  0.00    +0.000 C 
ENDBRANCH   1  13
BRANCH   2  14
ATOM     14  N   UNL     1       5.461   4.241  16.072  0.00  0.00    +0.000 N 
ATOM     15  H   UNL     1       5.210   4.540  15.136  0.00  0.00    +0.000 HD
BRANCH  14  16
ATOM     16  C   UNL     1       6.892   4.331  16.351  0.00  0.00    +0.000 C 
BRANCH  16  17
ATOM     17  C   UNL     1       7.359   5.236  17.444  0.00  0.00    +0.000 A 
ATOM     18  C   UNL     1       7.690   6.573  17.533  0.00  0.00    +0.000 A 
ATOM     19  C   UNL     1       8.123   6.801  18.862  0.00  0.00    +0.000 A 
ATOM     20  C   UNL     1       8.015   5.596  19.513  0.00  0.00    +0.000 A 
ATOM     21  O   UNL     1       7.546   4.643  18.667  0.00  0.00    +0.000 OA
ENDBRANCH  16  17
ENDBRANCH  14  16
ENDBRANCH   2  14
TORSDOF 4
ENDMDL
MODEL 7
REMARK VINA RESULT:      -7.1      2.146      5.652
REMARK  Name = 
REMARK  4 active torsions:
REMARK  status: ('A' for Active; 'I' for Inactive)
REMARK    1  A    between atoms: C_2  and  C_3
REMARK    2  A    between atoms: C_4  and  N_5
REMARK    3  A    between atoms: N_5  and  C_6
REMARK    4  A    between atoms: C_6  and  C_7
REMARK                            x       y       z     vdW  Elec       q    Type
REMARK                         _______ _______ _______ _____ _____    ______ ____
ROOT
ATOM      1  C   UNL     1       4.688   4.267  17.443  0.00  0.00    +0.000 A 
ATOM      2  C   UNL     1       5.271   3.772  18.557  0.00  0.00    +0.000 A 
ATOM      3  N   UNL     1       6.327   4.424  19.157  0.00  0.00    +0.000 NA
ATOM      4  C   UNL     1       6.780   5.531  18.646  0.00  0.00    +0.000 A 
ATOM      5  C   UNL     1       7.924   6.230  19.290  0.00  0.00    +0.000 A 
ATOM      6  C   UNL     1       8.399   7.368  18.775  0.00  0.00    +0.000 A 
ATOM      7  C   UNL     1       7.800   7.937  17.598  0.00  0.00    +0.000 A 
ATOM      8  C   UNL     1       6.765   7.321  17.012  0.00  0.00    +0.000 A 
ATOM      9  N   UNL     1       6.244   6.136  17.519  0.00  0.00    +0.000 N 
ATOM     10  C   UNL     1       5.154   5.558  16.895  0.00  0.00    +0.000 A 
ATOM     11  O   UNL     1       4.574   6.054  15.925  0.00  0.00    +0.000 OA
ENDROOT
BRANCH   1  13
ATOM     12  O   UNL     1       2.434   3.456  17.072  0.00  0.00    +0.000 OA
ATOM     13  C   UNL     1       3.595   3.571  16.706  0.00  0.00    +0.000 C 
ENDBRANCH   1  13
BRANCH   2  14
ATOM     14  N   UNL     1       4.867   2.556  19.077  0.00  0.00    +0.000 N 
ATOM     15  H   UNL     1       5.537   1.813  18.917  0.00  0.00    +0.000 HD
BRANCH  14  16
ATOM     16  C   UNL     1       4.051   2.362  20.273  0.00  0.00    +0.000 C 
BRANCH  16  17
ATOM     17  C   UNL     1       2.763   3.110  20.397  0.00  0.00    +0.000 A 
ATOM     18  C   UNL     1       1.426   2.772  20.341  0.00  0.00    +0.000 A 
ATOM     19  C   UNL     1       0.692   3.976  20.475  0.00  0.00    +0.000 A 
ATOM     20  C   UNL     1       1.622   4.977  20.623  0.00  0.00    +0.000 A 
ATOM     21  O   UNL     1       2.878   4.464  20.586  0.00  0.00    +0.000 OA
ENDBRANCH  16  17
ENDBRANCH  14  16
ENDBRANCH   2  14
TORSDOF 4
ENDMDL
MODEL 8
REMARK VINA RESULT:      -7.1      2.660      4.050
REMARK  Name = 
REMARK  4 active torsions:
REMARK  status: ('A' for Active; 'I' for Inactive)
REMARK    1  A    between atoms: C_2  and  C_3
REMARK    2  A    between atoms: C_4  and  N_5
REMARK    3  A    between atoms: N_5  and  C_6
REMARK    4  A    between atoms: C_6  and  C_7
REMARK                            x       y       z     vdW  Elec       q    Type
REMARK                         _______ _______ _______ _____ _____    ______ ____
ROOT
ATOM      1  C   UNL     1       3.453   4.707  19.074  0.00  0.00    +0.000 A 
ATOM      2  C   UNL     1       3.792   5.272  17.894  0.00  0.00    +0.000 A 
ATOM      3  N   UNL     1       3.392   6.551  17.576  0.00  0.00    +0.000 NA
ATOM      4  C   UNL     1       2.672   7.233  18.417  0.00  0.00    +0.000 A 
ATOM      5  C   UNL     1       2.235   8.611  18.070  0.00  0.00    +0.000 A 
ATOM      6  C   UNL     1       1.493   9.322  18.924  0.00  0.00    +0.000 A 
ATOM      7  C   UNL     1       1.120   8.766  20.197  0.00  0.00    +0.000 A 
ATOM      8  C   UNL     1       1.511   7.528  20.525  0.00  0.00    +0.000 A 
ATOM      9  N   UNL     1       2.284   6.759  19.661  0.00  0.00    +0.000 N 
ATOM     10  C   UNL     1       2.689   5.500  20.061  0.00  0.00    +0.000 A 
ATOM     11  O   UNL     1       2.444   5.018  21.171  0.00  0.00    +0.000 OA
ENDROOT
BRANCH   1  13
ATOM     12  O   UNL     1       4.906   2.862  19.675  0.00  0.00    +0.000 OA
ATOM     13  C   UNL     1       3.789   3.303  19.444  0.00  0.00    +0.000 C 
ENDBRANCH   1  13
BRANCH   2  14
ATOM     14  N   UNL     1       4.488   4.543  16.946  0.00  0.00    +0.000 N 
ATOM     15  H   UNL     1       3.882   4.050  16.300  0.00  0.00    +0.000 HD
BRANCH  14  16
ATOM     16  C   UNL     1       5.788   4.893  16.379  0.00  0.00    +0.000 C 
BRANCH  16  17
ATOM     17  C   UNL     1       6.700   5.784  17.159  0.00  0.00    +0.000 A 
ATOM     18  C   UNL     1       7.469   5.642  18.295  0.00  0.00    +0.000 A 
ATOM     19  C   UNL     1       8.060   6.904  18.551  0.00  0.00    +0.000 A 
ATOM     20  C   UNL     1       7.632   7.738  17.547  0.00  0.00    +0.000 A 
ATOM     21  O   UNL     1       6.815   7.070  16.694  0.00  0.00    +0.000 OA
ENDBRANCH  16  17
ENDBRANCH  14  16
ENDBRANCH   2  14
TORSDOF 4
ENDMDL
MODEL 9
REMARK VINA RESULT:      -7.0      2.071      6.405
REMARK  Name = 
REMARK  4 active torsions:
REMARK  status: ('A' for Active; 'I' for Inactive)
REMARK    1  A    between atoms: C_2  and  C_3
REMARK    2  A    between atoms: C_4  and  N_5
REMARK    3  A    between atoms: N_5  and  C_6
REMARK    4  A    between atoms: C_6  and  C_7
REMARK                            x       y       z     vdW  Elec       q    Type
REMARK                         _______ _______ _______ _____ _____    ______ ____
ROOT
ATOM      1  C   UNL     1       6.153   4.924  17.080  0.00  0.00    +0.000 A 
ATOM      2  C   UNL     1       5.408   3.841  16.764  0.00  0.00    +0.000 A 
ATOM      3  N   UNL     1       5.395   3.335  15.483  0.00  0.00    +0.000 NA
ATOM      4  C   UNL     1       6.103   3.906  14.553  0.00  0.00    +0.000 A 
ATOM      5  C   UNL     1       6.082   3.363  13.169  0.00  0.00    +0.000 A 
ATOM      6  C   UNL     1       6.804   3.941  12.204  0.00  0.00    +0.000 A 
ATOM      7  C   UNL     1       7.620   5.088  12.498  0.00  0.00    +0.000 A 
ATOM      8  C   UNL     1       7.653   5.583  13.741  0.00  0.00    +0.000 A 
ATOM      9  N   UNL     1       6.916   5.008  14.771  0.00  0.00    +0.000 N 
ATOM     10  C   UNL     1       7.010   5.538  16.044  0.00  0.00    +0.000 A 
ATOM     11  O   UNL     1       7.751   6.478  16.345  0.00  0.00    +0.000 OA
ENDROOT
BRANCH   1  13
ATOM     12  O   UNL     1       6.488   5.039  19.478  0.00  0.00    +0.000 OA
ATOM     13  C   UNL     1       6.150   5.564  18.426  0.00  0.00    +0.000 C 
ENDBRANCH   1  13
BRANCH   2  14
ATOM     14  N   UNL     1       4.583   3.261  17.711  0.00  0.00    +0.000 N 
ATOM     15  H   UNL     1       4.990   3.248  18.639  0.00  0.00    +0.000 HD
BRANCH  14  16
ATOM     16  C   UNL     1       3.122   3.294  17.712  0.00  0.00    +0.000 C 
BRANCH  16  17
ATOM     17  C   UNL     1       2.400   3.218  19.018  0.00  0.00    +0.000 A 
ATOM     18  C   UNL     1       1.076   3.148  19.401  0.00  0.00    +0.000 A 
ATOM     19  C   UNL     1       1.057   3.164  20.817  0.00  0.00    +0.000 A 
ATOM     20  C   UNL     1       2.370   3.225  21.218  0.00  0.00    +0.000 A 
ATOM     21  O   UNL     1       3.192   3.250  20.138  0.00  0.00    +0.000 OA
ENDBRANCH  16  17
ENDBRANCH  14  16
ENDBRANCH   2  14
TORSDOF 4
ENDMDL
