MODEL 1
REMARK VINA RESULT:      -7.0      0.000      0.000
REMARK  Name = 
REMARK  2 active torsions:
REMARK  status: ('A' for Active; 'I' for Inactive)
REMARK    1  A    between atoms: C_4  and  C_5
REMARK    2  A    between atoms: C_4  and  C_7
REMARK                            x       y       z     vdW  Elec       q    Type
REMARK                         _______ _______ _______ _____ _____    ______ ____
ROOT
ATOM      1  C   UNL     1       7.982   6.838  18.565  0.00  0.00    +0.000 C 
ATOM      2  C   UNL     1       7.304   6.143  17.645  0.00  0.00    +0.000 C 
ATOM      3  C   UNL     1       6.234   6.617  16.738  0.00  0.00    +0.000 C 
ATOM      4  C   UNL     1       5.580   5.302  16.271  0.00  0.00    +0.000 C 
ATOM      5  O   UNL     1       6.588   4.290  16.509  0.00  0.00    +0.000 OA
ATOM      6  C   UNL     1       7.534   4.712  17.385  0.00  0.00    +0.000 C 
ATOM      7  O   UNL     1       8.433   4.030  17.845  0.00  0.00    +0.000 OA
ENDROOT
BRANCH   4   8
ATOM      8  C   UNL     1       4.299   5.031  17.070  0.00  0.00    +0.000 A 
ATOM      9  C   UNL     1       3.731   3.743  17.075  0.00  0.00    +0.000 A 
ATOM     10  C   UNL     1       2.530   3.489  17.740  0.00  0.00    +0.000 A 
ATOM     11  C   UNL     1       1.892   4.510  18.436  0.00  0.00    +0.000 A 
ATOM     12  C   UNL     1       2.460   5.781  18.478  0.00  0.00    +0.000 A 
ATOM     13  C   UNL     1       3.655   6.041  17.801  0.00  0.00    +0.000 A 
ENDBRANCH   4   8
BRANCH   4  14
ATOM     14  C   UNL     1       5.323   5.358  14.753  0.00  0.00    +0.000 C 
ATOM     15 BR   UNL     1       6.222   3.918  13.777  0.00  0.00    +0.000 Br
ENDBRANCH   4  14
TORSDOF 2
ENDMDL
MODEL 2
REMARK VINA RESULT:      -7.0      0.143      1.253
REMARK  Name = 
REMARK  2 active torsions:
REMARK  status: ('A' for Active; 'I' for Inactive)
REMARK    1  A    between atoms: C_4  and  C_5
REMARK    2  A    between atoms: C_4  and  C_7
REMARK                            x       y       z     vdW  Elec       q    Type
REMARK                         _______ _______ _______ _____ _____    ______ ____
ROOT
ATOM      1  C   UNL     1       7.982   6.762  18.806  0.00  0.00    +0.000 C 
ATOM      2  C   UNL     1       7.348   6.125  17.816  0.00  0.00    +0.000 C 
ATOM      3  C   UNL     1       6.320   6.654  16.891  0.00  0.00    +0.000 C 
ATOM      4  C   UNL     1       5.689   5.370  16.317  0.00  0.00    +0.000 C 
ATOM      5  O   UNL     1       6.687   4.344  16.540  0.00  0.00    +0.000 OA
ATOM      6  C   UNL     1       7.591   4.712  17.481  0.00  0.00    +0.000 C 
ATOM      7  O   UNL     1       8.470   4.002  17.941  0.00  0.00    +0.000 OA
ENDROOT
BRANCH   4   8
ATOM      8  C   UNL     1       4.374   5.053  17.039  0.00  0.00    +0.000 A 
ATOM      9  C   UNL     1       3.697   6.064  17.749  0.00  0.00    +0.000 A 
ATOM     10  C   UNL     1       2.535   5.782  18.469  0.00  0.00    +0.000 A 
ATOM     11  C   UNL     1       2.012   4.494  18.469  0.00  0.00    +0.000 A 
ATOM     12  C   UNL     1       2.643   3.490  17.738  0.00  0.00    +0.000 A 
ATOM     13  C   UNL     1       3.815   3.766  17.028  0.00  0.00    +0.000 A 
ENDBRANCH   4   8
BRANCH   4  14
ATOM     14  C   UNL     1       5.502   5.517  14.795  0.00  0.00    +0.000 C 
ATOM     15 BR   UNL     1       6.148   3.962  13.796  0.00  0.00    +0.000 Br
ENDBRANCH   4  14
TORSDOF 2
ENDMDL
MODEL 3
REMARK VINA RESULT:      -6.9      2.366      3.415
REMARK  Name = 
REMARK  2 active torsions:
REMARK  status: ('A' for Active; 'I' for Inactive)
REMARK    1  A    between atoms: C_4  and  C_5
REMARK    2  A    between atoms: C_4  and  C_7
REMARK                            x       y       z     vdW  Elec       q    Type
REMARK                         _______ _______ _______ _____ _____    ______ ____
ROOT
ATOM      1  C   UNL     1       6.206   4.415  14.292  0.00  0.00    +0.000 C 
ATOM      2  C   UNL     1       5.893   4.822  15.527  0.00  0.00    +0.000 C 
ATOM      3  C   UNL     1       6.103   4.114  16.810  0.00  0.00    +0.000 C 
ATOM      4  C   UNL     1       5.161   4.866  17.770  0.00  0.00    +0.000 C 
ATOM      5  O   UNL     1       4.938   6.147  17.130  0.00  0.00    +0.000 OA
ATOM      6  C   UNL     1       5.248   6.115  15.810  0.00  0.00    +0.000 C 
ATOM      7  O   UNL     1       5.054   7.015  15.011  0.00  0.00    +0.000 OA
ENDROOT
BRANCH   4   8
ATOM      8  C   UNL     1       3.854   4.086  17.956  0.00  0.00    +0.000 A 
ATOM      9  C   UNL     1       2.615   4.733  17.786  0.00  0.00    +0.000 A 
ATOM     10  C   UNL     1       1.415   4.060  18.015  0.00  0.00    +0.000 A 
ATOM     11  C   UNL     1       1.429   2.721  18.390  0.00  0.00    +0.000 A 
ATOM     12  C   UNL     1       2.643   2.051  18.523  0.00  0.00    +0.000 A 
ATOM     13  C   UNL     1       3.847   2.727  18.307  0.00  0.00    +0.000 A 
ENDBRANCH   4   8
BRANCH   4  14
ATOM     14  C   UNL     1       5.881   5.132  19.106  0.00  0.00    +0.000 C 
ATOM     15 BR   UNL     1       7.689   5.844  18.868  0.00  0.00    +0.000 Br
ENDBRANCH   4  14
TORSDOF 2
ENDMDL
MODEL 4
REMARK VINA RESULT:      -6.9      2.373      3.236
REMARK  Name = 
REMARK  2 active torsions:
REMARK  status: ('A' for Active; 'I' for Inactive)
REMARK    1  A    between atoms: C_4  and  C_5
REMARK    2  A    between atoms: C_4  and  C_7
REMARK                            x       y       z     vdW  Elec       q    Type
REMARK                         _______ _______ _______ _____ _____    ______ ____
ROOT
ATOM      1  C   UNL     1       6.205   4.396  14.381  0.00  0.00    +0.000 C 
ATOM      2  C   UNL     1       5.894   4.833  15.606  0.00  0.00    +0.000 C 
ATOM      3  C   UNL     1       6.097   4.153  16.905  0.00  0.00    +0.000 C 
ATOM      4  C   UNL     1       5.160   4.934  17.847  0.00  0.00    +0.000 C 
ATOM      5  O   UNL     1       4.947   6.201  17.178  0.00  0.00    +0.000 OA
ATOM      6  C   UNL     1       5.258   6.137  15.859  0.00  0.00    +0.000 C 
ATOM      7  O   UNL     1       5.072   7.021  15.040  0.00  0.00    +0.000 OA
ENDROOT
BRANCH   4   8
ATOM      8  C   UNL     1       3.847   4.168  18.049  0.00  0.00    +0.000 A 
ATOM      9  C   UNL     1       3.864   2.769  18.206  0.00  0.00    +0.000 A 
ATOM     10  C   UNL     1       2.677   2.044  18.324  0.00  0.00    +0.000 A 
ATOM     11  C   UNL     1       1.454   2.706  18.316  0.00  0.00    +0.000 A 
ATOM     12  C   UNL     1       1.418   4.093  18.203  0.00  0.00    +0.000 A 
ATOM     13  C   UNL     1       2.605   4.820  18.071  0.00  0.00    +0.000 A 
ENDBRANCH   4   8
BRANCH   4  14
ATOM     14  C   UNL     1       5.880   5.224  19.177  0.00  0.00    +0.000 C 
ATOM     15 BR   UNL     1       7.709   5.876  18.926  0.00  0.00    +0.000 Br
ENDBRANCH   4  14
TORSDOF 2
ENDMDL
MODEL 5
REMARK VINA RESULT:      -6.9      1.083      1.674
REMARK  Name = 
REMARK  2 active torsions:
REMARK  status: ('A' for Active; 'I' for Inactive)
REMARK    1  A    between atoms: C_4  and  C_5
REMARK    2  A    between atoms: C_4  and  C_7
REMARK                            x       y       z     vdW  Elec       q    Type
REMARK                         _______ _______ _______ _____ _____    ______ ____
ROOT
ATOM      1  C   UNL     1       7.822   7.738  17.870  0.00  0.00    +0.000 C 
ATOM      2  C   UNL     1       7.343   6.515  17.621  0.00  0.00    +0.000 C 
ATOM      3  C   UNL     1       6.599   6.042  16.432  0.00  0.00    +0.000 C 
ATOM      4  C   UNL     1       5.963   4.729  16.930  0.00  0.00    +0.000 C 
ATOM      5  O   UNL     1       6.770   4.345  18.069  0.00  0.00    +0.000 OA
ATOM      6  C   UNL     1       7.492   5.386  18.555  0.00  0.00    +0.000 C 
ATOM      7  O   UNL     1       8.168   5.372  19.569  0.00  0.00    +0.000 OA
ENDROOT
BRANCH   4   8
ATOM      8  C   UNL     1       4.498   4.961  17.321  0.00  0.00    +0.000 A 
ATOM      9  C   UNL     1       4.065   6.244  17.705  0.00  0.00    +0.000 A 
ATOM     10  C   UNL     1       2.753   6.464  18.129  0.00  0.00    +0.000 A 
ATOM     11  C   UNL     1       1.844   5.412  18.149  0.00  0.00    +0.000 A 
ATOM     12  C   UNL     1       2.242   4.144  17.733  0.00  0.00    +0.000 A 
ATOM     13  C   UNL     1       3.558   3.918  17.321  0.00  0.00    +0.000 A 
ENDBRANCH   4   8
BRANCH   4  14
ATOM     14  C   UNL     1       6.118   3.635  15.857  0.00  0.00    +0.000 C 
ATOM     15 BR   UNL     1       6.349   4.364  14.055  0.00  0.00    +0.000 Br
ENDBRANCH   4  14
TORSDOF 2
ENDMDL
MODEL 6
REMARK VINA RESULT:      -6.7      1.176      1.304
REMARK  Name = 
REMARK  2 active torsions:
REMARK  status: ('A' for Active; 'I' for Inactive)
REMARK    1  A    between atoms: C_4  and  C_5
REMARK    2  A    between atoms: C_4  and  C_7
REMARK                            x       y       z     vdW  Elec       q    Type
REMARK                         _______ _______ _______ _____ _____    ______ ____
ROOT
ATOM      1  C   UNL     1       8.142   7.806  18.356  0.00  0.00    +0.000 C 
ATOM      2  C   UNL     1       7.660   6.609  18.002  0.00  0.00    +0.000 C 
ATOM      3  C   UNL     1       6.957   6.233  16.755  0.00  0.00    +0.000 C 
ATOM      4  C   UNL     1       6.287   4.898  17.133  0.00  0.00    +0.000 C 
ATOM      5  O   UNL     1       7.045   4.422  18.273  0.00  0.00    +0.000 OA
ATOM      6  C   UNL     1       7.758   5.416  18.858  0.00  0.00    +0.000 C 
ATOM      7  O   UNL     1       8.395   5.320  19.894  0.00  0.00    +0.000 OA
ENDROOT
BRANCH   4   8
ATOM      8  C   UNL     1       4.811   5.122  17.483  0.00  0.00    +0.000 A 
ATOM      9  C   UNL     1       3.925   4.029  17.540  0.00  0.00    +0.000 A 
ATOM     10  C   UNL     1       2.565   4.217  17.791  0.00  0.00    +0.000 A 
ATOM     11  C   UNL     1       2.071   5.497  18.018  0.00  0.00    +0.000 A 
ATOM     12  C   UNL     1       2.938   6.587  18.008  0.00  0.00    +0.000 A 
ATOM     13  C   UNL     1       4.298   6.402  17.743  0.00  0.00    +0.000 A 
ENDBRANCH   4   8
BRANCH   4  14
ATOM     14  C   UNL     1       6.471   3.880  15.992  0.00  0.00    +0.000 C 
ATOM     15 BR   UNL     1       5.715   4.495  14.294  0.00  0.00    +0.000 Br
ENDBRANCH   4  14
TORSDOF 2
ENDMDL
MODEL 7
REMARK VINA RESULT:      -6.7      1.590      1.995
REMARK  Name = 
REMARK  2 active torsions:
REMARK  status: ('A' for Active; 'I' for Inactive)
REMARK    1  A    between atoms: C_4  and  C_5
REMARK    2  A    between atoms: C_4  and  C_7
REMARK                            x       y       z     vdW  Elec       q    Type
REMARK                         _______ _______ _______ _____ _____    ______ ____
ROOT
ATOM      1  C   UNL     1       8.057   7.707  17.999  0.00  0.00    +0.000 C 
ATOM      2  C   UNL     1       7.322   6.594  17.891  0.00  0.00    +0.000 C 
ATOM      3  C   UNL     1       6.220   6.308  16.944  0.00  0.00    +0.000 C 
ATOM      4  C   UNL     1       5.517   5.102  17.598  0.00  0.00    +0.000 C 
ATOM      5  O   UNL     1       6.515   4.537  18.483  0.00  0.00    +0.000 OA
ATOM      6  C   UNL     1       7.510   5.417  18.755  0.00  0.00    +0.000 C 
ATOM      7  O   UNL     1       8.416   5.244  19.552  0.00  0.00    +0.000 OA
ENDROOT
BRANCH   4   8
ATOM      8  C   UNL     1       4.271   5.563  18.364  0.00  0.00    +0.000 A 
ATOM      9  C   UNL     1       3.571   6.711  17.948  0.00  0.00    +0.000 A 
ATOM     10  C   UNL     1       2.475   7.186  18.669  0.00  0.00    +0.000 A 
ATOM     11  C   UNL     1       2.040   6.507  19.802  0.00  0.00    +0.000 A 
ATOM     12  C   UNL     1       2.694   5.346  20.207  0.00  0.00    +0.000 A 
ATOM     13  C   UNL     1       3.801   4.876  19.494  0.00  0.00    +0.000 A 
ENDBRANCH   4   8
BRANCH   4  14
ATOM     14  C   UNL     1       5.190   4.045  16.527  0.00  0.00    +0.000 C 
ATOM     15 BR   UNL     1       6.028   4.427  14.800  0.00  0.00    +0.000 Br
ENDBRANCH   4  14
TORSDOF 2
ENDMDL
MODEL 8
REMARK VINA RESULT:      -6.6      1.550      1.761
REMARK  Name = 
REMARK  2 active torsions:
REMARK  status: ('A' for Active; 'I' for Inactive)
REMARK    1  A    between atoms: C_4  and  C_5
REMARK    2  A    between atoms: C_4  and  C_7
REMARK                            x       y       z     vdW  Elec       q    Type
REMARK                         _______ _______ _______ _____ _____    ______ ____
ROOT
ATOM      1  C   UNL     1       7.834   7.699  17.836  0.00  0.00    +0.000 C 
ATOM      2  C   UNL     1       7.131   6.562  17.790  0.00  0.00    +0.000 C 
ATOM      3  C   UNL     1       5.955   6.241  16.951  0.00  0.00    +0.000 C 
ATOM      4  C   UNL     1       5.360   5.008  17.660  0.00  0.00    +0.000 C 
ATOM      5  O   UNL     1       6.457   4.475  18.442  0.00  0.00    +0.000 OA
ATOM      6  C   UNL     1       7.442   5.389  18.624  0.00  0.00    +0.000 C 
ATOM      7  O   UNL     1       8.425   5.245  19.330  0.00  0.00    +0.000 OA
ENDROOT
BRANCH   4   8
ATOM      8  C   UNL     1       4.177   5.421  18.545  0.00  0.00    +0.000 A 
ATOM      9  C   UNL     1       3.746   4.577  19.586  0.00  0.00    +0.000 A 
ATOM     10  C   UNL     1       2.631   4.901  20.360  0.00  0.00    +0.000 A 
ATOM     11  C   UNL     1       1.945   6.088  20.128  0.00  0.00    +0.000 A 
ATOM     12  C   UNL     1       2.381   6.957  19.131  0.00  0.00    +0.000 A 
ATOM     13  C   UNL     1       3.489   6.628  18.345  0.00  0.00    +0.000 A 
ENDBRANCH   4   8
BRANCH   4  14
ATOM     14  C   UNL     1       4.969   3.944  16.617  0.00  0.00    +0.000 C 
ATOM     15 BR   UNL     1       6.056   4.036  14.992  0.00  0.00    +0.000 Br
ENDBRANCH   4  14
TORSDOF 2
ENDMDL
MODEL 9
REMARK VINA RESULT:      -6.5      2.260      3.341
REMARK  Name = 
REMARK  2 active torsions:
REMARK  status: ('A' for Active; 'I' for Inactive)
REMARK    1  A    between atoms: C_4  and  C_5
REMARK    2  A    between atoms: C_4  and  C_7
REMARK                            x       y       z     vdW  Elec       q    Type
REMARK                         _______ _______ _______ _____ _____    ______ ____
ROOT
ATOM      1  C   UNL     1       6.020   4.023  14.868  0.00  0.00    +0.000 C 
ATOM      2  C   UNL     1       5.766   3.988  16.180  0.00  0.00    +0.000 C 
ATOM      3  C   UNL     1       4.512   3.601  16.865  0.00  0.00    +0.000 C 
ATOM      4  C   UNL     1       4.704   4.183  18.279  0.00  0.00    +0.000 C 
ATOM      5  O   UNL     1       6.137   4.354  18.409  0.00  0.00    +0.000 OA
ATOM      6  C   UNL     1       6.759   4.356  17.203  0.00  0.00    +0.000 C 
ATOM      7  O   UNL     1       7.940   4.589  17.012  0.00  0.00    +0.000 OA
ENDROOT
BRANCH   4   8
ATOM      8  C   UNL     1       3.957   5.515  18.414  0.00  0.00    +0.000 A 
ATOM      9  C   UNL     1       3.125   5.748  19.526  0.00  0.00    +0.000 A 
ATOM     10  C   UNL     1       2.383   6.925  19.636  0.00  0.00    +0.000 A 
ATOM     11  C   UNL     1       2.481   7.903  18.653  0.00  0.00    +0.000 A 
ATOM     12  C   UNL     1       3.330   7.710  17.566  0.00  0.00    +0.000 A 
ATOM     13  C   UNL     1       4.064   6.526  17.446  0.00  0.00    +0.000 A 
ENDBRANCH   4   8
BRANCH   4  14
ATOM     14  C   UNL     1       4.260   3.151  19.333  0.00  0.00    +0.000 C 
ATOM     15 BR   UNL     1       3.401   1.579  18.543  0.00  0.00    +0.000 Br
ENDBRANCH   4  14
TORSDOF 2
ENDMDL
