MODEL 1
REMARK VINA RESULT:      -8.4      0.000      0.000
REMARK  Name = 
REMARK  5 active torsions:
REMARK  status: ('A' for Active; 'I' for Inactive)
REMARK    1  A    between atoms: C_2  and  O_3
REMARK    2  A    between atoms: C_2  and  C_4
REMARK    3  A    between atoms: C_4  and  C_5
REMARK    4  A    between atoms: C_5  and  N_6
REMARK    5  A    between atoms: C_15  and  N_16
REMARK                            x       y       z     vdW  Elec       q    Type
REMARK                         _______ _______ _______ _____ _____    ______ ____
ROOT
ATOM      1  N   UNL     1       5.675   5.191  15.273  0.00  0.00    +0.000 NA
ATOM      2  C   UNL     1       5.013   4.110  16.029  0.00  0.00    +0.000 C 
ATOM      3  C   UNL     1       4.808   4.365  17.530  0.00  0.00    +0.000 C 
ATOM      4  C   UNL     1       4.090   5.690  17.742  0.00  0.00    +0.000 C 
ATOM      5  C   UNL     1       2.849   5.838  18.294  0.00  0.00    +0.000 C 
ATOM      6  C   UNL     1       2.268   7.177  18.585  0.00  0.00    +0.000 A 
ATOM      7  C   UNL     1       1.866   8.060  17.576  0.00  0.00    +0.000 A 
ATOM      8  C   UNL     1       1.259   9.285  17.896  0.00  0.00    +0.000 A 
ATOM      9  C   UNL     1       1.045   9.634  19.227  0.00  0.00    +0.000 A 
ATOM     10  C   UNL     1       1.427   8.739  20.235  0.00  0.00    +0.000 A 
ATOM     11  C   UNL     1       2.011   7.507  19.927  0.00  0.00    +0.000 A 
ATOM     12  O   UNL     1       2.403   6.630  20.903  0.00  0.00    +0.000 OA
ATOM     13  C   UNL     1       1.472   5.543  21.022  0.00  0.00    +0.000 C 
ATOM     14  C   UNL     1       1.481   4.483  19.942  0.00  0.00    +0.000 A 
ATOM     15  C   UNL     1       0.787   3.286  20.190  0.00  0.00    +0.000 A 
ATOM     16  C   UNL     1       0.677   2.314  19.203  0.00  0.00    +0.000 A 
ATOM     17  C   UNL     1       1.239   2.576  17.971  0.00  0.00    +0.000 A 
ATOM     18  N   UNL     1       1.916   3.707  17.691  0.00  0.00    +0.000 NA
ATOM     19  C   UNL     1       2.065   4.631  18.681  0.00  0.00    +0.000 A 
ATOM     20  C   UNL     1       4.988   6.779  17.198  0.00  0.00    +0.000 C 
ATOM     21  C   UNL     1       5.220   6.537  15.690  0.00  0.00    +0.000 C 
ENDROOT
BRANCH  10  22
ATOM     22  N   UNL     1       1.161   9.104  21.610  0.00  0.00    +0.000 N 
ATOM     23  O   UNL     1       0.053   8.789  22.074  0.00  0.00    +0.000 OA
ATOM     24  O   UNL     1       2.075   9.645  22.249  0.00  0.00    +0.000 OA
ENDBRANCH  10  22
BRANCH   1  25
ATOM     25  C   UNL     1       7.138   5.073  15.172  0.00  0.00    +0.000 C 
BRANCH  25  26
ATOM     26  C   UNL     1       7.632   5.220  13.722  0.00  0.00    +0.000 C 
BRANCH  26  28
ATOM     27  O   UNL     1       7.040   4.172  11.611  0.00  0.00    +0.000 OA
ATOM     28  C   UNL     1       7.038   4.157  12.832  0.00  0.00    +0.000 C 
BRANCH  28  29
ATOM     29  O   UNL     1       6.485   3.139  13.536  0.00  0.00    +0.000 OA
ATOM     30  H   UNL     1       6.243   3.375  14.452  0.00  0.00    +0.000 HD
ENDBRANCH  28  29
ENDBRANCH  26  28
ENDBRANCH  25  26
ENDBRANCH   1  25
TORSDOF 5
ENDMDL
MODEL 2
REMARK VINA RESULT:      -8.2      0.825      1.025
REMARK  Name = 
REMARK  5 active torsions:
REMARK  status: ('A' for Active; 'I' for Inactive)
REMARK    1  A    between atoms: C_2  and  O_3
REMARK    2  A    between atoms: C_2  and  C_4
REMARK    3  A    between atoms: C_4  and  C_5
REMARK    4  A    between atoms: C_5  and  N_6
REMARK    5  A    between atoms: C_15  and  N_16
REMARK                            x       y       z     vdW  Elec       q    Type
REMARK                         _______ _______ _______ _____ _____    ______ ____
ROOT
ATOM      1  N   UNL     1       5.570   5.239  15.151  0.00  0.00    +0.000 NA
ATOM      2  C   UNL     1       4.935   4.147  15.915  0.00  0.00    +0.000 C 
ATOM      3  C   UNL     1       4.771   4.386  17.423  0.00  0.00    +0.000 C 
ATOM      4  C   UNL     1       4.051   5.704  17.668  0.00  0.00    +0.000 C 
ATOM      5  C   UNL     1       2.825   5.840  18.256  0.00  0.00    +0.000 C 
ATOM      6  C   UNL     1       2.244   7.172  18.575  0.00  0.00    +0.000 A 
ATOM      7  C   UNL     1       1.809   8.063  17.586  0.00  0.00    +0.000 A 
ATOM      8  C   UNL     1       1.204   9.281  17.934  0.00  0.00    +0.000 A 
ATOM      9  C   UNL     1       1.025   9.616  19.274  0.00  0.00    +0.000 A 
ATOM     10  C   UNL     1       1.440   8.714  20.263  0.00  0.00    +0.000 A 
ATOM     11  C   UNL     1       2.023   7.489  19.927  0.00  0.00    +0.000 A 
ATOM     12  O   UNL     1       2.447   6.605  20.883  0.00  0.00    +0.000 OA
ATOM     13  C   UNL     1       1.526   5.511  21.018  0.00  0.00    +0.000 C 
ATOM     14  C   UNL     1       1.511   4.461  19.928  0.00  0.00    +0.000 A 
ATOM     15  C   UNL     1       0.832   3.258  20.184  0.00  0.00    +0.000 A 
ATOM     16  C   UNL     1       0.700   2.294  19.191  0.00  0.00    +0.000 A 
ATOM     17  C   UNL     1       1.226   2.571  17.947  0.00  0.00    +0.000 A 
ATOM     18  N   UNL     1       1.888   3.708  17.658  0.00  0.00    +0.000 NA
ATOM     19  C   UNL     1       2.059   4.625  18.652  0.00  0.00    +0.000 A 
ATOM     20  C   UNL     1       4.927   6.804  17.109  0.00  0.00    +0.000 C 
ATOM     21  C   UNL     1       5.118   6.578  15.593  0.00  0.00    +0.000 C 
ENDROOT
BRANCH  10  22
ATOM     22  N   UNL     1       1.211   9.064  21.648  0.00  0.00    +0.000 N 
ATOM     23  O   UNL     1       0.113   8.750  22.136  0.00  0.00    +0.000 OA
ATOM     24  O   UNL     1       2.143   9.593  22.271  0.00  0.00    +0.000 OA
ENDBRANCH  10  22
BRANCH   1  25
ATOM     25  C   UNL     1       7.029   5.131  15.008  0.00  0.00    +0.000 C 
BRANCH  25  26
ATOM     26  C   UNL     1       7.441   4.670  13.599  0.00  0.00    +0.000 C 
BRANCH  26  28
ATOM     27  O   UNL     1       9.354   6.143  13.323  0.00  0.00    +0.000 OA
ATOM     28  C   UNL     1       8.290   5.711  12.910  0.00  0.00    +0.000 C 
BRANCH  28  29
ATOM     29  O   UNL     1       7.747   6.135  11.742  0.00  0.00    +0.000 OA
ATOM     30  H   UNL     1       7.207   6.944  11.826  0.00  0.00    +0.000 HD
ENDBRANCH  28  29
ENDBRANCH  26  28
ENDBRANCH  25  26
ENDBRANCH   1  25
TORSDOF 5
ENDMDL
MODEL 3
REMARK VINA RESULT:      -7.8      1.583      2.010
REMARK  Name = 
REMARK  5 active torsions:
REMARK  status: ('A' for Active; 'I' for Inactive)
REMARK    1  A    between atoms: C_2  and  O_3
REMARK    2  A    between atoms: C_2  and  C_4
REMARK    3  A    between atoms: C_4  and  C_5
REMARK    4  A    between atoms: C_5  and  N_6
REMARK    5  A    between atoms: C_15  and  N_16
REMARK                            x       y       z     vdW  Elec       q    Type
REMARK                         _______ _______ _______ _____ _____    ______ ____
ROOT
ATOM      1  N   UNL     1       5.626   5.314  15.568  0.00  0.00    +0.000 NA
ATOM      2  C   UNL     1       4.960   4.235  16.324  0.00  0.00    +0.000 C 
ATOM      3  C   UNL     1       4.708   4.511  17.814  0.00  0.00    +0.000 C 
ATOM      4  C   UNL     1       3.963   5.826  17.983  0.00  0.00    +0.000 C 
ATOM      5  C   UNL     1       2.704   5.963  18.497  0.00  0.00    +0.000 C 
ATOM      6  C   UNL     1       2.094   7.296  18.749  0.00  0.00    +0.000 A 
ATOM      7  C   UNL     1       1.706   8.156  17.714  0.00  0.00    +0.000 A 
ATOM      8  C   UNL     1       1.071   9.376  17.996  0.00  0.00    +0.000 A 
ATOM      9  C   UNL     1       0.813   9.743  19.315  0.00  0.00    +0.000 A 
ATOM     10  C   UNL     1       1.180   8.871  20.349  0.00  0.00    +0.000 A 
ATOM     11  C   UNL     1       1.793   7.644  20.078  0.00  0.00    +0.000 A 
ATOM     12  O   UNL     1       2.171   6.790  21.079  0.00  0.00    +0.000 OA
ATOM     13  C   UNL     1       1.255   5.689  21.190  0.00  0.00    +0.000 C 
ATOM     14  C   UNL     1       1.312   4.612  20.129  0.00  0.00    +0.000 A 
ATOM     15  C   UNL     1       0.631   3.408  20.377  0.00  0.00    +0.000 A 
ATOM     16  C   UNL     1       0.565   2.418  19.404  0.00  0.00    +0.000 A 
ATOM     17  C   UNL     1       1.158   2.669  18.185  0.00  0.00    +0.000 A 
ATOM     18  N   UNL     1       1.824   3.806  17.904  0.00  0.00    +0.000 NA
ATOM     19  C   UNL     1       1.929   4.749  18.882  0.00  0.00    +0.000 A 
ATOM     20  C   UNL     1       4.858   6.921  17.446  0.00  0.00    +0.000 C 
ATOM     21  C   UNL     1       5.137   6.659  15.950  0.00  0.00    +0.000 C 
ENDROOT
BRANCH  10  22
ATOM     22  N   UNL     1       0.870   9.254  21.709  0.00  0.00    +0.000 N 
ATOM     23  O   UNL     1      -0.288   9.044  22.104  0.00  0.00    +0.000 OA
ATOM     24  O   UNL     1       1.791   9.703  22.406  0.00  0.00    +0.000 OA
ENDBRANCH  10  22
BRANCH   1  25
ATOM     25  C   UNL     1       7.092   5.219  15.511  0.00  0.00    +0.000 C 
BRANCH  25  26
ATOM     26  C   UNL     1       7.770   6.054  16.611  0.00  0.00    +0.000 C 
BRANCH  26  28
ATOM     27  O   UNL     1       7.796   5.691  19.014  0.00  0.00    +0.000 OA
ATOM     28  C   UNL     1       7.932   5.256  17.881  0.00  0.00    +0.000 C 
BRANCH  28  29
ATOM     29  O   UNL     1       8.249   3.960  17.644  0.00  0.00    +0.000 OA
ATOM     30  H   UNL     1       7.766   3.564  16.894  0.00  0.00    +0.000 HD
ENDBRANCH  28  29
ENDBRANCH  26  28
ENDBRANCH  25  26
ENDBRANCH   1  25
TORSDOF 5
ENDMDL
MODEL 4
REMARK VINA RESULT:      -6.7      6.290     11.833
REMARK  Name = 
REMARK  5 active torsions:
REMARK  status: ('A' for Active; 'I' for Inactive)
REMARK    1  A    between atoms: C_2  and  O_3
REMARK    2  A    between atoms: C_2  and  C_4
REMARK    3  A    between atoms: C_4  and  C_5
REMARK    4  A    between atoms: C_5  and  N_6
REMARK    5  A    between atoms: C_15  and  N_16
REMARK                            x       y       z     vdW  Elec       q    Type
REMARK                         _______ _______ _______ _____ _____    ______ ____
ROOT
ATOM      1  N   UNL     1      -4.415  14.623  22.115  0.00  0.00    +0.000 NA
ATOM      2  C   UNL     1      -3.232  15.460  21.836  0.00  0.00    +0.000 C 
ATOM      3  C   UNL     1      -1.872  14.747  21.897  0.00  0.00    +0.000 C 
ATOM      4  C   UNL     1      -1.886  13.518  21.001  0.00  0.00    +0.000 C 
ATOM      5  C   UNL     1      -1.108  13.337  19.893  0.00  0.00    +0.000 C 
ATOM      6  C   UNL     1      -1.088  12.052  19.141  0.00  0.00    +0.000 A 
ATOM      7  C   UNL     1      -2.177  11.604  18.384  0.00  0.00    +0.000 A 
ATOM      8  C   UNL     1      -2.090  10.420  17.635  0.00  0.00    +0.000 A 
ATOM      9  C   UNL     1      -0.912   9.676  17.634  0.00  0.00    +0.000 A 
ATOM     10  C   UNL     1       0.184  10.137  18.374  0.00  0.00    +0.000 A 
ATOM     11  C   UNL     1       0.117  11.327  19.105  0.00  0.00    +0.000 A 
ATOM     12  O   UNL     1       1.175  11.782  19.845  0.00  0.00    +0.000 OA
ATOM     13  C   UNL     1       1.841  12.866  19.179  0.00  0.00    +0.000 C 
ATOM     14  C   UNL     1       1.156  14.215  19.168  0.00  0.00    +0.000 A 
ATOM     15  C   UNL     1       1.914  15.333  18.777  0.00  0.00    +0.000 A 
ATOM     16  C   UNL     1       1.319  16.583  18.653  0.00  0.00    +0.000 A 
ATOM     17  C   UNL     1      -0.035  16.681  18.894  0.00  0.00    +0.000 A 
ATOM     18  N   UNL     1      -0.798  15.639  19.274  0.00  0.00    +0.000 NA
ATOM     19  C   UNL     1      -0.197  14.428  19.445  0.00  0.00    +0.000 A 
ATOM     20  C   UNL     1      -2.936  12.576  21.547  0.00  0.00    +0.000 C 
ATOM     21  C   UNL     1      -4.313  13.275  21.510  0.00  0.00    +0.000 C 
ENDROOT
BRANCH  10  22
ATOM     22  N   UNL     1       1.411   9.371  18.331  0.00  0.00    +0.000 N 
ATOM     23  O   UNL     1       2.166   9.569  17.366  0.00  0.00    +0.000 OA
ATOM     24  O   UNL     1       1.655   8.619  19.285  0.00  0.00    +0.000 OA
ENDBRANCH  10  22
BRANCH   1  25
ATOM     25  C   UNL     1      -4.843  14.601  23.522  0.00  0.00    +0.000 C 
BRANCH  25  26
ATOM     26  C   UNL     1      -6.245  13.989  23.692  0.00  0.00    +0.000 C 
BRANCH  26  28
ATOM     27  O   UNL     1      -5.202  12.059  24.736  0.00  0.00    +0.000 OA
ATOM     28  C   UNL     1      -6.164  12.564  24.180  0.00  0.00    +0.000 C 
BRANCH  28  29
ATOM     29  O   UNL     1      -7.303  11.868  23.943  0.00  0.00    +0.000 OA
ATOM     30  H   UNL     1      -7.536  11.235  24.649  0.00  0.00    +0.000 HD
ENDBRANCH  28  29
ENDBRANCH  26  28
ENDBRANCH  25  26
ENDBRANCH   1  25
TORSDOF 5
ENDMDL
MODEL 5
REMARK VINA RESULT:      -6.6      6.231     11.658
REMARK  Name = 
REMARK  5 active torsions:
REMARK  status: ('A' for Active; 'I' for Inactive)
REMARK    1  A    between atoms: C_2  and  O_3
REMARK    2  A    between atoms: C_2  and  C_4
REMARK    3  A    between atoms: C_4  and  C_5
REMARK    4  A    between atoms: C_5  and  N_6
REMARK    5  A    between atoms: C_15  and  N_16
REMARK                            x       y       z     vdW  Elec       q    Type
REMARK                         _______ _______ _______ _____ _____    ______ ____
ROOT
ATOM      1  N   UNL     1      -4.177  15.021  21.716  0.00  0.00    +0.000 NA
ATOM      2  C   UNL     1      -2.938  15.775  21.444  0.00  0.00    +0.000 C 
ATOM      3  C   UNL     1      -1.626  14.986  21.578  0.00  0.00    +0.000 C 
ATOM      4  C   UNL     1      -1.685  13.724  20.731  0.00  0.00    +0.000 C 
ATOM      5  C   UNL     1      -0.885  13.453  19.657  0.00  0.00    +0.000 C 
ATOM      6  C   UNL     1      -0.919  12.140  18.958  0.00  0.00    +0.000 A 
ATOM      7  C   UNL     1      -2.009  11.725  18.182  0.00  0.00    +0.000 A 
ATOM      8  C   UNL     1      -1.970  10.508  17.483  0.00  0.00    +0.000 A 
ATOM      9  C   UNL     1      -0.839   9.698  17.551  0.00  0.00    +0.000 A 
ATOM     10  C   UNL     1       0.259  10.123  18.309  0.00  0.00    +0.000 A 
ATOM     11  C   UNL     1       0.241  11.344  18.990  0.00  0.00    +0.000 A 
ATOM     12  O   UNL     1       1.301  11.766  19.747  0.00  0.00    +0.000 OA
ATOM     13  C   UNL     1       2.051  12.781  19.062  0.00  0.00    +0.000 C 
ATOM     14  C   UNL     1       1.449  14.167  18.975  0.00  0.00    +0.000 A 
ATOM     15  C   UNL     1       2.284  15.221  18.566  0.00  0.00    +0.000 A 
ATOM     16  C   UNL     1       1.770  16.497  18.374  0.00  0.00    +0.000 A 
ATOM     17  C   UNL     1       0.417  16.685  18.565  0.00  0.00    +0.000 A 
ATOM     18  N   UNL     1      -0.419  15.705  18.960  0.00  0.00    +0.000 NA
ATOM     19  C   UNL     1       0.103  14.469  19.197  0.00  0.00    +0.000 A 
ATOM     20  C   UNL     1      -2.806  12.869  21.278  0.00  0.00    +0.000 C 
ATOM     21  C   UNL     1      -4.137  13.646  21.167  0.00  0.00    +0.000 C 
ENDROOT
BRANCH  10  22
ATOM     22  N   UNL     1       1.438   9.285  18.336  0.00  0.00    +0.000 N 
ATOM     23  O   UNL     1       1.594   8.562  19.334  0.00  0.00    +0.000 OA
ATOM     24  O   UNL     1       2.176   9.296  17.341  0.00  0.00    +0.000 OA
ENDBRANCH  10  22
BRANCH   1  25
ATOM     25  C   UNL     1      -4.649  15.081  23.107  0.00  0.00    +0.000 C 
BRANCH  25  26
ATOM     26  C   UNL     1      -5.308  13.764  23.553  0.00  0.00    +0.000 C 
BRANCH  26  28
ATOM     27  O   UNL     1      -4.315  11.830  24.638  0.00  0.00    +0.000 OA
ATOM     28  C   UNL     1      -4.454  13.040  24.564  0.00  0.00    +0.000 C 
BRANCH  28  29
ATOM     29  O   UNL     1      -3.824  13.888  25.414  0.00  0.00    +0.000 OA
ATOM     30  H   UNL     1      -2.918  13.612  25.652  0.00  0.00    +0.000 HD
ENDBRANCH  28  29
ENDBRANCH  26  28
ENDBRANCH  25  26
ENDBRANCH   1  25
TORSDOF 5
ENDMDL
MODEL 6
REMARK VINA RESULT:      -6.6      7.424     11.832
REMARK  Name = 
REMARK  5 active torsions:
REMARK  status: ('A' for Active; 'I' for Inactive)
REMARK    1  A    between atoms: C_2  and  O_3
REMARK    2  A    between atoms: C_2  and  C_4
REMARK    3  A    between atoms: C_4  and  C_5
REMARK    4  A    between atoms: C_5  and  N_6
REMARK    5  A    between atoms: C_15  and  N_16
REMARK                            x       y       z     vdW  Elec       q    Type
REMARK                         _______ _______ _______ _____ _____    ______ ____
ROOT
ATOM      1  N   UNL     1      -4.243  14.094  23.928  0.00  0.00    +0.000 NA
ATOM      2  C   UNL     1      -3.794  12.728  23.595  0.00  0.00    +0.000 C 
ATOM      3  C   UNL     1      -3.140  12.551  22.216  0.00  0.00    +0.000 C 
ATOM      4  C   UNL     1      -2.004  13.548  22.044  0.00  0.00    +0.000 C 
ATOM      5  C   UNL     1      -0.684  13.227  21.899  0.00  0.00    +0.000 C 
ATOM      6  C   UNL     1       0.352  14.255  21.608  0.00  0.00    +0.000 A 
ATOM      7  C   UNL     1       0.745  15.217  22.546  0.00  0.00    +0.000 A 
ATOM      8  C   UNL     1       1.775  16.125  22.254  0.00  0.00    +0.000 A 
ATOM      9  C   UNL     1       2.425  16.073  21.022  0.00  0.00    +0.000 A 
ATOM     10  C   UNL     1       2.047  15.096  20.093  0.00  0.00    +0.000 A 
ATOM     11  C   UNL     1       1.038  14.172  20.383  0.00  0.00    +0.000 A 
ATOM     12  O   UNL     1       0.647  13.221  19.479  0.00  0.00    +0.000 OA
ATOM     13  C   UNL     1       1.176  11.932  19.828  0.00  0.00    +0.000 C 
ATOM     14  C   UNL     1       0.548  11.204  20.997  0.00  0.00    +0.000 A 
ATOM     15  C   UNL     1       0.857   9.844  21.166  0.00  0.00    +0.000 A 
ATOM     16  C   UNL     1       0.390   9.144  22.273  0.00  0.00    +0.000 A 
ATOM     17  C   UNL     1      -0.353   9.834  23.207  0.00  0.00    +0.000 A 
ATOM     18  N   UNL     1      -0.677  11.135  23.083  0.00  0.00    +0.000 NA
ATOM     19  C   UNL     1      -0.260  11.800  21.969  0.00  0.00    +0.000 A 
ATOM     20  C   UNL     1      -2.610  14.933  22.103  0.00  0.00    +0.000 C 
ATOM     21  C   UNL     1      -3.287  15.131  23.478  0.00  0.00    +0.000 C 
ENDROOT
BRANCH  10  22
ATOM     22  N   UNL     1       2.759  15.035  18.835  0.00  0.00    +0.000 N 
ATOM     23  O   UNL     1       2.412  15.835  17.951  0.00  0.00    +0.000 OA
ATOM     24  O   UNL     1       3.704  14.238  18.746  0.00  0.00    +0.000 OA
ENDBRANCH  10  22
BRANCH   1  25
ATOM     25  C   UNL     1      -5.639  14.394  23.576  0.00  0.00    +0.000 C 
BRANCH  25  26
ATOM     26  C   UNL     1      -6.345  13.188  22.931  0.00  0.00    +0.000 C 
BRANCH  26  28
ATOM     27  O   UNL     1      -7.677  11.392  23.882  0.00  0.00    +0.000 OA
ATOM     28  C   UNL     1      -7.340  12.565  23.879  0.00  0.00    +0.000 C 
BRANCH  28  29
ATOM     29  O   UNL     1      -7.841  13.458  24.767  0.00  0.00    +0.000 OA
ATOM     30  H   UNL     1      -8.744  13.248  25.075  0.00  0.00    +0.000 HD
ENDBRANCH  28  29
ENDBRANCH  26  28
ENDBRANCH  25  26
ENDBRANCH   1  25
TORSDOF 5
ENDMDL
MODEL 7
REMARK VINA RESULT:      -6.6      6.271     11.936
REMARK  Name = 
REMARK  5 active torsions:
REMARK  status: ('A' for Active; 'I' for Inactive)
REMARK    1  A    between atoms: C_2  and  O_3
REMARK    2  A    between atoms: C_2  and  C_4
REMARK    3  A    between atoms: C_4  and  C_5
REMARK    4  A    between atoms: C_5  and  N_6
REMARK    5  A    between atoms: C_15  and  N_16
REMARK                            x       y       z     vdW  Elec       q    Type
REMARK                         _______ _______ _______ _____ _____    ______ ____
ROOT
ATOM      1  N   UNL     1      -4.310  14.252  22.613  0.00  0.00    +0.000 NA
ATOM      2  C   UNL     1      -3.144  15.125  22.375  0.00  0.00    +0.000 C 
ATOM      3  C   UNL     1      -1.774  14.429  22.349  0.00  0.00    +0.000 C 
ATOM      4  C   UNL     1      -1.794  13.274  21.359  0.00  0.00    +0.000 C 
ATOM      5  C   UNL     1      -1.039  13.192  20.223  0.00  0.00    +0.000 C 
ATOM      6  C   UNL     1      -1.021  11.972  19.372  0.00  0.00    +0.000 A 
ATOM      7  C   UNL     1      -2.121  11.570  18.605  0.00  0.00    +0.000 A 
ATOM      8  C   UNL     1      -2.037  10.449  17.763  0.00  0.00    +0.000 A 
ATOM      9  C   UNL     1      -0.850   9.726  17.677  0.00  0.00    +0.000 A 
ATOM     10  C   UNL     1       0.257  10.142  18.427  0.00  0.00    +0.000 A 
ATOM     11  C   UNL     1       0.192  11.269  19.252  0.00  0.00    +0.000 A 
ATOM     12  O   UNL     1       1.261  11.679  20.002  0.00  0.00    +0.000 OA
ATOM     13  C   UNL     1       1.898  12.822  19.410  0.00  0.00    +0.000 C 
ATOM     14  C   UNL     1       1.197  14.158  19.521  0.00  0.00    +0.000 A 
ATOM     15  C   UNL     1       1.931  15.314  19.203  0.00  0.00    +0.000 A 
ATOM     16  C   UNL     1       1.318  16.561  19.192  0.00  0.00    +0.000 A 
ATOM     17  C   UNL     1      -0.031  16.621  19.470  0.00  0.00    +0.000 A 
ATOM     18  N   UNL     1      -0.773  15.540  19.783  0.00  0.00    +0.000 NA
ATOM     19  C   UNL     1      -0.152  14.329  19.843  0.00  0.00    +0.000 A 
ATOM     20  C   UNL     1      -2.819  12.277  21.852  0.00  0.00    +0.000 C 
ATOM     21  C   UNL     1      -4.205  12.958  21.900  0.00  0.00    +0.000 C 
ENDROOT
BRANCH  10  22
ATOM     22  N   UNL     1       1.492   9.399  18.296  0.00  0.00    +0.000 N 
ATOM     23  O   UNL     1       1.765   8.594  19.201  0.00  0.00    +0.000 OA
ATOM     24  O   UNL     1       2.158   9.566  17.264  0.00  0.00    +0.000 OA
ENDBRANCH  10  22
BRANCH   1  25
ATOM     25  C   UNL     1      -4.705  14.112  24.023  0.00  0.00    +0.000 C 
BRANCH  25  26
ATOM     26  C   UNL     1      -5.440  12.787  24.290  0.00  0.00    +0.000 C 
BRANCH  26  28
ATOM     27  O   UNL     1      -7.723  12.093  23.829  0.00  0.00    +0.000 OA
ATOM     28  C   UNL     1      -6.935  12.958  24.177  0.00  0.00    +0.000 C 
BRANCH  28  29
ATOM     29  O   UNL     1      -7.342  14.206  24.515  0.00  0.00    +0.000 OA
ATOM     30  H   UNL     1      -8.308  14.337  24.460  0.00  0.00    +0.000 HD
ENDBRANCH  28  29
ENDBRANCH  26  28
ENDBRANCH  25  26
ENDBRANCH   1  25
TORSDOF 5
ENDMDL
MODEL 8
REMARK VINA RESULT:      -6.5      9.261     12.263
REMARK  Name = 
REMARK  5 active torsions:
REMARK  status: ('A' for Active; 'I' for Inactive)
REMARK    1  A    between atoms: C_2  and  O_3
REMARK    2  A    between atoms: C_2  and  C_4
REMARK    3  A    between atoms: C_4  and  C_5
REMARK    4  A    between atoms: C_5  and  N_6
REMARK    5  A    between atoms: C_15  and  N_16
REMARK                            x       y       z     vdW  Elec       q    Type
REMARK                         _______ _______ _______ _____ _____    ______ ____
ROOT
ATOM      1  N   UNL     1       8.093  12.388  25.092  0.00  0.00    +0.000 NA
ATOM      2  C   UNL     1       7.974  11.581  23.862  0.00  0.00    +0.000 C 
ATOM      3  C   UNL     1       7.409  12.307  22.631  0.00  0.00    +0.000 C 
ATOM      4  C   UNL     1       8.200  13.579  22.366  0.00  0.00    +0.000 C 
ATOM      5  C   UNL     1       8.956  13.826  21.255  0.00  0.00    +0.000 C 
ATOM      6  C   UNL     1       9.597  15.146  21.011  0.00  0.00    +0.000 A 
ATOM      7  C   UNL     1      10.669  15.618  21.778  0.00  0.00    +0.000 A 
ATOM      8  C   UNL     1      11.289  16.839  21.469  0.00  0.00    +0.000 A 
ATOM      9  C   UNL     1      10.844  17.596  20.388  0.00  0.00    +0.000 A 
ATOM     10  C   UNL     1       9.786  17.113  19.607  0.00  0.00    +0.000 A 
ATOM     11  C   UNL     1       9.177  15.887  19.892  0.00  0.00    +0.000 A 
ATOM     12  O   UNL     1       8.132  15.410  19.147  0.00  0.00    +0.000 OA
ATOM     13  C   UNL     1       8.567  14.368  18.258  0.00  0.00    +0.000 C 
ATOM     14  C   UNL     1       8.875  13.013  18.856  0.00  0.00    +0.000 A 
ATOM     15  C   UNL     1       9.022  11.925  17.977  0.00  0.00    +0.000 A 
ATOM     16  C   UNL     1       9.399  10.676  18.453  0.00  0.00    +0.000 A 
ATOM     17  C   UNL     1       9.654  10.549  19.803  0.00  0.00    +0.000 A 
ATOM     18  N   UNL     1       9.523  11.561  20.681  0.00  0.00    +0.000 NA
ATOM     19  C   UNL     1       9.101  12.769  20.213  0.00  0.00    +0.000 A 
ATOM     20  C   UNL     1       8.018  14.479  23.568  0.00  0.00    +0.000 C 
ATOM     21  C   UNL     1       8.567  13.765  24.824  0.00  0.00    +0.000 C 
ENDROOT
BRANCH  10  22
ATOM     22  N   UNL     1       9.364  17.896  18.467  0.00  0.00    +0.000 N 
ATOM     23  O   UNL     1       8.245  18.430  18.531  0.00  0.00    +0.000 OA
ATOM     24  O   UNL     1      10.168  18.035  17.533  0.00  0.00    +0.000 OA
ENDBRANCH  10  22
BRANCH   1  25
ATOM     25  C   UNL     1       6.927  12.335  25.986  0.00  0.00    +0.000 C 
BRANCH  25  26
ATOM     26  C   UNL     1       5.851  11.359  25.478  0.00  0.00    +0.000 C 
BRANCH  26  28
ATOM     27  O   UNL     1       5.037  11.195  27.762  0.00  0.00    +0.000 OA
ATOM     28  C   UNL     1       5.074  10.757  26.623  0.00  0.00    +0.000 C 
BRANCH  28  29
ATOM     29  O   UNL     1       4.388   9.646  26.258  0.00  0.00    +0.000 OA
ATOM     30  H   UNL     1       4.835   9.110  25.575  0.00  0.00    +0.000 HD
ENDBRANCH  28  29
ENDBRANCH  26  28
ENDBRANCH  25  26
ENDBRANCH   1  25
TORSDOF 5
ENDMDL
MODEL 9
REMARK VINA RESULT:      -6.4      6.424      8.750
REMARK  Name = 
REMARK  5 active torsions:
REMARK  status: ('A' for Active; 'I' for Inactive)
REMARK    1  A    between atoms: C_2  and  O_3
REMARK    2  A    between atoms: C_2  and  C_4
REMARK    3  A    between atoms: C_4  and  C_5
REMARK    4  A    between atoms: C_5  and  N_6
REMARK    5  A    between atoms: C_15  and  N_16
REMARK                            x       y       z     vdW  Elec       q    Type
REMARK                         _______ _______ _______ _____ _____    ______ ____
ROOT
ATOM      1  N   UNL     1       2.010  14.751  18.291  0.00  0.00    +0.000 NA
ATOM      2  C   UNL     1       2.371  13.413  18.798  0.00  0.00    +0.000 C 
ATOM      3  C   UNL     1       2.026  13.134  20.269  0.00  0.00    +0.000 C 
ATOM      4  C   UNL     1       0.557  13.430  20.527  0.00  0.00    +0.000 C 
ATOM      5  C   UNL     1      -0.384  12.509  20.893  0.00  0.00    +0.000 C 
ATOM      6  C   UNL     1      -1.775  12.899  21.250  0.00  0.00    +0.000 A 
ATOM      7  C   UNL     1      -2.691  13.379  20.306  0.00  0.00    +0.000 A 
ATOM      8  C   UNL     1      -4.014  13.669  20.674  0.00  0.00    +0.000 A 
ATOM      9  C   UNL     1      -4.433  13.478  21.989  0.00  0.00    +0.000 A 
ATOM     10  C   UNL     1      -3.523  12.977  22.928  0.00  0.00    +0.000 A 
ATOM     11  C   UNL     1      -2.209  12.662  22.567  0.00  0.00    +0.000 A 
ATOM     12  O   UNL     1      -1.304  12.186  23.478  0.00  0.00    +0.000 OA
ATOM     13  C   UNL     1      -1.109  10.771  23.318  0.00  0.00    +0.000 C 
ATOM     14  C   UNL     1      -0.297  10.300  22.132  0.00  0.00    +0.000 A 
ATOM     15  C   UNL     1       0.137   8.963  22.123  0.00  0.00    +0.000 A 
ATOM     16  C   UNL     1       0.803   8.442  21.020  0.00  0.00    +0.000 A 
ATOM     17  C   UNL     1       0.995   9.267  19.932  0.00  0.00    +0.000 A 
ATOM     18  N   UNL     1       0.601  10.555  19.899  0.00  0.00    +0.000 NA
ATOM     19  C   UNL     1      -0.005  11.072  21.004  0.00  0.00    +0.000 A 
ATOM     20  C   UNL     1       0.343  14.904  20.264  0.00  0.00    +0.000 C 
ATOM     21  C   UNL     1       0.696  15.213  18.792  0.00  0.00    +0.000 C 
ENDROOT
BRANCH  10  22
ATOM     22  N   UNL     1      -3.988  12.750  24.279  0.00  0.00    +0.000 N 
ATOM     23  O   UNL     1      -4.602  11.692  24.494  0.00  0.00    +0.000 OA
ATOM     24  O   UNL     1      -3.689  13.589  25.140  0.00  0.00    +0.000 OA
ENDBRANCH  10  22
BRANCH   1  25
ATOM     25  C   UNL     1       3.069  15.766  18.404  0.00  0.00    +0.000 C 
BRANCH  25  26
ATOM     26  C   UNL     1       4.218  15.518  17.411  0.00  0.00    +0.000 C 
BRANCH  26  28
ATOM     27  O   UNL     1       6.332  14.335  17.599  0.00  0.00    +0.000 OA
ATOM     28  C   UNL     1       5.447  14.998  18.115  0.00  0.00    +0.000 C 
BRANCH  28  29
ATOM     29  O   UNL     1       5.485  15.351  19.423  0.00  0.00    +0.000 OA
ATOM     30  H   UNL     1       5.577  16.311  19.573  0.00  0.00    +0.000 HD
ENDBRANCH  28  29
ENDBRANCH  26  28
ENDBRANCH  25  26
ENDBRANCH   1  25
TORSDOF 5
ENDMDL
