MODEL 1
REMARK VINA RESULT:      -6.0      0.000      0.000
REMARK  Name = 
REMARK  4 active torsions:
REMARK  status: ('A' for Active; 'I' for Inactive)
REMARK    1  A    between atoms: C_1  and  C_2
REMARK    2  A    between atoms: C_2  and  O_3
REMARK    3  A    between atoms: O_3  and  C_4
REMARK    4  A    between atoms: C_9  and  N_10
REMARK                            x       y       z     vdW  Elec       q    Type
REMARK                         _______ _______ _______ _____ _____    ______ ____
ROOT
ATOM      1  C   UNL     1       4.568   3.191  19.499  0.00  0.00    +0.000 C 
ATOM      2  O   UNL     1       4.695   2.271  20.301  0.00  0.00    +0.000 OA
ATOM      3  N   UNL     1       5.573   3.480  18.617  0.00  0.00    +0.000 N 
ATOM      4  C   UNL     1       5.597   4.478  17.636  0.00  0.00    +0.000 A 
ATOM      5  C   UNL     1       6.575   4.394  16.665  0.00  0.00    +0.000 A 
ATOM      6  C   UNL     1       6.574   5.378  15.702  0.00  0.00    +0.000 A 
ATOM      7  N   UNL     1       5.714   6.399  15.706  0.00  0.00    +0.000 NA
ATOM      8  C   UNL     1       4.817   6.399  16.698  0.00  0.00    +0.000 A 
ATOM      9  N   UNL     1       4.708   5.477  17.660  0.00  0.00    +0.000 NA
ATOM     10  H   UNL     1       6.335   2.823  18.661  0.00  0.00    +0.000 HD
ENDROOT
BRANCH   6  11
ATOM     11  N   UNL     1       7.517   5.369  14.675  0.00  0.00    +0.000 N 
ATOM     12  H   UNL     1       7.113   5.090  13.789  0.00  0.00    +0.000 HD
ATOM     13  H   UNL     1       7.911   6.306  14.625  0.00  0.00    +0.000 HD
ENDBRANCH   6  11
BRANCH   1  14
ATOM     14  O   UNL     1       3.429   3.902  19.319  0.00  0.00    +0.000 OA
BRANCH  14  16
ATOM     15  C   UNL     1       1.252   3.519  20.243  0.00  0.00    +0.000 C 
ATOM     16  C   UNL     1       2.227   3.146  19.140  0.00  0.00    +0.000 C 
ENDBRANCH  14  16
ENDBRANCH   1  14
TORSDOF 3
ENDMDL
MODEL 2
REMARK VINA RESULT:      -5.8      2.806      4.855
REMARK  Name = 
REMARK  4 active torsions:
REMARK  status: ('A' for Active; 'I' for Inactive)
REMARK    1  A    between atoms: C_1  and  C_2
REMARK    2  A    between atoms: C_2  and  O_3
REMARK    3  A    between atoms: O_3  and  C_4
REMARK    4  A    between atoms: C_9  and  N_10
REMARK                            x       y       z     vdW  Elec       q    Type
REMARK                         _______ _______ _______ _____ _____    ______ ____
ROOT
ATOM      1  C   UNL     1       6.777   4.684  17.182  0.00  0.00    +0.000 C 
ATOM      2  O   UNL     1       7.919   4.411  16.823  0.00  0.00    +0.000 OA
ATOM      3  N   UNL     1       5.805   3.721  17.177  0.00  0.00    +0.000 N 
ATOM      4  C   UNL     1       4.465   3.848  17.559  0.00  0.00    +0.000 A 
ATOM      5  C   UNL     1       3.747   2.686  17.762  0.00  0.00    +0.000 A 
ATOM      6  C   UNL     1       2.434   2.833  18.149  0.00  0.00    +0.000 A 
ATOM      7  N   UNL     1       1.843   4.022  18.285  0.00  0.00    +0.000 NA
ATOM      8  C   UNL     1       2.619   5.087  18.048  0.00  0.00    +0.000 A 
ATOM      9  N   UNL     1       3.911   5.057  17.702  0.00  0.00    +0.000 NA
ATOM     10  H   UNL     1       6.158   2.808  16.938  0.00  0.00    +0.000 HD
ENDROOT
BRANCH   6  11
ATOM     11  N   UNL     1       1.634   1.716  18.389  0.00  0.00    +0.000 N 
ATOM     12  H   UNL     1       2.180   0.866  18.473  0.00  0.00    +0.000 HD
ATOM     13  H   UNL     1       1.107   1.904  19.240  0.00  0.00    +0.000 HD
ENDBRANCH   6  11
BRANCH   1  14
ATOM     14  O   UNL     1       6.402   5.870  17.719  0.00  0.00    +0.000 OA
BRANCH  14  16
ATOM     15  C   UNL     1       7.796   7.818  17.744  0.00  0.00    +0.000 C 
ATOM     16  C   UNL     1       6.742   7.043  16.972  0.00  0.00    +0.000 C 
ENDBRANCH  14  16
ENDBRANCH   1  14
TORSDOF 3
ENDMDL
MODEL 3
REMARK VINA RESULT:      -5.8      1.673      2.156
REMARK  Name = 
REMARK  4 active torsions:
REMARK  status: ('A' for Active; 'I' for Inactive)
REMARK    1  A    between atoms: C_1  and  C_2
REMARK    2  A    between atoms: C_2  and  O_3
REMARK    3  A    between atoms: O_3  and  C_4
REMARK    4  A    between atoms: C_9  and  N_10
REMARK                            x       y       z     vdW  Elec       q    Type
REMARK                         _______ _______ _______ _____ _____    ______ ____
ROOT
ATOM      1  C   UNL     1       2.752   3.710  17.779  0.00  0.00    +0.000 C 
ATOM      2  O   UNL     1       1.600   3.337  17.582  0.00  0.00    +0.000 OA
ATOM      3  N   UNL     1       3.633   3.806  16.736  0.00  0.00    +0.000 N 
ATOM      4  C   UNL     1       4.970   4.218  16.772  0.00  0.00    +0.000 A 
ATOM      5  C   UNL     1       5.574   4.530  15.570  0.00  0.00    +0.000 A 
ATOM      6  C   UNL     1       6.885   4.945  15.629  0.00  0.00    +0.000 A 
ATOM      7  N   UNL     1       7.578   5.010  16.769  0.00  0.00    +0.000 NA
ATOM      8  C   UNL     1       6.908   4.671  17.876  0.00  0.00    +0.000 A 
ATOM      9  N   UNL     1       5.627   4.289  17.935  0.00  0.00    +0.000 NA
ATOM     10  H   UNL     1       3.204   3.624  15.842  0.00  0.00    +0.000 HD
ENDROOT
BRANCH   6  11
ATOM     11  N   UNL     1       7.575   5.292  14.468  0.00  0.00    +0.000 N 
ATOM     12  H   UNL     1       6.978   5.760  13.795  0.00  0.00    +0.000 HD
ATOM     13  H   UNL     1       8.353   5.884  14.749  0.00  0.00    +0.000 HD
ENDBRANCH   6  11
BRANCH   1  14
ATOM     14  O   UNL     1       3.221   4.168  18.964  0.00  0.00    +0.000 OA
BRANCH  14  16
ATOM     15  C   UNL     1       1.817   4.726  20.824  0.00  0.00    +0.000 C 
ATOM     16  C   UNL     1       2.491   5.244  19.565  0.00  0.00    +0.000 C 
ENDBRANCH  14  16
ENDBRANCH   1  14
TORSDOF 3
ENDMDL
MODEL 4
REMARK VINA RESULT:      -5.8      1.261      1.261
REMARK  Name = 
REMARK  4 active torsions:
REMARK  status: ('A' for Active; 'I' for Inactive)
REMARK    1  A    between atoms: C_1  and  C_2
REMARK    2  A    between atoms: C_2  and  O_3
REMARK    3  A    between atoms: O_3  and  C_4
REMARK    4  A    between atoms: C_9  and  N_10
REMARK                            x       y       z     vdW  Elec       q    Type
REMARK                         _______ _______ _______ _____ _____    ______ ____
ROOT
ATOM      1  C   UNL     1       3.287   2.672  18.085  0.00  0.00    +0.000 C 
ATOM      2  O   UNL     1       3.056   1.557  18.543  0.00  0.00    +0.000 OA
ATOM      3  N   UNL     1       4.486   2.933  17.481  0.00  0.00    +0.000 N 
ATOM      4  C   UNL     1       4.914   4.132  16.899  0.00  0.00    +0.000 A 
ATOM      5  C   UNL     1       6.028   4.083  16.084  0.00  0.00    +0.000 A 
ATOM      6  C   UNL     1       6.425   5.271  15.512  0.00  0.00    +0.000 A 
ATOM      7  N   UNL     1       5.814   6.434  15.750  0.00  0.00    +0.000 NA
ATOM      8  C   UNL     1       4.757   6.379  16.568  0.00  0.00    +0.000 A 
ATOM      9  N   UNL     1       4.267   5.276  17.146  0.00  0.00    +0.000 NA
ATOM     10  H   UNL     1       5.070   2.116  17.395  0.00  0.00    +0.000 HD
ENDROOT
BRANCH   6  11
ATOM     11  N   UNL     1       7.532   5.318  14.665  0.00  0.00    +0.000 N 
ATOM     12  H   UNL     1       7.300   5.039  13.719  0.00  0.00    +0.000 HD
ATOM     13  H   UNL     1       7.890   6.270  14.695  0.00  0.00    +0.000 HD
ENDBRANCH   6  11
BRANCH   1  14
ATOM     14  O   UNL     1       2.381   3.677  18.014  0.00  0.00    +0.000 OA
BRANCH  14  16
ATOM     15  C   UNL     1       1.637   4.562  20.112  0.00  0.00    +0.000 C 
ATOM     16  C   UNL     1       1.305   3.633  18.957  0.00  0.00    +0.000 C 
ENDBRANCH  14  16
ENDBRANCH   1  14
TORSDOF 3
ENDMDL
MODEL 5
REMARK VINA RESULT:      -5.7      1.197      1.197
REMARK  Name = 
REMARK  4 active torsions:
REMARK  status: ('A' for Active; 'I' for Inactive)
REMARK    1  A    between atoms: C_1  and  C_2
REMARK    2  A    between atoms: C_2  and  O_3
REMARK    3  A    between atoms: O_3  and  C_4
REMARK    4  A    between atoms: C_9  and  N_10
REMARK                            x       y       z     vdW  Elec       q    Type
REMARK                         _______ _______ _______ _____ _____    ______ ____
ROOT
ATOM      1  C   UNL     1       4.525   2.695  19.753  0.00  0.00    +0.000 C 
ATOM      2  O   UNL     1       4.783   1.741  20.481  0.00  0.00    +0.000 OA
ATOM      3  N   UNL     1       5.523   3.537  19.341  0.00  0.00    +0.000 N 
ATOM      4  C   UNL     1       5.416   4.658  18.511  0.00  0.00    +0.000 A 
ATOM      5  C   UNL     1       6.583   5.174  17.984  0.00  0.00    +0.000 A 
ATOM      6  C   UNL     1       6.455   6.269  17.159  0.00  0.00    +0.000 A 
ATOM      7  N   UNL     1       5.282   6.852  16.899  0.00  0.00    +0.000 NA
ATOM      8  C   UNL     1       4.213   6.287  17.472  0.00  0.00    +0.000 A 
ATOM      9  N   UNL     1       4.222   5.205  18.258  0.00  0.00    +0.000 NA
ATOM     10  H   UNL     1       6.439   3.231  19.630  0.00  0.00    +0.000 HD
ENDROOT
BRANCH   6  11
ATOM     11  N   UNL     1       7.576   6.853  16.571  0.00  0.00    +0.000 N 
ATOM     12  H   UNL     1       7.352   7.721  16.099  0.00  0.00    +0.000 HD
ATOM     13  H   UNL     1       8.259   6.999  17.312  0.00  0.00    +0.000 HD
ENDBRANCH   6  11
BRANCH   1  14
ATOM     14  O   UNL     1       3.313   2.934  19.198  0.00  0.00    +0.000 OA
BRANCH  14  16
ATOM     15  C   UNL     1       1.356   3.700  20.347  0.00  0.00    +0.000 C 
ATOM     16  C   UNL     1       2.173   2.486  19.939  0.00  0.00    +0.000 C 
ENDBRANCH  14  16
ENDBRANCH   1  14
TORSDOF 3
ENDMDL
MODEL 6
REMARK VINA RESULT:      -5.7      2.629      5.036
REMARK  Name = 
REMARK  4 active torsions:
REMARK  status: ('A' for Active; 'I' for Inactive)
REMARK    1  A    between atoms: C_1  and  C_2
REMARK    2  A    between atoms: C_2  and  O_3
REMARK    3  A    between atoms: O_3  and  C_4
REMARK    4  A    between atoms: C_9  and  N_10
REMARK                            x       y       z     vdW  Elec       q    Type
REMARK                         _______ _______ _______ _____ _____    ______ ____
ROOT
ATOM      1  C   UNL     1       6.640   4.420  17.915  0.00  0.00    +0.000 C 
ATOM      2  O   UNL     1       7.808   4.625  18.232  0.00  0.00    +0.000 OA
ATOM      3  N   UNL     1       5.774   3.849  18.808  0.00  0.00    +0.000 N 
ATOM      4  C   UNL     1       4.419   3.554  18.624  0.00  0.00    +0.000 A 
ATOM      5  C   UNL     1       3.671   3.267  19.748  0.00  0.00    +0.000 A 
ATOM      6  C   UNL     1       2.337   2.991  19.547  0.00  0.00    +0.000 A 
ATOM      7  N   UNL     1       1.776   2.950  18.336  0.00  0.00    +0.000 NA
ATOM      8  C   UNL     1       2.589   3.225  17.310  0.00  0.00    +0.000 A 
ATOM      9  N   UNL     1       3.886   3.540  17.397  0.00  0.00    +0.000 NA
ATOM     10  H   UNL     1       6.182   3.715  19.720  0.00  0.00    +0.000 HD
ENDROOT
BRANCH   6  11
ATOM     11  N   UNL     1       1.500   2.701  20.624  0.00  0.00    +0.000 N 
ATOM     12  H   UNL     1       1.570   3.395  21.359  0.00  0.00    +0.000 HD
ATOM     13  H   UNL     1       0.552   2.642  20.258  0.00  0.00    +0.000 HD
ENDBRANCH   6  11
BRANCH   1  14
ATOM     14  O   UNL     1       6.074   4.831  16.755  0.00  0.00    +0.000 OA
BRANCH  14  16
ATOM     15  C   UNL     1       6.075   4.038  14.494  0.00  0.00    +0.000 C 
ATOM     16  C   UNL     1       6.884   4.728  15.579  0.00  0.00    +0.000 C 
ENDBRANCH  14  16
ENDBRANCH   1  14
TORSDOF 3
ENDMDL
MODEL 7
REMARK VINA RESULT:      -5.7      1.512      1.668
REMARK  Name = 
REMARK  4 active torsions:
REMARK  status: ('A' for Active; 'I' for Inactive)
REMARK    1  A    between atoms: C_1  and  C_2
REMARK    2  A    between atoms: C_2  and  O_3
REMARK    3  A    between atoms: O_3  and  C_4
REMARK    4  A    between atoms: C_9  and  N_10
REMARK                            x       y       z     vdW  Elec       q    Type
REMARK                         _______ _______ _______ _____ _____    ______ ____
ROOT
ATOM      1  C   UNL     1       3.846   2.881  18.237  0.00  0.00    +0.000 C 
ATOM      2  O   UNL     1       3.104   1.906  18.319  0.00  0.00    +0.000 OA
ATOM      3  N   UNL     1       4.693   3.014  17.171  0.00  0.00    +0.000 N 
ATOM      4  C   UNL     1       5.592   4.053  16.909  0.00  0.00    +0.000 A 
ATOM      5  C   UNL     1       6.119   4.136  15.636  0.00  0.00    +0.000 A 
ATOM      6  C   UNL     1       6.992   5.173  15.396  0.00  0.00    +0.000 A 
ATOM      7  N   UNL     1       7.365   6.043  16.337  0.00  0.00    +0.000 NA
ATOM      8  C   UNL     1       6.812   5.867  17.543  0.00  0.00    +0.000 A 
ATOM      9  N   UNL     1       5.929   4.918  17.872  0.00  0.00    +0.000 NA
ATOM     10  H   UNL     1       4.565   2.295  16.475  0.00  0.00    +0.000 HD
ENDROOT
BRANCH   6  11
ATOM     11  N   UNL     1       7.566   5.343  14.137  0.00  0.00    +0.000 N 
ATOM     12  H   UNL     1       7.111   6.078  13.606  0.00  0.00    +0.000 HD
ATOM     13  H   UNL     1       8.552   5.547  14.283  0.00  0.00    +0.000 HD
ENDBRANCH   6  11
BRANCH   1  14
ATOM     14  O   UNL     1       3.818   3.942  19.078  0.00  0.00    +0.000 OA
BRANCH  14  16
ATOM     15  C   UNL     1       2.213   5.401  18.060  0.00  0.00    +0.000 C 
ATOM     16  C   UNL     1       2.543   4.561  19.282  0.00  0.00    +0.000 C 
ENDBRANCH  14  16
ENDBRANCH   1  14
TORSDOF 3
ENDMDL
MODEL 8
REMARK VINA RESULT:      -5.6      2.978      4.875
REMARK  Name = 
REMARK  4 active torsions:
REMARK  status: ('A' for Active; 'I' for Inactive)
REMARK    1  A    between atoms: C_1  and  C_2
REMARK    2  A    between atoms: C_2  and  O_3
REMARK    3  A    between atoms: O_3  and  C_4
REMARK    4  A    between atoms: C_9  and  N_10
REMARK                            x       y       z     vdW  Elec       q    Type
REMARK                         _______ _______ _______ _____ _____    ______ ____
ROOT
ATOM      1  C   UNL     1       6.595   5.555  15.889  0.00  0.00    +0.000 C 
ATOM      2  O   UNL     1       7.590   5.452  15.178  0.00  0.00    +0.000 OA
ATOM      3  N   UNL     1       5.739   4.498  16.033  0.00  0.00    +0.000 N 
ATOM      4  C   UNL     1       4.572   4.433  16.803  0.00  0.00    +0.000 A 
ATOM      5  C   UNL     1       4.035   3.184  17.042  0.00  0.00    +0.000 A 
ATOM      6  C   UNL     1       2.895   3.141  17.813  0.00  0.00    +0.000 A 
ATOM      7  N   UNL     1       2.290   4.235  18.281  0.00  0.00    +0.000 NA
ATOM      8  C   UNL     1       2.879   5.398  17.980  0.00  0.00    +0.000 A 
ATOM      9  N   UNL     1       4.004   5.549  17.272  0.00  0.00    +0.000 NA
ATOM     10  H   UNL     1       6.066   3.662  15.575  0.00  0.00    +0.000 HD
ENDROOT
BRANCH   6  11
ATOM     11  N   UNL     1       2.287   1.923  18.116  0.00  0.00    +0.000 N 
ATOM     12  H   UNL     1       1.364   1.844  17.705  0.00  0.00    +0.000 HD
ATOM     13  H   UNL     1       2.907   1.189  17.782  0.00  0.00    +0.000 HD
ENDBRANCH   6  11
BRANCH   1  14
ATOM     14  O   UNL     1       6.318   6.624  16.674  0.00  0.00    +0.000 OA
BRANCH  14  16
ATOM     15  C   UNL     1       7.673   6.232  18.610  0.00  0.00    +0.000 C 
ATOM     16  C   UNL     1       7.407   7.157  17.435  0.00  0.00    +0.000 C 
ENDBRANCH  14  16
ENDBRANCH   1  14
TORSDOF 3
ENDMDL
MODEL 9
REMARK VINA RESULT:      -5.6      1.532      1.825
REMARK  Name = 
REMARK  4 active torsions:
REMARK  status: ('A' for Active; 'I' for Inactive)
REMARK    1  A    between atoms: C_1  and  C_2
REMARK    2  A    between atoms: C_2  and  O_3
REMARK    3  A    between atoms: O_3  and  C_4
REMARK    4  A    between atoms: C_9  and  N_10
REMARK                            x       y       z     vdW  Elec       q    Type
REMARK                         _______ _______ _______ _____ _____    ______ ____
ROOT
ATOM      1  C   UNL     1       3.575   2.625  19.004  0.00  0.00    +0.000 C 
ATOM      2  O   UNL     1       2.777   1.716  18.791  0.00  0.00    +0.000 OA
ATOM      3  N   UNL     1       4.436   3.029  18.020  0.00  0.00    +0.000 N 
ATOM      4  C   UNL     1       5.396   4.045  18.081  0.00  0.00    +0.000 A 
ATOM      5  C   UNL     1       5.936   4.484  16.888  0.00  0.00    +0.000 A 
ATOM      6  C   UNL     1       6.870   5.493  16.968  0.00  0.00    +0.000 A 
ATOM      7  N   UNL     1       7.286   6.009  18.127  0.00  0.00    +0.000 NA
ATOM      8  C   UNL     1       6.716   5.504  19.227  0.00  0.00    +0.000 A 
ATOM      9  N   UNL     1       5.776   4.552  19.259  0.00  0.00    +0.000 NA
ATOM     10  H   UNL     1       4.271   2.568  17.139  0.00  0.00    +0.000 HD
ENDROOT
BRANCH   6  11
ATOM     11  N   UNL     1       7.461   6.008  15.816  0.00  0.00    +0.000 N 
ATOM     12  H   UNL     1       8.462   5.849  15.796  0.00  0.00    +0.000 HD
ATOM     13  H   UNL     1       7.000   5.569  15.022  0.00  0.00    +0.000 HD
ENDBRANCH   6  11
BRANCH   1  14
ATOM     14  O   UNL     1       3.603   3.376  20.130  0.00  0.00    +0.000 OA
BRANCH  14  16
ATOM     15  C   UNL     1       1.533   4.493  20.591  0.00  0.00    +0.000 C 
ATOM     16  C   UNL     1       2.436   3.327  20.958  0.00  0.00    +0.000 C 
ENDBRANCH  14  16
ENDBRANCH   1  14
TORSDOF 3
ENDMDL
