MODEL 1
REMARK VINA RESULT:      -7.6      0.000      0.000
REMARK  Name = 
REMARK  11 active torsions:
REMARK  status: ('A' for Active; 'I' for Inactive)
REMARK    1  A    between atoms: C_1  and  O_2
REMARK    2  A    between atoms: O_2  and  C_3
REMARK    3  A    between atoms: C_6  and  O_7
REMARK    4  A    between atoms: O_7  and  C_8
REMARK    5  A    between atoms: C_9  and  N_10
REMARK    6  A    between atoms: C_11  and  C_13
REMARK    7  A    between atoms: C_13  and  S_14
REMARK    8  A    between atoms: S_14  and  C_15
REMARK    9  A    between atoms: C_18  and  C_19
REMARK   10  A    between atoms: C_19  and  N_20
REMARK   11  A    between atoms: N_29  and  C_30
REMARK                            x       y       z     vdW  Elec       q    Type
REMARK                         _______ _______ _______ _____ _____    ______ ____
ROOT
ATOM      1  S   UNL     1       3.043   2.550  20.026  0.00  0.00    +0.000 S 
ENDROOT
BRANCH   1   2
ATOM      2  C   UNL     1       4.276   3.486  19.170  0.00  0.00    +0.000 A 
ATOM      3  N   UNL     1       5.534   3.666  19.479  0.00  0.00    +0.000 NA
ATOM      4  N   UNL     1       6.075   4.563  18.561  0.00  0.00    +0.000 NA
ATOM      5  C   UNL     1       5.148   4.957  17.688  0.00  0.00    +0.000 A 
ATOM      6  N   UNL     1       3.999   4.218  18.008  0.00  0.00    +0.000 N 
ATOM      7  C   UNL     1       2.745   4.097  17.313  0.00  0.00    +0.000 C 
BRANCH   5   8
ATOM      8  C   UNL     1       5.510   5.856  16.467  0.00  0.00    +0.000 C 
BRANCH   8   9
ATOM      9  N   UNL     1       6.265   5.317  15.315  0.00  0.00    +0.000 N 
ATOM     10  N   UNL     1       7.504   5.856  15.203  0.00  0.00    +0.000 NA
ATOM     11  N   UNL     1       8.084   5.415  14.114  0.00  0.00    +0.000 NA
ATOM     12  C   UNL     1       7.193   4.642  13.446  0.00  0.00    +0.000 A 
ATOM     13  C   UNL     1       7.409   3.961  12.239  0.00  0.00    +0.000 A 
ATOM     14  C   UNL     1       6.395   3.200  11.698  0.00  0.00    +0.000 A 
ATOM     15  C   UNL     1       5.137   3.222  12.302  0.00  0.00    +0.000 A 
ATOM     16  C   UNL     1       4.882   3.931  13.515  0.00  0.00    +0.000 A 
ATOM     17  C   UNL     1       5.967   4.601  14.138  0.00  0.00    +0.000 A 
ENDBRANCH   8   9
ENDBRANCH   5   8
ENDBRANCH   1   2
BRANCH   1  18
ATOM     18  C   UNL     1       2.313   3.556  21.374  0.00  0.00    +0.000 C 
BRANCH  18  20
ATOM     19  N   UNL     1       2.166   6.033  21.024  0.00  0.00    +0.000 N 
ATOM     20  C   UNL     1       1.523   4.813  20.828  0.00  0.00    +0.000 C 
ATOM     21  O   UNL     1       0.443   4.656  20.275  0.00  0.00    +0.000 OA
ATOM     22  H   UNL     1       3.133   5.937  21.309  0.00  0.00    +0.000 HD
BRANCH  19  27
ATOM     23  C   UNL     1       0.744   9.392  21.725  0.00  0.00    +0.000 A 
ATOM     24  C   UNL     1       0.872  10.076  20.525  0.00  0.00    +0.000 A 
ATOM     25  C   UNL     1       1.396   9.421  19.414  0.00  0.00    +0.000 A 
ATOM     26  C   UNL     1       1.818   8.071  19.477  0.00  0.00    +0.000 A 
ATOM     27  C   UNL     1       1.763   7.379  20.714  0.00  0.00    +0.000 A 
ATOM     28  C   UNL     1       1.196   8.074  21.816  0.00  0.00    +0.000 A 
BRANCH  23  30
ATOM     29  C   UNL     1      -0.905  10.952  22.403  0.00  0.00    +0.000 C 
ATOM     30  O   UNL     1       0.215  10.146  22.741  0.00  0.00    +0.000 OA
ENDBRANCH  23  30
BRANCH  26  31
ATOM     31  O   UNL     1       2.232   7.419  18.346  0.00  0.00    +0.000 OA
ATOM     32  C   UNL     1       2.757   8.222  17.291  0.00  0.00    +0.000 C 
ENDBRANCH  26  31
ENDBRANCH  19  27
ENDBRANCH  18  20
ENDBRANCH   1  18
TORSDOF 8
ENDMDL
MODEL 2
REMARK VINA RESULT:      -7.5      2.750      8.284
REMARK  Name = 
REMARK  11 active torsions:
REMARK  status: ('A' for Active; 'I' for Inactive)
REMARK    1  A    between atoms: C_1  and  O_2
REMARK    2  A    between atoms: O_2  and  C_3
REMARK    3  A    between atoms: C_6  and  O_7
REMARK    4  A    between atoms: O_7  and  C_8
REMARK    5  A    between atoms: C_9  and  N_10
REMARK    6  A    between atoms: C_11  and  C_13
REMARK    7  A    between atoms: C_13  and  S_14
REMARK    8  A    between atoms: S_14  and  C_15
REMARK    9  A    between atoms: C_18  and  C_19
REMARK   10  A    between atoms: C_19  and  N_20
REMARK   11  A    between atoms: N_29  and  C_30
REMARK                            x       y       z     vdW  Elec       q    Type
REMARK                         _______ _______ _______ _____ _____    ______ ____
ROOT
ATOM      1  S   UNL     1       1.509   2.435  19.486  0.00  0.00    +0.000 S 
ENDROOT
BRANCH   1   2
ATOM      2  C   UNL     1       1.645   4.059  18.800  0.00  0.00    +0.000 A 
ATOM      3  N   UNL     1       1.440   4.452  17.568  0.00  0.00    +0.000 NA
ATOM      4  N   UNL     1       1.772   5.802  17.490  0.00  0.00    +0.000 NA
ATOM      5  C   UNL     1       2.200   6.249  18.672  0.00  0.00    +0.000 A 
ATOM      6  N   UNL     1       2.054   5.168  19.552  0.00  0.00    +0.000 N 
ATOM      7  C   UNL     1       2.195   5.105  20.984  0.00  0.00    +0.000 C 
BRANCH   5   8
ATOM      8  C   UNL     1       2.510   7.759  18.907  0.00  0.00    +0.000 C 
BRANCH   8   9
ATOM      9  N   UNL     1       1.471   8.685  19.406  0.00  0.00    +0.000 N 
ATOM     10  N   UNL     1       1.044   9.554  18.457  0.00  0.00    +0.000 NA
ATOM     11  N   UNL     1       0.201  10.409  18.983  0.00  0.00    +0.000 NA
ATOM     12  C   UNL     1       0.129  10.165  20.314  0.00  0.00    +0.000 A 
ATOM     13  C   UNL     1      -0.668  10.838  21.250  0.00  0.00    +0.000 A 
ATOM     14  C   UNL     1      -0.634  10.451  22.574  0.00  0.00    +0.000 A 
ATOM     15  C   UNL     1       0.282   9.477  22.970  0.00  0.00    +0.000 A 
ATOM     16  C   UNL     1       1.127   8.796  22.041  0.00  0.00    +0.000 A 
ATOM     17  C   UNL     1       0.989   9.105  20.662  0.00  0.00    +0.000 A 
ENDBRANCH   8   9
ENDBRANCH   5   8
ENDBRANCH   1   2
BRANCH   1  18
ATOM     18  C   UNL     1       3.049   1.490  19.173  0.00  0.00    +0.000 C 
BRANCH  18  20
ATOM     19  N   UNL     1       4.247   3.007  17.579  0.00  0.00    +0.000 N 
ATOM     20  C   UNL     1       4.278   2.430  18.847  0.00  0.00    +0.000 C 
ATOM     21  O   UNL     1       5.148   2.606  19.690  0.00  0.00    +0.000 OA
ATOM     22  H   UNL     1       3.355   2.907  17.113  0.00  0.00    +0.000 HD
BRANCH  19  27
ATOM     23  C   UNL     1       6.376   4.157  14.759  0.00  0.00    +0.000 A 
ATOM     24  C   UNL     1       6.962   5.325  15.226  0.00  0.00    +0.000 A 
ATOM     25  C   UNL     1       6.706   5.748  16.527  0.00  0.00    +0.000 A 
ATOM     26  C   UNL     1       5.848   5.026  17.390  0.00  0.00    +0.000 A 
ATOM     27  C   UNL     1       5.182   3.870  16.906  0.00  0.00    +0.000 A 
ATOM     28  C   UNL     1       5.492   3.455  15.582  0.00  0.00    +0.000 A 
BRANCH  23  30
ATOM     29  C   UNL     1       5.640   3.399  12.639  0.00  0.00    +0.000 C 
ATOM     30  O   UNL     1       6.706   3.848  13.465  0.00  0.00    +0.000 OA
ENDBRANCH  23  30
BRANCH  26  31
ATOM     31  O   UNL     1       5.695   5.406  18.696  0.00  0.00    +0.000 OA
ATOM     32  C   UNL     1       6.885   5.604  19.456  0.00  0.00    +0.000 C 
ENDBRANCH  26  31
ENDBRANCH  19  27
ENDBRANCH  18  20
ENDBRANCH   1  18
TORSDOF 8
ENDMDL
MODEL 3
REMARK VINA RESULT:      -7.4      6.100      8.242
REMARK  Name = 
REMARK  11 active torsions:
REMARK  status: ('A' for Active; 'I' for Inactive)
REMARK    1  A    between atoms: C_1  and  O_2
REMARK    2  A    between atoms: O_2  and  C_3
REMARK    3  A    between atoms: C_6  and  O_7
REMARK    4  A    between atoms: O_7  and  C_8
REMARK    5  A    between atoms: C_9  and  N_10
REMARK    6  A    between atoms: C_11  and  C_13
REMARK    7  A    between atoms: C_13  and  S_14
REMARK    8  A    between atoms: S_14  and  C_15
REMARK    9  A    between atoms: C_18  and  C_19
REMARK   10  A    between atoms: C_19  and  N_20
REMARK   11  A    between atoms: N_29  and  C_30
REMARK                            x       y       z     vdW  Elec       q    Type
REMARK                         _______ _______ _______ _____ _____    ______ ____
ROOT
ATOM      1  S   UNL     1       8.224   7.542  18.438  0.00  0.00    +0.000 S 
ENDROOT
BRANCH   1   2
ATOM      2  C   UNL     1       7.300   6.390  17.465  0.00  0.00    +0.000 A 
ATOM      3  N   UNL     1       7.289   6.233  16.166  0.00  0.00    +0.000 NA
ATOM      4  N   UNL     1       6.328   5.273  15.861  0.00  0.00    +0.000 NA
ATOM      5  C   UNL     1       5.726   4.842  16.970  0.00  0.00    +0.000 A 
ATOM      6  N   UNL     1       6.387   5.487  18.025  0.00  0.00    +0.000 N 
ATOM      7  C   UNL     1       6.287   5.290  19.447  0.00  0.00    +0.000 C 
BRANCH   5   8
ATOM      8  C   UNL     1       4.702   3.666  16.936  0.00  0.00    +0.000 C 
BRANCH   8   9
ATOM      9  N   UNL     1       3.475   3.695  17.761  0.00  0.00    +0.000 N 
ATOM     10  N   UNL     1       2.506   4.480  17.230  0.00  0.00    +0.000 NA
ATOM     11  N   UNL     1       1.486   4.544  18.051  0.00  0.00    +0.000 NA
ATOM     12  C   UNL     1       1.810   3.867  19.179  0.00  0.00    +0.000 A 
ATOM     13  C   UNL     1       0.999   3.673  20.306  0.00  0.00    +0.000 A 
ATOM     14  C   UNL     1       1.480   2.941  21.371  0.00  0.00    +0.000 A 
ATOM     15  C   UNL     1       2.807   2.510  21.351  0.00  0.00    +0.000 A 
ATOM     16  C   UNL     1       3.664   2.719  20.228  0.00  0.00    +0.000 A 
ATOM     17  C   UNL     1       3.120   3.356  19.082  0.00  0.00    +0.000 A 
ENDBRANCH   8   9
ENDBRANCH   5   8
ENDBRANCH   1   2
BRANCH   1  18
ATOM     18  C   UNL     1       8.210   9.193  17.639  0.00  0.00    +0.000 C 
BRANCH  18  20
ATOM     19  N   UNL     1       8.925  11.572  17.967  0.00  0.00    +0.000 N 
ATOM     20  C   UNL     1       8.844  10.313  18.559  0.00  0.00    +0.000 C 
ATOM     21  O   UNL     1       9.203  10.033  19.694  0.00  0.00    +0.000 OA
ATOM     22  H   UNL     1       8.393  11.649  17.110  0.00  0.00    +0.000 HD
BRANCH  19  27
ATOM     23  C   UNL     1       8.816  14.918  19.577  0.00  0.00    +0.000 A 
ATOM     24  C   UNL     1      10.135  15.348  19.566  0.00  0.00    +0.000 A 
ATOM     25  C   UNL     1      11.110  14.553  18.971  0.00  0.00    +0.000 A 
ATOM     26  C   UNL     1      10.796  13.303  18.385  0.00  0.00    +0.000 A 
ATOM     27  C   UNL     1       9.466  12.815  18.452  0.00  0.00    +0.000 A 
ATOM     28  C   UNL     1       8.495  13.668  19.043  0.00  0.00    +0.000 A 
BRANCH  23  30
ATOM     29  C   UNL     1       7.041  15.215  21.118  0.00  0.00    +0.000 C 
ATOM     30  O   UNL     1       7.952  15.789  20.191  0.00  0.00    +0.000 OA
ENDBRANCH  23  30
BRANCH  26  31
ATOM     31  O   UNL     1      11.754  12.589  17.715  0.00  0.00    +0.000 OA
ATOM     32  C   UNL     1      12.267  13.163  16.515  0.00  0.00    +0.000 C 
ENDBRANCH  26  31
ENDBRANCH  19  27
ENDBRANCH  18  20
ENDBRANCH   1  18
TORSDOF 8
ENDMDL
MODEL 4
REMARK VINA RESULT:      -7.3      6.199      7.976
REMARK  Name = 
REMARK  11 active torsions:
REMARK  status: ('A' for Active; 'I' for Inactive)
REMARK    1  A    between atoms: C_1  and  O_2
REMARK    2  A    between atoms: O_2  and  C_3
REMARK    3  A    between atoms: C_6  and  O_7
REMARK    4  A    between atoms: O_7  and  C_8
REMARK    5  A    between atoms: C_9  and  N_10
REMARK    6  A    between atoms: C_11  and  C_13
REMARK    7  A    between atoms: C_13  and  S_14
REMARK    8  A    between atoms: S_14  and  C_15
REMARK    9  A    between atoms: C_18  and  C_19
REMARK   10  A    between atoms: C_19  and  N_20
REMARK   11  A    between atoms: N_29  and  C_30
REMARK                            x       y       z     vdW  Elec       q    Type
REMARK                         _______ _______ _______ _____ _____    ______ ____
ROOT
ATOM      1  S   UNL     1       7.594   8.375  17.618  0.00  0.00    +0.000 S 
ENDROOT
BRANCH   1   2
ATOM      2  C   UNL     1       7.184   6.669  17.833  0.00  0.00    +0.000 A 
ATOM      3  N   UNL     1       7.798   5.759  18.546  0.00  0.00    +0.000 NA
ATOM      4  N   UNL     1       7.163   4.540  18.320  0.00  0.00    +0.000 NA
ATOM      5  C   UNL     1       6.161   4.687  17.452  0.00  0.00    +0.000 A 
ATOM      6  N   UNL     1       6.102   6.061  17.183  0.00  0.00    +0.000 N 
ATOM      7  C   UNL     1       5.125   6.828  16.455  0.00  0.00    +0.000 C 
BRANCH   5   8
ATOM      8  C   UNL     1       5.193   3.510  17.121  0.00  0.00    +0.000 C 
BRANCH   8   9
ATOM      9  N   UNL     1       4.036   3.202  17.990  0.00  0.00    +0.000 N 
ATOM     10  N   UNL     1       3.509   1.977  17.744  0.00  0.00    +0.000 NA
ATOM     11  N   UNL     1       2.432   1.802  18.471  0.00  0.00    +0.000 NA
ATOM     12  C   UNL     1       2.188   2.952  19.146  0.00  0.00    +0.000 A 
ATOM     13  C   UNL     1       1.144   3.192  20.050  0.00  0.00    +0.000 A 
ATOM     14  C   UNL     1       1.047   4.422  20.666  0.00  0.00    +0.000 A 
ATOM     15  C   UNL     1       1.923   5.440  20.285  0.00  0.00    +0.000 A 
ATOM     16  C   UNL     1       2.977   5.231  19.345  0.00  0.00    +0.000 A 
ATOM     17  C   UNL     1       3.153   3.925  18.817  0.00  0.00    +0.000 A 
ENDBRANCH   8   9
ENDBRANCH   5   8
ENDBRANCH   1   2
BRANCH   1  18
ATOM     18  C   UNL     1       8.913   8.859  18.797  0.00  0.00    +0.000 C 
BRANCH  18  20
ATOM     19  N   UNL     1       9.470  10.848  20.215  0.00  0.00    +0.000 N 
ATOM     20  C   UNL     1       9.027  10.428  18.963  0.00  0.00    +0.000 C 
ATOM     21  O   UNL     1       8.746  11.158  18.023  0.00  0.00    +0.000 OA
ATOM     22  H   UNL     1       9.845  10.098  20.782  0.00  0.00    +0.000 HD
BRANCH  19  27
ATOM     23  C   UNL     1       8.870  13.666  22.560  0.00  0.00    +0.000 A 
ATOM     24  C   UNL     1       9.760  14.648  22.152  0.00  0.00    +0.000 A 
ATOM     25  C   UNL     1      10.565  14.424  21.038  0.00  0.00    +0.000 A 
ATOM     26  C   UNL     1      10.512  13.209  20.314  0.00  0.00    +0.000 A 
ATOM     27  C   UNL     1       9.660  12.166  20.761  0.00  0.00    +0.000 A 
ATOM     28  C   UNL     1       8.835  12.444  21.884  0.00  0.00    +0.000 A 
BRANCH  23  30
ATOM     29  C   UNL     1       7.078  14.932  23.454  0.00  0.00    +0.000 C 
ATOM     30  O   UNL     1       8.135  14.007  23.667  0.00  0.00    +0.000 OA
ENDBRANCH  23  30
BRANCH  26  31
ATOM     31  O   UNL     1      11.237  13.054  19.163  0.00  0.00    +0.000 OA
ATOM     32  C   UNL     1      11.390  14.204  18.334  0.00  0.00    +0.000 C 
ENDBRANCH  26  31
ENDBRANCH  19  27
ENDBRANCH  18  20
ENDBRANCH   1  18
TORSDOF 8
ENDMDL
MODEL 5
REMARK VINA RESULT:      -7.3      4.729      9.787
REMARK  Name = 
REMARK  11 active torsions:
REMARK  status: ('A' for Active; 'I' for Inactive)
REMARK    1  A    between atoms: C_1  and  O_2
REMARK    2  A    between atoms: O_2  and  C_3
REMARK    3  A    between atoms: C_6  and  O_7
REMARK    4  A    between atoms: O_7  and  C_8
REMARK    5  A    between atoms: C_9  and  N_10
REMARK    6  A    between atoms: C_11  and  C_13
REMARK    7  A    between atoms: C_13  and  S_14
REMARK    8  A    between atoms: S_14  and  C_15
REMARK    9  A    between atoms: C_18  and  C_19
REMARK   10  A    between atoms: C_19  and  N_20
REMARK   11  A    between atoms: N_29  and  C_30
REMARK                            x       y       z     vdW  Elec       q    Type
REMARK                         _______ _______ _______ _____ _____    ______ ____
ROOT
ATOM      1  S   UNL     1       1.522   9.282  22.103  0.00  0.00    +0.000 S 
ENDROOT
BRANCH   1   2
ATOM      2  C   UNL     1       0.146  10.374  22.302  0.00  0.00    +0.000 A 
ATOM      3  N   UNL     1      -0.619  10.552  23.349  0.00  0.00    +0.000 NA
ATOM      4  N   UNL     1      -1.631  11.439  22.993  0.00  0.00    +0.000 NA
ATOM      5  C   UNL     1      -1.507  11.804  21.716  0.00  0.00    +0.000 A 
ATOM      6  N   UNL     1      -0.325  11.195  21.270  0.00  0.00    +0.000 N 
ATOM      7  C   UNL     1       0.401  11.360  20.037  0.00  0.00    +0.000 C 
BRANCH   5   8
ATOM      8  C   UNL     1      -2.426  12.897  21.089  0.00  0.00    +0.000 C 
BRANCH   8   9
ATOM      9  N   UNL     1      -3.358  12.574  19.987  0.00  0.00    +0.000 N 
ATOM     10  N   UNL     1      -4.658  12.647  20.363  0.00  0.00    +0.000 NA
ATOM     11  N   UNL     1      -5.429  12.257  19.378  0.00  0.00    +0.000 NA
ATOM     12  C   UNL     1      -4.635  11.836  18.363  0.00  0.00    +0.000 A 
ATOM     13  C   UNL     1      -5.051  11.353  17.114  0.00  0.00    +0.000 A 
ATOM     14  C   UNL     1      -4.106  10.979  16.182  0.00  0.00    +0.000 A 
ATOM     15  C   UNL     1      -2.759  10.977  16.547  0.00  0.00    +0.000 A 
ATOM     16  C   UNL     1      -2.311  11.436  17.823  0.00  0.00    +0.000 A 
ATOM     17  C   UNL     1      -3.278  11.947  18.728  0.00  0.00    +0.000 A 
ENDBRANCH   8   9
ENDBRANCH   5   8
ENDBRANCH   1   2
BRANCH   1  18
ATOM     18  C   UNL     1       0.959   7.681  21.409  0.00  0.00    +0.000 C 
BRANCH  18  20
ATOM     19  N   UNL     1       2.245   5.861  20.263  0.00  0.00    +0.000 N 
ATOM     20  C   UNL     1       1.858   7.198  20.200  0.00  0.00    +0.000 C 
ATOM     21  O   UNL     1       2.144   7.983  19.307  0.00  0.00    +0.000 OA
ATOM     22  H   UNL     1       1.743   5.329  20.962  0.00  0.00    +0.000 HD
BRANCH  19  27
ATOM     23  C   UNL     1       5.447   4.677  18.799  0.00  0.00    +0.000 A 
ATOM     24  C   UNL     1       5.069   3.700  17.890  0.00  0.00    +0.000 A 
ATOM     25  C   UNL     1       3.717   3.433  17.694  0.00  0.00    +0.000 A 
ATOM     26  C   UNL     1       2.710   4.124  18.410  0.00  0.00    +0.000 A 
ATOM     27  C   UNL     1       3.081   5.074  19.396  0.00  0.00    +0.000 A 
ATOM     28  C   UNL     1       4.469   5.338  19.546  0.00  0.00    +0.000 A 
BRANCH  23  30
ATOM     29  C   UNL     1       7.530   4.829  17.680  0.00  0.00    +0.000 C 
ATOM     30  O   UNL     1       6.804   4.846  18.901  0.00  0.00    +0.000 OA
ENDBRANCH  23  30
BRANCH  26  31
ATOM     31  O   UNL     1       1.387   3.916  18.123  0.00  0.00    +0.000 OA
ATOM     32  C   UNL     1       0.765   2.782  18.724  0.00  0.00    +0.000 C 
ENDBRANCH  26  31
ENDBRANCH  19  27
ENDBRANCH  18  20
ENDBRANCH   1  18
TORSDOF 8
ENDMDL
MODEL 6
REMARK VINA RESULT:      -7.2      6.172      8.195
REMARK  Name = 
REMARK  11 active torsions:
REMARK  status: ('A' for Active; 'I' for Inactive)
REMARK    1  A    between atoms: C_1  and  O_2
REMARK    2  A    between atoms: O_2  and  C_3
REMARK    3  A    between atoms: C_6  and  O_7
REMARK    4  A    between atoms: O_7  and  C_8
REMARK    5  A    between atoms: C_9  and  N_10
REMARK    6  A    between atoms: C_11  and  C_13
REMARK    7  A    between atoms: C_13  and  S_14
REMARK    8  A    between atoms: S_14  and  C_15
REMARK    9  A    between atoms: C_18  and  C_19
REMARK   10  A    between atoms: C_19  and  N_20
REMARK   11  A    between atoms: N_29  and  C_30
REMARK                            x       y       z     vdW  Elec       q    Type
REMARK                         _______ _______ _______ _____ _____    ______ ____
ROOT
ATOM      1  S   UNL     1       8.185   7.478  18.430  0.00  0.00    +0.000 S 
ENDROOT
BRANCH   1   2
ATOM      2  C   UNL     1       7.205   6.462  17.365  0.00  0.00    +0.000 A 
ATOM      3  N   UNL     1       7.312   6.280  16.073  0.00  0.00    +0.000 NA
ATOM      4  N   UNL     1       6.252   5.473  15.667  0.00  0.00    +0.000 NA
ATOM      5  C   UNL     1       5.473   5.164  16.704  0.00  0.00    +0.000 A 
ATOM      6  N   UNL     1       6.108   5.722  17.824  0.00  0.00    +0.000 N 
ATOM      7  C   UNL     1       5.823   5.573  19.227  0.00  0.00    +0.000 C 
BRANCH   5   8
ATOM      8  C   UNL     1       4.289   4.159  16.562  0.00  0.00    +0.000 C 
BRANCH   8   9
ATOM      9  N   UNL     1       3.731   3.461  17.740  0.00  0.00    +0.000 N 
ATOM     10  N   UNL     1       3.909   2.118  17.685  0.00  0.00    +0.000 NA
ATOM     11  N   UNL     1       3.310   1.548  18.702  0.00  0.00    +0.000 NA
ATOM     12  C   UNL     1       2.651   2.508  19.395  0.00  0.00    +0.000 A 
ATOM     13  C   UNL     1       1.895   2.334  20.563  0.00  0.00    +0.000 A 
ATOM     14  C   UNL     1       1.298   3.427  21.155  0.00  0.00    +0.000 A 
ATOM     15  C   UNL     1       1.362   4.663  20.512  0.00  0.00    +0.000 A 
ATOM     16  C   UNL     1       2.101   4.862  19.306  0.00  0.00    +0.000 A 
ATOM     17  C   UNL     1       2.825   3.762  18.776  0.00  0.00    +0.000 A 
ENDBRANCH   8   9
ENDBRANCH   5   8
ENDBRANCH   1   2
BRANCH   1  18
ATOM     18  C   UNL     1       8.218   9.200  17.799  0.00  0.00    +0.000 C 
BRANCH  18  20
ATOM     19  N   UNL     1       9.052  11.502  18.333  0.00  0.00    +0.000 N 
ATOM     20  C   UNL     1       8.938  10.193  18.797  0.00  0.00    +0.000 C 
ATOM     21  O   UNL     1       9.330   9.784  19.882  0.00  0.00    +0.000 OA
ATOM     22  H   UNL     1       8.489  11.688  17.513  0.00  0.00    +0.000 HD
BRANCH  19  27
ATOM     23  C   UNL     1       9.250  14.493  20.528  0.00  0.00    +0.000 A 
ATOM     24  C   UNL     1      10.527  14.991  20.315  0.00  0.00    +0.000 A 
ATOM     25  C   UNL     1      11.358  14.372  19.386  0.00  0.00    +0.000 A 
ATOM     26  C   UNL     1      10.942  13.232  18.657  0.00  0.00    +0.000 A 
ATOM     27  C   UNL     1       9.667  12.666  18.915  0.00  0.00    +0.000 A 
ATOM     28  C   UNL     1       8.838  13.343  19.849  0.00  0.00    +0.000 A 
BRANCH  23  30
ATOM     29  C   UNL     1       8.027  14.430  22.555  0.00  0.00    +0.000 C 
ATOM     30  O   UNL     1       8.530  15.189  21.465  0.00  0.00    +0.000 OA
ENDBRANCH  23  30
BRANCH  26  31
ATOM     31  O   UNL     1      11.738  12.706  17.675  0.00  0.00    +0.000 OA
ATOM     32  C   UNL     1      11.665  13.313  16.387  0.00  0.00    +0.000 C 
ENDBRANCH  26  31
ENDBRANCH  19  27
ENDBRANCH  18  20
ENDBRANCH   1  18
TORSDOF 8
ENDMDL
MODEL 7
REMARK VINA RESULT:      -7.2      4.385     10.907
REMARK  Name = 
REMARK  11 active torsions:
REMARK  status: ('A' for Active; 'I' for Inactive)
REMARK    1  A    between atoms: C_1  and  O_2
REMARK    2  A    between atoms: O_2  and  C_3
REMARK    3  A    between atoms: C_6  and  O_7
REMARK    4  A    between atoms: O_7  and  C_8
REMARK    5  A    between atoms: C_9  and  N_10
REMARK    6  A    between atoms: C_11  and  C_13
REMARK    7  A    between atoms: C_13  and  S_14
REMARK    8  A    between atoms: S_14  and  C_15
REMARK    9  A    between atoms: C_18  and  C_19
REMARK   10  A    between atoms: C_19  and  N_20
REMARK   11  A    between atoms: N_29  and  C_30
REMARK                            x       y       z     vdW  Elec       q    Type
REMARK                         _______ _______ _______ _____ _____    ______ ____
ROOT
ATOM      1  S   UNL     1       1.539   8.544  20.149  0.00  0.00    +0.000 S 
ENDROOT
BRANCH   1   2
ATOM      2  C   UNL     1       0.745   9.657  21.271  0.00  0.00    +0.000 A 
ATOM      3  N   UNL     1       0.749   9.648  22.580  0.00  0.00    +0.000 NA
ATOM      4  N   UNL     1      -0.102  10.660  23.016  0.00  0.00    +0.000 NA
ATOM      5  C   UNL     1      -0.650  11.292  21.977  0.00  0.00    +0.000 A 
ATOM      6  N   UNL     1      -0.061  10.718  20.841  0.00  0.00    +0.000 N 
ATOM      7  C   UNL     1      -0.136  11.104  19.457  0.00  0.00    +0.000 C 
BRANCH   5   8
ATOM      8  C   UNL     1      -1.539  12.558  22.172  0.00  0.00    +0.000 C 
BRANCH   8   9
ATOM      9  N   UNL     1      -2.987  12.532  21.871  0.00  0.00    +0.000 N 
ATOM     10  N   UNL     1      -3.247  12.656  20.546  0.00  0.00    +0.000 NA
ATOM     11  N   UNL     1      -4.542  12.726  20.352  0.00  0.00    +0.000 NA
ATOM     12  C   UNL     1      -5.149  12.736  21.563  0.00  0.00    +0.000 A 
ATOM     13  C   UNL     1      -6.528  12.784  21.813  0.00  0.00    +0.000 A 
ATOM     14  C   UNL     1      -6.984  12.772  23.114  0.00  0.00    +0.000 A 
ATOM     15  C   UNL     1      -6.057  12.831  24.156  0.00  0.00    +0.000 A 
ATOM     16  C   UNL     1      -4.648  12.812  23.929  0.00  0.00    +0.000 A 
ATOM     17  C   UNL     1      -4.187  12.688  22.592  0.00  0.00    +0.000 A 
ENDBRANCH   8   9
ENDBRANCH   5   8
ENDBRANCH   1   2
BRANCH   1  18
ATOM     18  C   UNL     1       1.414   6.825  20.774  0.00  0.00    +0.000 C 
BRANCH  18  20
ATOM     19  N   UNL     1       2.941   6.310  18.855  0.00  0.00    +0.000 N 
ATOM     20  C   UNL     1       2.447   5.852  20.076  0.00  0.00    +0.000 C 
ATOM     21  O   UNL     1       2.756   4.802  20.622  0.00  0.00    +0.000 OA
ATOM     22  H   UNL     1       2.727   7.282  18.674  0.00  0.00    +0.000 HD
BRANCH  19  27
ATOM     23  C   UNL     1       6.016   6.076  16.785  0.00  0.00    +0.000 A 
ATOM     24  C   UNL     1       5.904   4.852  16.141  0.00  0.00    +0.000 A 
ATOM     25  C   UNL     1       4.765   4.076  16.336  0.00  0.00    +0.000 A 
ATOM     26  C   UNL     1       3.717   4.495  17.190  0.00  0.00    +0.000 A 
ATOM     27  C   UNL     1       3.847   5.708  17.913  0.00  0.00    +0.000 A 
ATOM     28  C   UNL     1       5.011   6.484  17.665  0.00  0.00    +0.000 A 
BRANCH  23  30
ATOM     29  C   UNL     1       7.649   7.625  17.523  0.00  0.00    +0.000 C 
ATOM     30  O   UNL     1       7.182   6.744  16.511  0.00  0.00    +0.000 OA
ENDBRANCH  23  30
BRANCH  26  31
ATOM     31  O   UNL     1       2.563   3.763  17.284  0.00  0.00    +0.000 OA
ATOM     32  C   UNL     1       2.675   2.441  17.806  0.00  0.00    +0.000 C 
ENDBRANCH  26  31
ENDBRANCH  19  27
ENDBRANCH  18  20
ENDBRANCH   1  18
TORSDOF 8
ENDMDL
MODEL 8
REMARK VINA RESULT:      -7.1      5.042     11.285
REMARK  Name = 
REMARK  11 active torsions:
REMARK  status: ('A' for Active; 'I' for Inactive)
REMARK    1  A    between atoms: C_1  and  O_2
REMARK    2  A    between atoms: O_2  and  C_3
REMARK    3  A    between atoms: C_6  and  O_7
REMARK    4  A    between atoms: O_7  and  C_8
REMARK    5  A    between atoms: C_9  and  N_10
REMARK    6  A    between atoms: C_11  and  C_13
REMARK    7  A    between atoms: C_13  and  S_14
REMARK    8  A    between atoms: S_14  and  C_15
REMARK    9  A    between atoms: C_18  and  C_19
REMARK   10  A    between atoms: C_19  and  N_20
REMARK   11  A    between atoms: N_29  and  C_30
REMARK                            x       y       z     vdW  Elec       q    Type
REMARK                         _______ _______ _______ _____ _____    ______ ____
ROOT
ATOM      1  S   UNL     1       0.460   9.588  20.204  0.00  0.00    +0.000 S 
ENDROOT
BRANCH   1   2
ATOM      2  C   UNL     1      -0.315  10.640  21.396  0.00  0.00    +0.000 A 
ATOM      3  N   UNL     1      -0.095  10.726  22.683  0.00  0.00    +0.000 NA
ATOM      4  N   UNL     1      -1.020  11.621  23.215  0.00  0.00    +0.000 NA
ATOM      5  C   UNL     1      -1.829  12.083  22.260  0.00  0.00    +0.000 A 
ATOM      6  N   UNL     1      -1.347  11.528  21.066  0.00  0.00    +0.000 N 
ATOM      7  C   UNL     1      -1.711  11.797  19.700  0.00  0.00    +0.000 C 
BRANCH   5   8
ATOM      8  C   UNL     1      -2.873  13.205  22.550  0.00  0.00    +0.000 C 
BRANCH   8   9
ATOM      9  N   UNL     1      -4.322  12.963  22.384  0.00  0.00    +0.000 N 
ATOM     10  N   UNL     1      -4.932  12.617  23.545  0.00  0.00    +0.000 NA
ATOM     11  N   UNL     1      -6.188  12.322  23.317  0.00  0.00    +0.000 NA
ATOM     12  C   UNL     1      -6.400  12.386  21.980  0.00  0.00    +0.000 A 
ATOM     13  C   UNL     1      -7.609  12.159  21.308  0.00  0.00    +0.000 A 
ATOM     14  C   UNL     1      -7.657  12.281  19.935  0.00  0.00    +0.000 A 
ATOM     15  C   UNL     1      -6.472  12.512  19.235  0.00  0.00    +0.000 A 
ATOM     16  C   UNL     1      -5.221  12.718  19.893  0.00  0.00    +0.000 A 
ATOM     17  C   UNL     1      -5.206  12.725  21.312  0.00  0.00    +0.000 A 
ENDBRANCH   8   9
ENDBRANCH   5   8
ENDBRANCH   1   2
BRANCH   1  18
ATOM     18  C   UNL     1       1.344   8.223  21.051  0.00  0.00    +0.000 C 
BRANCH  18  20
ATOM     19  N   UNL     1       2.400   6.008  20.544  0.00  0.00    +0.000 N 
ATOM     20  C   UNL     1       2.090   7.267  20.035  0.00  0.00    +0.000 C 
ATOM     21  O   UNL     1       2.336   7.660  18.903  0.00  0.00    +0.000 OA
ATOM     22  H   UNL     1       1.936   5.803  21.420  0.00  0.00    +0.000 HD
BRANCH  19  27
ATOM     23  C   UNL     1       5.275   4.253  18.976  0.00  0.00    +0.000 A 
ATOM     24  C   UNL     1       4.826   2.954  18.795  0.00  0.00    +0.000 A 
ATOM     25  C   UNL     1       3.520   2.624  19.145  0.00  0.00    +0.000 A 
ATOM     26  C   UNL     1       2.634   3.579  19.699  0.00  0.00    +0.000 A 
ATOM     27  C   UNL     1       3.098   4.893  19.960  0.00  0.00    +0.000 A 
ATOM     28  C   UNL     1       4.428   5.198  19.562  0.00  0.00    +0.000 A 
BRANCH  23  30
ATOM     29  C   UNL     1       6.780   4.806  17.232  0.00  0.00    +0.000 C 
ATOM     30  O   UNL     1       6.576   4.451  18.593  0.00  0.00    +0.000 OA
ENDBRANCH  23  30
BRANCH  26  31
ATOM     31  O   UNL     1       1.324   3.256  19.938  0.00  0.00    +0.000 OA
ATOM     32  C   UNL     1       0.595   2.671  18.861  0.00  0.00    +0.000 C 
ENDBRANCH  26  31
ENDBRANCH  19  27
ENDBRANCH  18  20
ENDBRANCH   1  18
TORSDOF 8
ENDMDL
MODEL 9
REMARK VINA RESULT:      -7.1      5.070      7.337
REMARK  Name = 
REMARK  11 active torsions:
REMARK  status: ('A' for Active; 'I' for Inactive)
REMARK    1  A    between atoms: C_1  and  O_2
REMARK    2  A    between atoms: O_2  and  C_3
REMARK    3  A    between atoms: C_6  and  O_7
REMARK    4  A    between atoms: O_7  and  C_8
REMARK    5  A    between atoms: C_9  and  N_10
REMARK    6  A    between atoms: C_11  and  C_13
REMARK    7  A    between atoms: C_13  and  S_14
REMARK    8  A    between atoms: S_14  and  C_15
REMARK    9  A    between atoms: C_18  and  C_19
REMARK   10  A    between atoms: C_19  and  N_20
REMARK   11  A    between atoms: N_29  and  C_30
REMARK                            x       y       z     vdW  Elec       q    Type
REMARK                         _______ _______ _______ _____ _____    ______ ____
ROOT
ATOM      1  S   UNL     1      -0.334  11.399  19.750  0.00  0.00    +0.000 S 
ENDROOT
BRANCH   1   2
ATOM      2  C   UNL     1       0.710  10.064  19.243  0.00  0.00    +0.000 A 
ATOM      3  N   UNL     1       1.208   9.813  18.059  0.00  0.00    +0.000 NA
ATOM      4  N   UNL     1       1.881   8.596  18.129  0.00  0.00    +0.000 NA
ATOM      5  C   UNL     1       1.790   8.079  19.355  0.00  0.00    +0.000 A 
ATOM      6  N   UNL     1       1.108   9.041  20.113  0.00  0.00    +0.000 N 
ATOM      7  C   UNL     1       0.866   9.111  21.531  0.00  0.00    +0.000 C 
BRANCH   5   8
ATOM      8  C   UNL     1       2.567   6.787  19.753  0.00  0.00    +0.000 C 
BRANCH   8   9
ATOM      9  N   UNL     1       3.046   5.834  18.727  0.00  0.00    +0.000 N 
ATOM     10  N   UNL     1       2.741   4.547  19.026  0.00  0.00    +0.000 NA
ATOM     11  N   UNL     1       3.275   3.746  18.136  0.00  0.00    +0.000 NA
ATOM     12  C   UNL     1       4.015   4.496  17.285  0.00  0.00    +0.000 A 
ATOM     13  C   UNL     1       4.742   4.040  16.176  0.00  0.00    +0.000 A 
ATOM     14  C   UNL     1       5.435   4.944  15.398  0.00  0.00    +0.000 A 
ATOM     15  C   UNL     1       5.494   6.278  15.803  0.00  0.00    +0.000 A 
ATOM     16  C   UNL     1       4.788   6.764  16.946  0.00  0.00    +0.000 A 
ATOM     17  C   UNL     1       3.968   5.853  17.662  0.00  0.00    +0.000 A 
ENDBRANCH   8   9
ENDBRANCH   5   8
ENDBRANCH   1   2
BRANCH   1  18
ATOM     18  C   UNL     1      -1.318  12.003  18.325  0.00  0.00    +0.000 C 
BRANCH  18  20
ATOM     19  N   UNL     1      -3.592  12.580  19.207  0.00  0.00    +0.000 N 
ATOM     20  C   UNL     1      -2.856  11.658  18.466  0.00  0.00    +0.000 C 
ATOM     21  O   UNL     1      -3.302  10.652  17.931  0.00  0.00    +0.000 OA
ATOM     22  H   UNL     1      -3.093  13.441  19.388  0.00  0.00    +0.000 HD
BRANCH  19  27
ATOM     23  C   UNL     1      -6.471  12.319  21.541  0.00  0.00    +0.000 A 
ATOM     24  C   UNL     1      -7.579  12.584  20.750  0.00  0.00    +0.000 A 
ATOM     25  C   UNL     1      -7.410  12.811  19.387  0.00  0.00    +0.000 A 
ATOM     26  C   UNL     1      -6.130  12.795  18.782  0.00  0.00    +0.000 A 
ATOM     27  C   UNL     1      -4.980  12.598  19.588  0.00  0.00    +0.000 A 
ATOM     28  C   UNL     1      -5.196  12.342  20.969  0.00  0.00    +0.000 A 
BRANCH  23  30
ATOM     29  C   UNL     1      -7.864  12.853  23.380  0.00  0.00    +0.000 C 
ATOM     30  O   UNL     1      -6.768  12.112  22.863  0.00  0.00    +0.000 OA
ENDBRANCH  23  30
BRANCH  26  31
ATOM     31  O   UNL     1      -6.001  12.918  17.424  0.00  0.00    +0.000 OA
ATOM     32  C   UNL     1      -6.778  13.932  16.790  0.00  0.00    +0.000 C 
ENDBRANCH  26  31
ENDBRANCH  19  27
ENDBRANCH  18  20
ENDBRANCH   1  18
TORSDOF 8
ENDMDL
