MODEL 1
REMARK VINA RESULT:      -6.7      0.000      0.000
REMARK  Name = 
REMARK  21 active torsions:
REMARK  status: ('A' for Active; 'I' for Inactive)
REMARK    1  A    between atoms: C_1  and  C_2
REMARK    2  A    between atoms: C_2  and  C_3
REMARK    3  A    between atoms: C_2  and  N_4
REMARK    4  A    between atoms: N_4  and  C_5
REMARK    5  A    between atoms: C_5  and  C_6
REMARK    6  A    between atoms: C_6  and  C_7
REMARK    7  A    between atoms: C_6  and  O_19
REMARK    8  A    between atoms: C_7  and  O_8
REMARK    9  A    between atoms: O_8  and  C_9
REMARK   10  A    between atoms: C_12  and  C_13
REMARK   11  A    between atoms: C_13  and  C_14
REMARK   12  A    between atoms: O_19  and  C_20
REMARK   13  A    between atoms: C_20  and  C_22
REMARK   14  A    between atoms: C_22  and  C_23
REMARK   15  A    between atoms: C_23  and  N_24
REMARK   16  A    between atoms: C_23  and  C_30
REMARK   17  A    between atoms: N_24  and  C_25
REMARK   18  A    between atoms: C_25  and  C_27
REMARK   19  A    between atoms: C_27  and  C_28
REMARK   20  A    between atoms: C_27  and  N_29
REMARK   21  A    between atoms: C_30  and  O_32
REMARK                            x       y       z     vdW  Elec       q    Type
REMARK                         _______ _______ _______ _____ _____    ______ ____
ROOT
ATOM      1  C   UNK A   1       1.721   7.533  20.891  0.00  0.00    +0.000 C 
ENDROOT
BRANCH   1   2
ATOM      2  O   UNK A   1       0.616   8.374  21.309  0.00  0.00    +0.000 OA
BRANCH   2   3
ATOM      3  C   UNK A   1       0.881   9.207  22.355  0.00  0.00    +0.000 C 
ATOM      4  O   UNK A   1       1.996   9.487  22.773  0.00  0.00    +0.000 OA
BRANCH   3   5
ATOM      5  C   UNK A   1      -0.400   9.701  22.977  0.00  0.00    +0.000 C 
BRANCH   5   6
ATOM      6  C   UNK A   1      -1.016  10.810  22.118  0.00  0.00    +0.000 C 
BRANCH   6   7
ATOM      7  C   UNK A   1      -1.493  11.960  23.017  0.00  0.00    +0.000 C 
ATOM      8  O   UNK A   1      -0.818  12.948  23.274  0.00  0.00    +0.000 OA
BRANCH   7   9
ATOM      9  O   UNK A   1      -2.782  11.847  23.411  0.00  0.00    +0.000 OA
ATOM     10  H   UNK A   1      -3.368  11.438  22.740  0.00  0.00    +0.000 HD
ENDBRANCH   7   9
ENDBRANCH   6   7
BRANCH   6  11
ATOM     11  N   UNK A   1      -0.019  11.354  21.165  0.00  0.00    +0.000 N 
ATOM     12  H   UNK A   1       0.771  11.832  21.588  0.00  0.00    +0.000 HD
BRANCH  11  13
ATOM     13  C   UNK A   0      -0.195  11.535  19.802  0.00  0.00    +0.000 C 
ATOM     14  S   UNK A   0      -0.923  10.415  18.784  0.00  0.00    +0.000 S 
BRANCH  13  15
ATOM     15  C   UNK A   0       0.339  12.870  19.220  0.00  0.00    +0.000 C 
ATOM     16  C   UNK A   0       0.962  13.755  20.294  0.00  0.00    +0.000 C 
BRANCH  15  17
ATOM     17  N   UNK A   0      -0.752  13.588  18.546  0.00  0.00    +0.000 NA
ATOM     18  H   UNK A   0      -1.048  14.409  19.063  0.00  0.00    +0.000 HD
ATOM     19  H   UNK A   0      -1.564  12.976  18.465  0.00  0.00    +0.000 HD
ENDBRANCH  15  17
ENDBRANCH  13  15
ENDBRANCH  11  13
ENDBRANCH   6  11
ENDBRANCH   5   6
ENDBRANCH   3   5
ENDBRANCH   2   3
ENDBRANCH   1   2
BRANCH   1  20
ATOM     20  C   UNK A   1       2.129   7.895  19.455  0.00  0.00    +0.000 C 
BRANCH  20  21
ATOM     21  O   UNK A   1       1.800   6.811  18.580  0.00  0.00    +0.000 OA
BRANCH  21  22
ATOM     22  C   UNK A   1       2.848   6.227  17.922  0.00  0.00    +0.000 A 
ATOM     23  C   UNK A   1       2.742   4.844  17.765  0.00  0.00    +0.000 A 
ATOM     24  C   UNK A   1       3.720   4.129  17.070  0.00  0.00    +0.000 A 
ATOM     25  C   UNK A   1       4.817   4.793  16.506  0.00  0.00    +0.000 A 
ATOM     26  C   UNK A   1       4.922   6.180  16.667  0.00  0.00    +0.000 A 
ATOM     27  C   UNK A   1       3.945   6.893  17.374  0.00  0.00    +0.000 A 
BRANCH  25  28
ATOM     28  C   UNK A   1       5.851   4.029  15.711  0.00  0.00    +0.000 C 
BRANCH  28  29
ATOM     29  C   UNK A   1       7.281   4.549  15.760  0.00  0.00    +0.000 C 
ATOM     30  N   UNK A   1       7.728   5.327  14.734  0.00  0.00    +0.000 N 
ATOM     31  O   UNK A   1       8.031   4.295  16.703  0.00  0.00    +0.000 OA
ATOM     32  H   UNK A   1       7.189   5.505  13.899  0.00  0.00    +0.000 HD
ATOM     33  H   UNK A   1       8.687   5.639  14.768  0.00  0.00    +0.000 HD
ENDBRANCH  28  29
ENDBRANCH  25  28
ENDBRANCH  21  22
ENDBRANCH  20  21
ENDBRANCH   1  20
BRANCH   1  34
ATOM     34  C   UNK A   1       1.288   6.051  20.959  0.00  0.00    +0.000 C 
BRANCH  34  35
ATOM     35  N   UNK A   1       2.363   5.086  21.226  0.00  0.00    +0.000 NA
ATOM     36  H   UNK A   1       3.073   5.173  20.495  0.00  0.00    +0.000 HD
BRANCH  35  38
ATOM     37  C   UNK A   1       0.777   3.381  20.323  0.00  0.00    +0.000 C 
ATOM     38  C   UNK A   1       1.917   3.685  21.296  0.00  0.00    +0.000 C 
ATOM     39  C   UNK A   1       3.117   2.783  20.998  0.00  0.00    +0.000 C 
ENDBRANCH  35  38
ENDBRANCH  34  35
ENDBRANCH   1  34
TORSDOF 18
ENDMDL
MODEL 2
REMARK VINA RESULT:      -6.4      3.149      8.606
REMARK  Name = 
REMARK  21 active torsions:
REMARK  status: ('A' for Active; 'I' for Inactive)
REMARK    1  A    between atoms: C_1  and  C_2
REMARK    2  A    between atoms: C_2  and  C_3
REMARK    3  A    between atoms: C_2  and  N_4
REMARK    4  A    between atoms: N_4  and  C_5
REMARK    5  A    between atoms: C_5  and  C_6
REMARK    6  A    between atoms: C_6  and  C_7
REMARK    7  A    between atoms: C_6  and  O_19
REMARK    8  A    between atoms: C_7  and  O_8
REMARK    9  A    between atoms: O_8  and  C_9
REMARK   10  A    between atoms: C_12  and  C_13
REMARK   11  A    between atoms: C_13  and  C_14
REMARK   12  A    between atoms: O_19  and  C_20
REMARK   13  A    between atoms: C_20  and  C_22
REMARK   14  A    between atoms: C_22  and  C_23
REMARK   15  A    between atoms: C_23  and  N_24
REMARK   16  A    between atoms: C_23  and  C_30
REMARK   17  A    between atoms: N_24  and  C_25
REMARK   18  A    between atoms: C_25  and  C_27
REMARK   19  A    between atoms: C_27  and  C_28
REMARK   20  A    between atoms: C_27  and  N_29
REMARK   21  A    between atoms: C_30  and  O_32
REMARK                            x       y       z     vdW  Elec       q    Type
REMARK                         _______ _______ _______ _____ _____    ______ ____
ROOT
ATOM      1  C   UNK A   1       4.003   4.109  18.904  0.00  0.00    +0.000 C 
ENDROOT
BRANCH   1   2
ATOM      2  O   UNK A   1       4.807   4.072  17.698  0.00  0.00    +0.000 OA
BRANCH   2   3
ATOM      3  C   UNK A   1       4.106   4.048  16.530  0.00  0.00    +0.000 C 
ATOM      4  O   UNK A   1       3.126   3.350  16.305  0.00  0.00    +0.000 OA
BRANCH   3   5
ATOM      5  C   UNK A   1       4.735   4.965  15.513  0.00  0.00    +0.000 C 
BRANCH   5   6
ATOM      6  C   UNK A   1       6.263   4.915  15.625  0.00  0.00    +0.000 C 
BRANCH   6   7
ATOM      7  C   UNK A   1       6.874   4.604  14.251  0.00  0.00    +0.000 C 
ATOM      8  O   UNK A   1       6.437   3.752  13.489  0.00  0.00    +0.000 OA
BRANCH   7   9
ATOM      9  O   UNK A   1       7.876   5.442  13.895  0.00  0.00    +0.000 OA
ATOM     10  H   UNK A   1       7.814   6.330  14.305  0.00  0.00    +0.000 HD
ENDBRANCH   7   9
ENDBRANCH   6   7
BRANCH   6  11
ATOM     11  N   UNK A   1       6.801   6.218  16.085  0.00  0.00    +0.000 N 
ATOM     12  H   UNK A   1       6.985   6.896  15.351  0.00  0.00    +0.000 HD
BRANCH  11  13
ATOM     13  C   UNK A   0       7.340   6.493  17.332  0.00  0.00    +0.000 C 
ATOM     14  S   UNK A   0       7.912   7.999  17.806  0.00  0.00    +0.000 S 
BRANCH  13  15
ATOM     15  C   UNK A   0       7.408   5.299  18.319  0.00  0.00    +0.000 C 
ATOM     16  C   UNK A   0       8.006   5.700  19.663  0.00  0.00    +0.000 C 
BRANCH  15  17
ATOM     17  N   UNK A   0       8.192   4.208  17.724  0.00  0.00    +0.000 NA
ATOM     18  H   UNK A   0       7.705   3.319  17.762  0.00  0.00    +0.000 HD
ATOM     19  H   UNK A   0       9.065   4.093  18.241  0.00  0.00    +0.000 HD
ENDBRANCH  15  17
ENDBRANCH  13  15
ENDBRANCH  11  13
ENDBRANCH   6  11
ENDBRANCH   5   6
ENDBRANCH   3   5
ENDBRANCH   2   3
ENDBRANCH   1   2
BRANCH   1  20
ATOM     20  C   UNK A   1       4.052   5.518  19.514  0.00  0.00    +0.000 C 
BRANCH  20  21
ATOM     21  O   UNK A   1       2.774   5.839  20.072  0.00  0.00    +0.000 OA
BRANCH  21  22
ATOM     22  C   UNK A   1       2.295   7.092  19.804  0.00  0.00    +0.000 A 
ATOM     23  C   UNK A   1       2.569   7.560  18.518  0.00  0.00    +0.000 A 
ATOM     24  C   UNK A   1       2.097   8.806  18.097  0.00  0.00    +0.000 A 
ATOM     25  C   UNK A   1       1.327   9.599  18.957  0.00  0.00    +0.000 A 
ATOM     26  C   UNK A   1       1.056   9.128  20.247  0.00  0.00    +0.000 A 
ATOM     27  C   UNK A   1       1.540   7.883  20.670  0.00  0.00    +0.000 A 
BRANCH  25  28
ATOM     28  C   UNK A   1       0.773  10.925  18.488  0.00  0.00    +0.000 C 
BRANCH  28  29
ATOM     29  C   UNK A   1       1.690  12.135  18.603  0.00  0.00    +0.000 C 
ATOM     30  N   UNK A   1       2.453  12.480  17.528  0.00  0.00    +0.000 N 
ATOM     31  O   UNK A   1       1.747  12.809  19.632  0.00  0.00    +0.000 OA
ATOM     32  H   UNK A   1       2.509  11.924  16.687  0.00  0.00    +0.000 HD
ATOM     33  H   UNK A   1       3.077  13.267  17.631  0.00  0.00    +0.000 HD
ENDBRANCH  28  29
ENDBRANCH  25  28
ENDBRANCH  21  22
ENDBRANCH  20  21
ENDBRANCH   1  20
BRANCH   1  34
ATOM     34  C   UNK A   1       4.552   3.078  19.915  0.00  0.00    +0.000 C 
BRANCH  34  35
ATOM     35  N   UNK A   1       3.546   2.408  20.752  0.00  0.00    +0.000 NA
ATOM     36  H   UNK A   1       3.675   1.397  20.677  0.00  0.00    +0.000 HD
BRANCH  35  38
ATOM     37  C   UNK A   1       1.609   1.883  19.265  0.00  0.00    +0.000 C 
ATOM     38  C   UNK A   1       2.154   2.740  20.408  0.00  0.00    +0.000 C 
ATOM     39  C   UNK A   1       1.293   2.556  21.659  0.00  0.00    +0.000 C 
ENDBRANCH  35  38
ENDBRANCH  34  35
ENDBRANCH   1  34
TORSDOF 18
ENDMDL
MODEL 3
REMARK VINA RESULT:      -6.4      2.615      8.836
REMARK  Name = 
REMARK  21 active torsions:
REMARK  status: ('A' for Active; 'I' for Inactive)
REMARK    1  A    between atoms: C_1  and  C_2
REMARK    2  A    between atoms: C_2  and  C_3
REMARK    3  A    between atoms: C_2  and  N_4
REMARK    4  A    between atoms: N_4  and  C_5
REMARK    5  A    between atoms: C_5  and  C_6
REMARK    6  A    between atoms: C_6  and  C_7
REMARK    7  A    between atoms: C_6  and  O_19
REMARK    8  A    between atoms: C_7  and  O_8
REMARK    9  A    between atoms: O_8  and  C_9
REMARK   10  A    between atoms: C_12  and  C_13
REMARK   11  A    between atoms: C_13  and  C_14
REMARK   12  A    between atoms: O_19  and  C_20
REMARK   13  A    between atoms: C_20  and  C_22
REMARK   14  A    between atoms: C_22  and  C_23
REMARK   15  A    between atoms: C_23  and  N_24
REMARK   16  A    between atoms: C_23  and  C_30
REMARK   17  A    between atoms: N_24  and  C_25
REMARK   18  A    between atoms: C_25  and  C_27
REMARK   19  A    between atoms: C_27  and  C_28
REMARK   20  A    between atoms: C_27  and  N_29
REMARK   21  A    between atoms: C_30  and  O_32
REMARK                            x       y       z     vdW  Elec       q    Type
REMARK                         _______ _______ _______ _____ _____    ______ ____
ROOT
ATOM      1  C   UNK A   1       2.265   4.857  17.755  0.00  0.00    +0.000 C 
ENDROOT
BRANCH   1   2
ATOM      2  O   UNK A   1       2.848   3.847  16.892  0.00  0.00    +0.000 OA
BRANCH   2   3
ATOM      3  C   UNK A   1       4.209   3.846  16.831  0.00  0.00    +0.000 C 
ATOM      4  O   UNK A   1       4.955   3.348  17.664  0.00  0.00    +0.000 OA
BRANCH   3   5
ATOM      5  C   UNK A   1       4.688   4.601  15.618  0.00  0.00    +0.000 C 
BRANCH   5   6
ATOM      6  C   UNK A   1       6.211   4.759  15.657  0.00  0.00    +0.000 C 
BRANCH   6   7
ATOM      7  C   UNK A   1       6.791   4.560  14.248  0.00  0.00    +0.000 C 
ATOM      8  O   UNK A   1       6.312   3.799  13.418  0.00  0.00    +0.000 OA
BRANCH   7   9
ATOM      9  O   UNK A   1       7.815   5.393  13.955  0.00  0.00    +0.000 OA
ATOM     10  H   UNK A   1       8.646   5.183  14.431  0.00  0.00    +0.000 HD
ENDBRANCH   7   9
ENDBRANCH   6   7
BRANCH   6  11
ATOM     11  N   UNK A   1       6.589   6.116  16.122  0.00  0.00    +0.000 N 
ATOM     12  H   UNK A   1       6.591   6.836  15.406  0.00  0.00    +0.000 HD
BRANCH  11  13
ATOM     13  C   UNK A   0       7.205   6.434  17.322  0.00  0.00    +0.000 C 
ATOM     14  S   UNK A   0       7.786   7.960  17.715  0.00  0.00    +0.000 S 
BRANCH  13  15
ATOM     15  C   UNK A   0       7.354   5.270  18.336  0.00  0.00    +0.000 C 
ATOM     16  C   UNK A   0       7.992   5.727  19.644  0.00  0.00    +0.000 C 
BRANCH  15  17
ATOM     17  N   UNK A   0       8.153   4.191  17.738  0.00  0.00    +0.000 NA
ATOM     18  H   UNK A   0       9.150   4.359  17.821  0.00  0.00    +0.000 HD
ATOM     19  H   UNK A   0       7.943   4.123  16.741  0.00  0.00    +0.000 HD
ENDBRANCH  15  17
ENDBRANCH  13  15
ENDBRANCH  11  13
ENDBRANCH   6  11
ENDBRANCH   5   6
ENDBRANCH   3   5
ENDBRANCH   2   3
ENDBRANCH   1   2
BRANCH   1  20
ATOM     20  C   UNK A   1       3.379   5.737  18.343  0.00  0.00    +0.000 C 
BRANCH  20  21
ATOM     21  O   UNK A   1       3.233   7.075  17.859  0.00  0.00    +0.000 OA
BRANCH  21  22
ATOM     22  C   UNK A   1       2.390   7.886  18.569  0.00  0.00    +0.000 A 
ATOM     23  C   UNK A   1       1.793   8.904  17.825  0.00  0.00    +0.000 A 
ATOM     24  C   UNK A   1       0.875   9.775  18.417  0.00  0.00    +0.000 A 
ATOM     25  C   UNK A   1       0.529   9.629  19.765  0.00  0.00    +0.000 A 
ATOM     26  C   UNK A   1       1.131   8.608  20.511  0.00  0.00    +0.000 A 
ATOM     27  C   UNK A   1       2.059   7.743  19.917  0.00  0.00    +0.000 A 
BRANCH  25  28
ATOM     28  C   UNK A   1      -0.502  10.539  20.396  0.00  0.00    +0.000 C 
BRANCH  28  29
ATOM     29  C   UNK A   1      -0.038  11.402  21.560  0.00  0.00    +0.000 C 
ATOM     30  N   UNK A   1       0.388  12.671  21.303  0.00  0.00    +0.000 N 
ATOM     31  O   UNK A   1      -0.051  10.989  22.720  0.00  0.00    +0.000 OA
ATOM     32  H   UNK A   1       0.496  13.041  20.368  0.00  0.00    +0.000 HD
ATOM     33  H   UNK A   1       0.719  13.221  22.082  0.00  0.00    +0.000 HD
ENDBRANCH  28  29
ENDBRANCH  25  28
ENDBRANCH  21  22
ENDBRANCH  20  21
ENDBRANCH   1  20
BRANCH   1  34
ATOM     34  C   UNK A   1       1.483   4.165  18.893  0.00  0.00    +0.000 C 
BRANCH  34  35
ATOM     35  N   UNK A   1       2.097   4.243  20.226  0.00  0.00    +0.000 NA
ATOM     36  H   UNK A   1       2.934   4.827  20.169  0.00  0.00    +0.000 HD
BRANCH  35  38
ATOM     37  C   UNK A   1       1.515   2.505  21.922  0.00  0.00    +0.000 C 
ATOM     38  C   UNK A   1       2.461   2.939  20.803  0.00  0.00    +0.000 C 
ATOM     39  C   UNK A   1       2.459   1.899  19.680  0.00  0.00    +0.000 C 
ENDBRANCH  35  38
ENDBRANCH  34  35
ENDBRANCH   1  34
TORSDOF 18
ENDMDL
MODEL 4
REMARK VINA RESULT:      -6.4      2.367      2.809
REMARK  Name = 
REMARK  21 active torsions:
REMARK  status: ('A' for Active; 'I' for Inactive)
REMARK    1  A    between atoms: C_1  and  C_2
REMARK    2  A    between atoms: C_2  and  C_3
REMARK    3  A    between atoms: C_2  and  N_4
REMARK    4  A    between atoms: N_4  and  C_5
REMARK    5  A    between atoms: C_5  and  C_6
REMARK    6  A    between atoms: C_6  and  C_7
REMARK    7  A    between atoms: C_6  and  O_19
REMARK    8  A    between atoms: C_7  and  O_8
REMARK    9  A    between atoms: O_8  and  C_9
REMARK   10  A    between atoms: C_12  and  C_13
REMARK   11  A    between atoms: C_13  and  C_14
REMARK   12  A    between atoms: O_19  and  C_20
REMARK   13  A    between atoms: C_20  and  C_22
REMARK   14  A    between atoms: C_22  and  C_23
REMARK   15  A    between atoms: C_23  and  N_24
REMARK   16  A    between atoms: C_23  and  C_30
REMARK   17  A    between atoms: N_24  and  C_25
REMARK   18  A    between atoms: C_25  and  C_27
REMARK   19  A    between atoms: C_27  and  C_28
REMARK   20  A    between atoms: C_27  and  N_29
REMARK   21  A    between atoms: C_30  and  O_32
REMARK                            x       y       z     vdW  Elec       q    Type
REMARK                         _______ _______ _______ _____ _____    ______ ____
ROOT
ATOM      1  C   UNK A   1       2.326   6.572  20.389  0.00  0.00    +0.000 C 
ENDROOT
BRANCH   1   2
ATOM      2  O   UNK A   1       1.031   7.221  20.450  0.00  0.00    +0.000 OA
BRANCH   2   3
ATOM      3  C   UNK A   1       1.005   8.411  21.113  0.00  0.00    +0.000 C 
ATOM      4  O   UNK A   1       1.805   8.763  21.970  0.00  0.00    +0.000 OA
BRANCH   3   5
ATOM      5  C   UNK A   1      -0.187   9.230  20.689  0.00  0.00    +0.000 C 
BRANCH   5   6
ATOM      6  C   UNK A   1       0.262  10.434  19.855  0.00  0.00    +0.000 C 
BRANCH   6   7
ATOM      7  C   UNK A   1       0.434  10.014  18.388  0.00  0.00    +0.000 C 
ATOM      8  O   UNK A   1       1.454   9.508  17.941  0.00  0.00    +0.000 OA
BRANCH   7   9
ATOM      9  O   UNK A   1      -0.690  10.141  17.647  0.00  0.00    +0.000 OA
ATOM     10  H   UNK A   1      -0.603  10.766  16.897  0.00  0.00    +0.000 HD
ENDBRANCH   7   9
ENDBRANCH   6   7
BRANCH   6  11
ATOM     11  N   UNK A   1      -0.747  11.519  19.909  0.00  0.00    +0.000 N 
ATOM     12  H   UNK A   1      -1.686  11.254  19.625  0.00  0.00    +0.000 HD
BRANCH  11  13
ATOM     13  C   UNK A   0      -0.492  12.877  20.015  0.00  0.00    +0.000 C 
ATOM     14  S   UNK A   0      -0.642  13.762  21.435  0.00  0.00    +0.000 S 
BRANCH  13  15
ATOM     15  C   UNK A   0      -0.050  13.588  18.710  0.00  0.00    +0.000 C 
ATOM     16  C   UNK A   0      -0.100  15.107  18.839  0.00  0.00    +0.000 C 
BRANCH  15  17
ATOM     17  N   UNK A   0      -0.901  13.150  17.594  0.00  0.00    +0.000 NA
ATOM     18  H   UNK A   0      -0.626  12.242  17.234  0.00  0.00    +0.000 HD
ATOM     19  H   UNK A   0      -0.822  13.813  16.823  0.00  0.00    +0.000 HD
ENDBRANCH  15  17
ENDBRANCH  13  15
ENDBRANCH  11  13
ENDBRANCH   6  11
ENDBRANCH   5   6
ENDBRANCH   3   5
ENDBRANCH   2   3
ENDBRANCH   1   2
BRANCH   1  20
ATOM     20  C   UNK A   1       2.843   6.587  18.942  0.00  0.00    +0.000 C 
BRANCH  20  21
ATOM     21  O   UNK A   1       3.221   5.262  18.559  0.00  0.00    +0.000 OA
BRANCH  21  22
ATOM     22  C   UNK A   1       4.082   5.161  17.500  0.00  0.00    +0.000 A 
ATOM     23  C   UNK A   1       4.446   3.856  17.165  0.00  0.00    +0.000 A 
ATOM     24  C   UNK A   1       5.282   3.608  16.073  0.00  0.00    +0.000 A 
ATOM     25  C   UNK A   1       5.757   4.667  15.290  0.00  0.00    +0.000 A 
ATOM     26  C   UNK A   1       5.392   5.975  15.630  0.00  0.00    +0.000 A 
ATOM     27  C   UNK A   1       4.562   6.221  16.731  0.00  0.00    +0.000 A 
BRANCH  25  28
ATOM     28  C   UNK A   1       6.622   4.398  14.079  0.00  0.00    +0.000 C 
BRANCH  28  29
ATOM     29  C   UNK A   1       5.973   3.655  12.920  0.00  0.00    +0.000 C 
ATOM     30  N   UNK A   1       6.749   2.840  12.150  0.00  0.00    +0.000 N 
ATOM     31  O   UNK A   1       4.772   3.762  12.672  0.00  0.00    +0.000 OA
ATOM     32  H   UNK A   1       7.752   2.770  12.255  0.00  0.00    +0.000 HD
ATOM     33  H   UNK A   1       6.310   2.377  11.368  0.00  0.00    +0.000 HD
ENDBRANCH  28  29
ENDBRANCH  25  28
ENDBRANCH  21  22
ENDBRANCH  20  21
ENDBRANCH   1  20
BRANCH   1  34
ATOM     34  C   UNK A   1       2.191   5.116  20.886  0.00  0.00    +0.000 C 
BRANCH  34  35
ATOM     35  N   UNK A   1       0.984   4.402  20.445  0.00  0.00    +0.000 NA
ATOM     36  H   UNK A   1       0.192   4.715  21.010  0.00  0.00    +0.000 HD
BRANCH  35  38
ATOM     37  C   UNK A   1       1.514   2.300  19.206  0.00  0.00    +0.000 C 
ATOM     38  C   UNK A   1       1.082   2.937  20.527  0.00  0.00    +0.000 C 
ATOM     39  C   UNK A   1       2.081   2.583  21.631  0.00  0.00    +0.000 C 
ENDBRANCH  35  38
ENDBRANCH  34  35
ENDBRANCH   1  34
TORSDOF 18
ENDMDL
MODEL 5
REMARK VINA RESULT:      -6.4      2.814      8.679
REMARK  Name = 
REMARK  21 active torsions:
REMARK  status: ('A' for Active; 'I' for Inactive)
REMARK    1  A    between atoms: C_1  and  C_2
REMARK    2  A    between atoms: C_2  and  C_3
REMARK    3  A    between atoms: C_2  and  N_4
REMARK    4  A    between atoms: N_4  and  C_5
REMARK    5  A    between atoms: C_5  and  C_6
REMARK    6  A    between atoms: C_6  and  C_7
REMARK    7  A    between atoms: C_6  and  O_19
REMARK    8  A    between atoms: C_7  and  O_8
REMARK    9  A    between atoms: O_8  and  C_9
REMARK   10  A    between atoms: C_12  and  C_13
REMARK   11  A    between atoms: C_13  and  C_14
REMARK   12  A    between atoms: O_19  and  C_20
REMARK   13  A    between atoms: C_20  and  C_22
REMARK   14  A    between atoms: C_22  and  C_23
REMARK   15  A    between atoms: C_23  and  N_24
REMARK   16  A    between atoms: C_23  and  C_30
REMARK   17  A    between atoms: N_24  and  C_25
REMARK   18  A    between atoms: C_25  and  C_27
REMARK   19  A    between atoms: C_27  and  C_28
REMARK   20  A    between atoms: C_27  and  N_29
REMARK   21  A    between atoms: C_30  and  O_32
REMARK                            x       y       z     vdW  Elec       q    Type
REMARK                         _______ _______ _______ _____ _____    ______ ____
ROOT
ATOM      1  C   UNK A   1       3.201   5.376  18.938  0.00  0.00    +0.000 C 
ENDROOT
BRANCH   1   2
ATOM      2  O   UNK A   1       4.419   4.640  18.655  0.00  0.00    +0.000 OA
BRANCH   2   3
ATOM      3  C   UNK A   1       4.298   3.646  17.731  0.00  0.00    +0.000 C 
ATOM      4  O   UNK A   1       3.933   2.502  17.964  0.00  0.00    +0.000 OA
BRANCH   3   5
ATOM      5  C   UNK A   1       4.736   4.128  16.372  0.00  0.00    +0.000 C 
BRANCH   5   6
ATOM      6  C   UNK A   1       6.199   4.583  16.414  0.00  0.00    +0.000 C 
BRANCH   6   7
ATOM      7  C   UNK A   1       6.794   4.550  14.998  0.00  0.00    +0.000 C 
ATOM      8  O   UNK A   1       7.650   5.330  14.603  0.00  0.00    +0.000 OA
BRANCH   7   9
ATOM      9  O   UNK A   1       6.377   3.501  14.254  0.00  0.00    +0.000 OA
ATOM     10  H   UNK A   1       5.988   2.771  14.780  0.00  0.00    +0.000 HD
ENDBRANCH   7   9
ENDBRANCH   6   7
BRANCH   6  11
ATOM     11  N   UNK A   1       6.305   5.971  16.926  0.00  0.00    +0.000 N 
ATOM     12  H   UNK A   1       5.781   6.668  16.405  0.00  0.00    +0.000 HD
BRANCH  11  13
ATOM     13  C   UNK A   0       7.245   6.447  17.826  0.00  0.00    +0.000 C 
ATOM     14  S   UNK A   0       7.751   5.617  19.196  0.00  0.00    +0.000 S 
BRANCH  13  15
ATOM     15  C   UNK A   0       7.835   7.847  17.514  0.00  0.00    +0.000 C 
ATOM     16  C   UNK A   0       8.609   8.420  18.696  0.00  0.00    +0.000 C 
BRANCH  15  17
ATOM     17  N   UNK A   0       6.755   8.765  17.127  0.00  0.00    +0.000 NA
ATOM     18  H   UNK A   0       7.072   9.727  17.064  0.00  0.00    +0.000 HD
ATOM     19  H   UNK A   0       6.016   8.739  17.830  0.00  0.00    +0.000 HD
ENDBRANCH  15  17
ENDBRANCH  13  15
ENDBRANCH  11  13
ENDBRANCH   6  11
ENDBRANCH   5   6
ENDBRANCH   3   5
ENDBRANCH   2   3
ENDBRANCH   1   2
BRANCH   1  20
ATOM     20  C   UNK A   1       3.488   6.885  18.894  0.00  0.00    +0.000 C 
BRANCH  20  21
ATOM     21  O   UNK A   1       2.449   7.544  18.165  0.00  0.00    +0.000 OA
BRANCH  21  22
ATOM     22  C   UNK A   1       1.704   8.455  18.864  0.00  0.00    +0.000 A 
ATOM     23  C   UNK A   1       1.142   9.470  18.089  0.00  0.00    +0.000 A 
ATOM     24  C   UNK A   1       0.320  10.439  18.670  0.00  0.00    +0.000 A 
ATOM     25  C   UNK A   1       0.037  10.397  20.040  0.00  0.00    +0.000 A 
ATOM     26  C   UNK A   1       0.604   9.379  20.817  0.00  0.00    +0.000 A 
ATOM     27  C   UNK A   1       1.436   8.415  20.233  0.00  0.00    +0.000 A 
BRANCH  25  28
ATOM     28  C   UNK A   1      -0.892  11.415  20.663  0.00  0.00    +0.000 C 
BRANCH  28  29
ATOM     29  C   UNK A   1      -0.345  12.222  21.832  0.00  0.00    +0.000 C 
ATOM     30  N   UNK A   1       0.402  13.332  21.566  0.00  0.00    +0.000 N 
ATOM     31  O   UNK A   1      -0.570  11.907  23.000  0.00  0.00    +0.000 OA
ATOM     32  H   UNK A   1       0.685  13.598  20.634  0.00  0.00    +0.000 HD
ATOM     33  H   UNK A   1       0.781  13.840  22.352  0.00  0.00    +0.000 HD
ENDBRANCH  28  29
ENDBRANCH  25  28
ENDBRANCH  21  22
ENDBRANCH  20  21
ENDBRANCH   1  20
BRANCH   1  34
ATOM     34  C   UNK A   1       2.678   4.979  20.336  0.00  0.00    +0.000 C 
BRANCH  34  35
ATOM     35  N   UNK A   1       1.236   4.710  20.423  0.00  0.00    +0.000 NA
ATOM     36  H   UNK A   1       0.847   5.247  21.201  0.00  0.00    +0.000 HD
BRANCH  35  38
ATOM     37  C   UNK A   1       0.762   2.542  19.277  0.00  0.00    +0.000 C 
ATOM     38  C   UNK A   1       0.894   3.290  20.604  0.00  0.00    +0.000 C 
ATOM     39  C   UNK A   1       1.978   2.640  21.468  0.00  0.00    +0.000 C 
ENDBRANCH  35  38
ENDBRANCH  34  35
ENDBRANCH   1  34
TORSDOF 18
ENDMDL
MODEL 6
REMARK VINA RESULT:      -6.4      2.667      8.748
REMARK  Name = 
REMARK  21 active torsions:
REMARK  status: ('A' for Active; 'I' for Inactive)
REMARK    1  A    between atoms: C_1  and  C_2
REMARK    2  A    between atoms: C_2  and  C_3
REMARK    3  A    between atoms: C_2  and  N_4
REMARK    4  A    between atoms: N_4  and  C_5
REMARK    5  A    between atoms: C_5  and  C_6
REMARK    6  A    between atoms: C_6  and  C_7
REMARK    7  A    between atoms: C_6  and  O_19
REMARK    8  A    between atoms: C_7  and  O_8
REMARK    9  A    between atoms: O_8  and  C_9
REMARK   10  A    between atoms: C_12  and  C_13
REMARK   11  A    between atoms: C_13  and  C_14
REMARK   12  A    between atoms: O_19  and  C_20
REMARK   13  A    between atoms: C_20  and  C_22
REMARK   14  A    between atoms: C_22  and  C_23
REMARK   15  A    between atoms: C_23  and  N_24
REMARK   16  A    between atoms: C_23  and  C_30
REMARK   17  A    between atoms: N_24  and  C_25
REMARK   18  A    between atoms: C_25  and  C_27
REMARK   19  A    between atoms: C_27  and  C_28
REMARK   20  A    between atoms: C_27  and  N_29
REMARK   21  A    between atoms: C_30  and  O_32
REMARK                            x       y       z     vdW  Elec       q    Type
REMARK                         _______ _______ _______ _____ _____    ______ ____
ROOT
ATOM      1  C   UNK A   1       4.825   6.931  17.298  0.00  0.00    +0.000 C 
ENDROOT
BRANCH   1   2
ATOM      2  O   UNK A   1       5.226   6.370  18.573  0.00  0.00    +0.000 OA
BRANCH   2   3
ATOM      3  C   UNK A   1       6.299   5.531  18.530  0.00  0.00    +0.000 C 
ATOM      4  O   UNK A   1       7.317   5.716  17.877  0.00  0.00    +0.000 OA
BRANCH   3   5
ATOM      5  C   UNK A   1       6.042   4.297  19.356  0.00  0.00    +0.000 C 
BRANCH   5   6
ATOM      6  C   UNK A   1       4.675   3.698  19.009  0.00  0.00    +0.000 C 
BRANCH   6   7
ATOM      7  C   UNK A   1       4.631   2.223  19.433  0.00  0.00    +0.000 C 
ATOM      8  O   UNK A   1       5.046   1.813  20.509  0.00  0.00    +0.000 OA
BRANCH   7   9
ATOM      9  O   UNK A   1       3.980   1.422  18.560  0.00  0.00    +0.000 OA
ATOM     10  H   UNK A   1       3.271   1.876  18.058  0.00  0.00    +0.000 HD
ENDBRANCH   7   9
ENDBRANCH   6   7
BRANCH   6  11
ATOM     11  N   UNK A   1       3.589   4.415  19.721  0.00  0.00    +0.000 N 
ATOM     12  H   UNK A   1       3.858   5.296  20.149  0.00  0.00    +0.000 HD
BRANCH  11  13
ATOM     13  C   UNK A   0       2.367   3.887  20.105  0.00  0.00    +0.000 C 
ATOM     14  S   UNK A   0       2.028   3.304  21.644  0.00  0.00    +0.000 S 
BRANCH  13  15
ATOM     15  C   UNK A   0       1.273   3.841  19.007  0.00  0.00    +0.000 C 
ATOM     16  C   UNK A   0       0.746   2.428  18.781  0.00  0.00    +0.000 C 
BRANCH  15  17
ATOM     17  N   UNK A   0       1.807   4.386  17.752  0.00  0.00    +0.000 NA
ATOM     18  H   UNK A   0       2.821   4.366  17.725  0.00  0.00    +0.000 HD
ATOM     19  H   UNK A   0       1.525   5.362  17.655  0.00  0.00    +0.000 HD
ENDBRANCH  15  17
ENDBRANCH  13  15
ENDBRANCH  11  13
ENDBRANCH   6  11
ENDBRANCH   5   6
ENDBRANCH   3   5
ENDBRANCH   2   3
ENDBRANCH   1   2
BRANCH   1  20
ATOM     20  C   UNK A   1       3.423   7.548  17.424  0.00  0.00    +0.000 C 
BRANCH  20  21
ATOM     21  O   UNK A   1       2.845   7.161  18.674  0.00  0.00    +0.000 OA
BRANCH  21  22
ATOM     22  C   UNK A   1       1.996   8.065  19.253  0.00  0.00    +0.000 A 
ATOM     23  C   UNK A   1       1.571   9.091  18.409  0.00  0.00    +0.000 A 
ATOM     24  C   UNK A   1       0.666  10.056  18.859  0.00  0.00    +0.000 A 
ATOM     25  C   UNK A   1       0.160   9.997  20.163  0.00  0.00    +0.000 A 
ATOM     26  C   UNK A   1       0.589   8.967  21.009  0.00  0.00    +0.000 A 
ATOM     27  C   UNK A   1       1.505   8.008  20.558  0.00  0.00    +0.000 A 
BRANCH  25  28
ATOM     28  C   UNK A   1      -0.858  11.010  20.637  0.00  0.00    +0.000 C 
BRANCH  28  29
ATOM     29  C   UNK A   1      -0.594  11.676  21.980  0.00  0.00    +0.000 C 
ATOM     30  N   UNK A   1      -1.177  11.152  23.095  0.00  0.00    +0.000 N 
ATOM     31  O   UNK A   1       0.139  12.660  22.083  0.00  0.00    +0.000 OA
ATOM     32  H   UNK A   1      -1.848  10.396  23.066  0.00  0.00    +0.000 HD
ATOM     33  H   UNK A   1      -1.015  11.623  23.973  0.00  0.00    +0.000 HD
ENDBRANCH  28  29
ENDBRANCH  25  28
ENDBRANCH  21  22
ENDBRANCH  20  21
ENDBRANCH   1  20
BRANCH   1  34
ATOM     34  C   UNK A   1       4.815   5.816  16.229  0.00  0.00    +0.000 C 
BRANCH  34  35
ATOM     35  N   UNK A   1       5.723   6.018  15.091  0.00  0.00    +0.000 NA
ATOM     36  H   UNK A   1       5.305   6.698  14.453  0.00  0.00    +0.000 HD
BRANCH  35  38
ATOM     37  C   UNK A   1       7.380   4.875  13.613  0.00  0.00    +0.000 C 
ATOM     38  C   UNK A   1       6.039   4.791  14.342  0.00  0.00    +0.000 C 
ATOM     39  C   UNK A   1       6.048   3.617  15.324  0.00  0.00    +0.000 C 
ENDBRANCH  35  38
ENDBRANCH  34  35
ENDBRANCH   1  34
TORSDOF 18
ENDMDL
MODEL 7
REMARK VINA RESULT:      -6.2      2.269      3.330
REMARK  Name = 
REMARK  21 active torsions:
REMARK  status: ('A' for Active; 'I' for Inactive)
REMARK    1  A    between atoms: C_1  and  C_2
REMARK    2  A    between atoms: C_2  and  C_3
REMARK    3  A    between atoms: C_2  and  N_4
REMARK    4  A    between atoms: N_4  and  C_5
REMARK    5  A    between atoms: C_5  and  C_6
REMARK    6  A    between atoms: C_6  and  C_7
REMARK    7  A    between atoms: C_6  and  O_19
REMARK    8  A    between atoms: C_7  and  O_8
REMARK    9  A    between atoms: O_8  and  C_9
REMARK   10  A    between atoms: C_12  and  C_13
REMARK   11  A    between atoms: C_13  and  C_14
REMARK   12  A    between atoms: O_19  and  C_20
REMARK   13  A    between atoms: C_20  and  C_22
REMARK   14  A    between atoms: C_22  and  C_23
REMARK   15  A    between atoms: C_23  and  N_24
REMARK   16  A    between atoms: C_23  and  C_30
REMARK   17  A    between atoms: N_24  and  C_25
REMARK   18  A    between atoms: C_25  and  C_27
REMARK   19  A    between atoms: C_27  and  C_28
REMARK   20  A    between atoms: C_27  and  N_29
REMARK   21  A    between atoms: C_30  and  O_32
REMARK                            x       y       z     vdW  Elec       q    Type
REMARK                         _______ _______ _______ _____ _____    ______ ____
ROOT
ATOM      1  C   UNK A   1       2.882   7.172  18.615  0.00  0.00    +0.000 C 
ENDROOT
BRANCH   1   2
ATOM      2  O   UNK A   1       2.176   8.096  17.748  0.00  0.00    +0.000 OA
BRANCH   2   3
ATOM      3  C   UNK A   1       1.291   8.922  18.374  0.00  0.00    +0.000 C 
ATOM      4  O   UNK A   1       0.471   9.637  17.814  0.00  0.00    +0.000 OA
BRANCH   3   5
ATOM      5  C   UNK A   1       1.494   8.885  19.867  0.00  0.00    +0.000 C 
BRANCH   5   6
ATOM      6  C   UNK A   1       0.291   9.508  20.583  0.00  0.00    +0.000 C 
BRANCH   6   7
ATOM      7  C   UNK A   1       0.351   9.179  22.082  0.00  0.00    +0.000 C 
ATOM      8  O   UNK A   1       1.226   9.590  22.833  0.00  0.00    +0.000 OA
BRANCH   7   9
ATOM      9  O   UNK A   1      -0.720   8.489  22.534  0.00  0.00    +0.000 OA
ATOM     10  H   UNK A   1      -1.486   9.055  22.768  0.00  0.00    +0.000 HD
ENDBRANCH   7   9
ENDBRANCH   6   7
BRANCH   6  11
ATOM     11  N   UNK A   1       0.296  10.984  20.435  0.00  0.00    +0.000 N 
ATOM     12  H   UNK A   1       1.202  11.429  20.544  0.00  0.00    +0.000 HD
BRANCH  11  13
ATOM     13  C   UNK A   0      -0.811  11.818  20.458  0.00  0.00    +0.000 C 
ATOM     14  S   UNK A   0      -1.686  12.193  21.842  0.00  0.00    +0.000 S 
BRANCH  13  15
ATOM     15  C   UNK A   0      -1.240  12.414  19.092  0.00  0.00    +0.000 C 
ATOM     16  C   UNK A   0      -2.410  11.655  18.477  0.00  0.00    +0.000 C 
BRANCH  15  17
ATOM     17  N   UNK A   0      -0.096  12.410  18.169  0.00  0.00    +0.000 NA
ATOM     18  H   UNK A   0       0.548  11.650  18.358  0.00  0.00    +0.000 HD
ATOM     19  H   UNK A   0       0.429  13.279  18.271  0.00  0.00    +0.000 HD
ENDBRANCH  15  17
ENDBRANCH  13  15
ENDBRANCH  11  13
ENDBRANCH   6  11
ENDBRANCH   5   6
ENDBRANCH   3   5
ENDBRANCH   2   3
ENDBRANCH   1   2
BRANCH   1  20
ATOM     20  C   UNK A   1       4.313   6.966  18.092  0.00  0.00    +0.000 C 
BRANCH  20  21
ATOM     21  O   UNK A   1       4.604   5.566  18.047  0.00  0.00    +0.000 OA
BRANCH  21  22
ATOM     22  C   UNK A   1       5.016   5.073  16.839  0.00  0.00    +0.000 A 
ATOM     23  C   UNK A   1       5.240   6.041  15.859  0.00  0.00    +0.000 A 
ATOM     24  C   UNK A   1       5.708   5.679  14.593  0.00  0.00    +0.000 A 
ATOM     25  C   UNK A   1       5.972   4.337  14.294  0.00  0.00    +0.000 A 
ATOM     26  C   UNK A   1       5.744   3.367  15.278  0.00  0.00    +0.000 A 
ATOM     27  C   UNK A   1       5.264   3.733  16.542  0.00  0.00    +0.000 A 
BRANCH  25  28
ATOM     28  C   UNK A   1       6.525   3.947  12.942  0.00  0.00    +0.000 C 
BRANCH  28  29
ATOM     29  C   UNK A   1       5.673   3.016  12.090  0.00  0.00    +0.000 C 
ATOM     30  N   UNK A   1       6.199   1.819  11.704  0.00  0.00    +0.000 N 
ATOM     31  O   UNK A   1       4.525   3.311  11.757  0.00  0.00    +0.000 OA
ATOM     32  H   UNK A   1       7.158   1.553  11.880  0.00  0.00    +0.000 HD
ATOM     33  H   UNK A   1       5.631   1.227  11.116  0.00  0.00    +0.000 HD
ENDBRANCH  28  29
ENDBRANCH  25  28
ENDBRANCH  21  22
ENDBRANCH  20  21
ENDBRANCH   1  20
BRANCH   1  34
ATOM     34  C   UNK A   1       2.131   5.822  18.642  0.00  0.00    +0.000 C 
BRANCH  34  35
ATOM     35  N   UNK A   1       2.424   4.954  19.792  0.00  0.00    +0.000 NA
ATOM     36  H   UNK A   1       3.413   5.047  20.031  0.00  0.00    +0.000 HD
BRANCH  35  38
ATOM     37  C   UNK A   1       1.055   3.003  20.537  0.00  0.00    +0.000 C 
ATOM     38  C   UNK A   1       2.116   3.532  19.571  0.00  0.00    +0.000 C 
ATOM     39  C   UNK A   1       1.644   3.361  18.126  0.00  0.00    +0.000 C 
ENDBRANCH  35  38
ENDBRANCH  34  35
ENDBRANCH   1  34
TORSDOF 18
ENDMDL
MODEL 8
REMARK VINA RESULT:      -6.2      2.646      9.210
REMARK  Name = 
REMARK  21 active torsions:
REMARK  status: ('A' for Active; 'I' for Inactive)
REMARK    1  A    between atoms: C_1  and  C_2
REMARK    2  A    between atoms: C_2  and  C_3
REMARK    3  A    between atoms: C_2  and  N_4
REMARK    4  A    between atoms: N_4  and  C_5
REMARK    5  A    between atoms: C_5  and  C_6
REMARK    6  A    between atoms: C_6  and  C_7
REMARK    7  A    between atoms: C_6  and  O_19
REMARK    8  A    between atoms: C_7  and  O_8
REMARK    9  A    between atoms: O_8  and  C_9
REMARK   10  A    between atoms: C_12  and  C_13
REMARK   11  A    between atoms: C_13  and  C_14
REMARK   12  A    between atoms: O_19  and  C_20
REMARK   13  A    between atoms: C_20  and  C_22
REMARK   14  A    between atoms: C_22  and  C_23
REMARK   15  A    between atoms: C_23  and  N_24
REMARK   16  A    between atoms: C_23  and  C_30
REMARK   17  A    between atoms: N_24  and  C_25
REMARK   18  A    between atoms: C_25  and  C_27
REMARK   19  A    between atoms: C_27  and  C_28
REMARK   20  A    between atoms: C_27  and  N_29
REMARK   21  A    between atoms: C_30  and  O_32
REMARK                            x       y       z     vdW  Elec       q    Type
REMARK                         _______ _______ _______ _____ _____    ______ ____
ROOT
ATOM      1  C   UNK A   1       1.581   6.587  19.818  0.00  0.00    +0.000 C 
ENDROOT
BRANCH   1   2
ATOM      2  O   UNK A   1       2.632   6.445  18.829  0.00  0.00    +0.000 OA
BRANCH   2   3
ATOM      3  C   UNK A   1       2.473   5.414  17.953  0.00  0.00    +0.000 C 
ATOM      4  O   UNK A   1       1.400   4.990  17.544  0.00  0.00    +0.000 OA
BRANCH   3   5
ATOM      5  C   UNK A   1       3.807   4.814  17.590  0.00  0.00    +0.000 C 
BRANCH   5   6
ATOM      6  C   UNK A   1       4.612   4.501  18.856  0.00  0.00    +0.000 C 
BRANCH   6   7
ATOM      7  C   UNK A   1       4.805   2.983  18.987  0.00  0.00    +0.000 C 
ATOM      8  O   UNK A   1       5.116   2.425  20.030  0.00  0.00    +0.000 OA
BRANCH   7   9
ATOM      9  O   UNK A   1       4.483   2.292  17.869  0.00  0.00    +0.000 OA
ATOM     10  H   UNK A   1       3.789   1.614  18.010  0.00  0.00    +0.000 HD
ENDBRANCH   7   9
ENDBRANCH   6   7
BRANCH   6  11
ATOM     11  N   UNK A   1       5.952   5.134  18.798  0.00  0.00    +0.000 N 
ATOM     12  H   UNK A   1       6.397   5.293  19.697  0.00  0.00    +0.000 HD
BRANCH  11  13
ATOM     13  C   UNK A   0       6.512   5.778  17.706  0.00  0.00    +0.000 C 
ATOM     14  S   UNK A   0       6.233   7.386  17.309  0.00  0.00    +0.000 S 
BRANCH  13  15
ATOM     15  C   UNK A   0       7.444   4.917  16.814  0.00  0.00    +0.000 C 
ATOM     16  C   UNK A   0       6.668   4.141  15.756  0.00  0.00    +0.000 C 
BRANCH  15  17
ATOM     17  N   UNK A   0       8.215   3.989  17.654  0.00  0.00    +0.000 NA
ATOM     18  H   UNK A   0       7.890   3.981  18.616  0.00  0.00    +0.000 HD
ATOM     19  H   UNK A   0       9.194   4.277  17.672  0.00  0.00    +0.000 HD
ENDBRANCH  15  17
ENDBRANCH  13  15
ENDBRANCH  11  13
ENDBRANCH   6  11
ENDBRANCH   5   6
ENDBRANCH   3   5
ENDBRANCH   2   3
ENDBRANCH   1   2
BRANCH   1  20
ATOM     20  C   UNK A   1       1.781   7.896  20.599  0.00  0.00    +0.000 C 
BRANCH  20  21
ATOM     21  O   UNK A   1       0.857   7.943  21.690  0.00  0.00    +0.000 OA
BRANCH  21  22
ATOM     22  C   UNK A   1       0.186   9.123  21.863  0.00  0.00    +0.000 A 
ATOM     23  C   UNK A   1      -0.021   9.854  20.693  0.00  0.00    +0.000 A 
ATOM     24  C   UNK A   1      -0.734  11.055  20.719  0.00  0.00    +0.000 A 
ATOM     25  C   UNK A   1      -1.264  11.537  21.923  0.00  0.00    +0.000 A 
ATOM     26  C   UNK A   1      -1.053  10.803  23.096  0.00  0.00    +0.000 A 
ATOM     27  C   UNK A   1      -0.328   9.604  23.067  0.00  0.00    +0.000 A 
BRANCH  25  28
ATOM     28  C   UNK A   1      -2.079  12.811  21.947  0.00  0.00    +0.000 C 
BRANCH  28  29
ATOM     29  C   UNK A   1      -3.544  12.700  21.551  0.00  0.00    +0.000 C 
ATOM     30  N   UNK A   1      -4.469  12.479  22.528  0.00  0.00    +0.000 N 
ATOM     31  O   UNK A   1      -3.911  12.817  20.382  0.00  0.00    +0.000 OA
ATOM     32  H   UNK A   1      -4.225  12.297  23.491  0.00  0.00    +0.000 HD
ATOM     33  H   UNK A   1      -5.433  12.379  22.245  0.00  0.00    +0.000 HD
ENDBRANCH  28  29
ENDBRANCH  25  28
ENDBRANCH  21  22
ENDBRANCH  20  21
ENDBRANCH   1  20
BRANCH   1  34
ATOM     34  C   UNK A   1       1.625   5.384  20.786  0.00  0.00    +0.000 C 
BRANCH  34  35
ATOM     35  N   UNK A   1       0.624   4.335  20.543  0.00  0.00    +0.000 NA
ATOM     36  H   UNK A   1      -0.208   4.537  21.102  0.00  0.00    +0.000 HD
BRANCH  35  38
ATOM     37  C   UNK A   1       1.439   2.174  19.593  0.00  0.00    +0.000 C 
ATOM     38  C   UNK A   1       1.087   2.973  20.849  0.00  0.00    +0.000 C 
ATOM     39  C   UNK A   1       2.309   3.074  21.765  0.00  0.00    +0.000 C 
ENDBRANCH  35  38
ENDBRANCH  34  35
ENDBRANCH   1  34
TORSDOF 18
ENDMDL
MODEL 9
REMARK VINA RESULT:      -6.2      2.277      3.161
REMARK  Name = 
REMARK  21 active torsions:
REMARK  status: ('A' for Active; 'I' for Inactive)
REMARK    1  A    between atoms: C_1  and  C_2
REMARK    2  A    between atoms: C_2  and  C_3
REMARK    3  A    between atoms: C_2  and  N_4
REMARK    4  A    between atoms: N_4  and  C_5
REMARK    5  A    between atoms: C_5  and  C_6
REMARK    6  A    between atoms: C_6  and  C_7
REMARK    7  A    between atoms: C_6  and  O_19
REMARK    8  A    between atoms: C_7  and  O_8
REMARK    9  A    between atoms: O_8  and  C_9
REMARK   10  A    between atoms: C_12  and  C_13
REMARK   11  A    between atoms: C_13  and  C_14
REMARK   12  A    between atoms: O_19  and  C_20
REMARK   13  A    between atoms: C_20  and  C_22
REMARK   14  A    between atoms: C_22  and  C_23
REMARK   15  A    between atoms: C_23  and  N_24
REMARK   16  A    between atoms: C_23  and  C_30
REMARK   17  A    between atoms: N_24  and  C_25
REMARK   18  A    between atoms: C_25  and  C_27
REMARK   19  A    between atoms: C_27  and  C_28
REMARK   20  A    between atoms: C_27  and  N_29
REMARK   21  A    between atoms: C_30  and  O_32
REMARK                            x       y       z     vdW  Elec       q    Type
REMARK                         _______ _______ _______ _____ _____    ______ ____
ROOT
ATOM      1  C   UNK A   1       2.377   7.235  19.266  0.00  0.00    +0.000 C 
ENDROOT
BRANCH   1   2
ATOM      2  O   UNK A   1       1.178   8.011  19.014  0.00  0.00    +0.000 OA
BRANCH   2   3
ATOM      3  C   UNK A   1       1.389   9.291  18.596  0.00  0.00    +0.000 C 
ATOM      4  O   UNK A   1       2.418   9.708  18.080  0.00  0.00    +0.000 OA
BRANCH   3   5
ATOM      5  C   UNK A   1       0.196  10.156  18.910  0.00  0.00    +0.000 C 
BRANCH   5   6
ATOM      6  C   UNK A   1       0.441  10.957  20.193  0.00  0.00    +0.000 C 
BRANCH   6   7
ATOM      7  C   UNK A   1       0.538  10.001  21.391  0.00  0.00    +0.000 C 
ATOM      8  O   UNK A   1       1.350  10.128  22.298  0.00  0.00    +0.000 OA
BRANCH   7   9
ATOM      9  O   UNK A   1      -0.438   9.065  21.425  0.00  0.00    +0.000 OA
ATOM     10  H   UNK A   1      -0.302   8.328  20.794  0.00  0.00    +0.000 HD
ENDBRANCH   7   9
ENDBRANCH   6   7
BRANCH   6  11
ATOM     11  N   UNK A   1       1.711  11.717  20.105  0.00  0.00    +0.000 N 
ATOM     12  H   UNK A   1       2.544  11.205  20.382  0.00  0.00    +0.000 HD
BRANCH  11  13
ATOM     13  C   UNK A   0       1.842  13.090  19.977  0.00  0.00    +0.000 C 
ATOM     14  S   UNK A   0       1.108  14.212  20.989  0.00  0.00    +0.000 S 
BRANCH  13  15
ATOM     15  C   UNK A   0       2.727  13.580  18.801  0.00  0.00    +0.000 C 
ATOM     16  C   UNK A   0       2.435  15.030  18.429  0.00  0.00    +0.000 C 
BRANCH  15  17
ATOM     17  N   UNK A   0       2.526  12.711  17.633  0.00  0.00    +0.000 NA
ATOM     18  H   UNK A   0       3.103  11.877  17.671  0.00  0.00    +0.000 HD
ATOM     19  H   UNK A   0       2.782  13.214  16.784  0.00  0.00    +0.000 HD
ENDBRANCH  15  17
ENDBRANCH  13  15
ENDBRANCH  11  13
ENDBRANCH   6  11
ENDBRANCH   5   6
ENDBRANCH   3   5
ENDBRANCH   2   3
ENDBRANCH   1   2
BRANCH   1  20
ATOM     20  C   UNK A   1       2.796   6.502  17.983  0.00  0.00    +0.000 C 
BRANCH  20  21
ATOM     21  O   UNK A   1       4.169   6.112  18.085  0.00  0.00    +0.000 OA
BRANCH  21  22
ATOM     22  C   UNK A   1       4.709   5.506  16.984  0.00  0.00    +0.000 A 
ATOM     23  C   UNK A   1       5.060   6.377  15.951  0.00  0.00    +0.000 A 
ATOM     24  C   UNK A   1       5.664   5.895  14.787  0.00  0.00    +0.000 A 
ATOM     25  C   UNK A   1       5.941   4.530  14.646  0.00  0.00    +0.000 A 
ATOM     26  C   UNK A   1       5.587   3.658  15.683  0.00  0.00    +0.000 A 
ATOM     27  C   UNK A   1       4.970   4.143  16.844  0.00  0.00    +0.000 A 
BRANCH  25  28
ATOM     28  C   UNK A   1       6.640   4.012  13.410  0.00  0.00    +0.000 C 
BRANCH  28  29
ATOM     29  C   UNK A   1       5.790   3.245  12.407  0.00  0.00    +0.000 C 
ATOM     30  N   UNK A   1       6.317   2.134  11.818  0.00  0.00    +0.000 N 
ATOM     31  O   UNK A   1       4.643   3.594  12.128  0.00  0.00    +0.000 OA
ATOM     32  H   UNK A   1       7.276   1.842  11.946  0.00  0.00    +0.000 HD
ATOM     33  H   UNK A   1       5.751   1.653  11.135  0.00  0.00    +0.000 HD
ENDBRANCH  28  29
ENDBRANCH  25  28
ENDBRANCH  21  22
ENDBRANCH  20  21
ENDBRANCH   1  20
BRANCH   1  34
ATOM     34  C   UNK A   1       2.096   6.213  20.390  0.00  0.00    +0.000 C 
BRANCH  34  35
ATOM     35  N   UNK A   1       3.012   5.065  20.449  0.00  0.00    +0.000 NA
ATOM     36  H   UNK A   1       3.632   5.096  19.637  0.00  0.00    +0.000 HD
BRANCH  35  38
ATOM     37  C   UNK A   1       2.204   3.209  21.912  0.00  0.00    +0.000 C 
ATOM     38  C   UNK A   1       2.341   3.756  20.490  0.00  0.00    +0.000 C 
ATOM     39  C   UNK A   1       0.960   3.903  19.848  0.00  0.00    +0.000 C 
ENDBRANCH  35  38
ENDBRANCH  34  35
ENDBRANCH   1  34
TORSDOF 18
ENDMDL
