MODEL 1
REMARK VINA RESULT:      -8.8      0.000      0.000
REMARK  Name = 
REMARK  8 active torsions:
REMARK  status: ('A' for Active; 'I' for Inactive)
REMARK    1  A    between atoms: C_1  and  C_2
REMARK    2  A    between atoms: C_6  and  C_7
REMARK    3  A    between atoms: N_9  and  C_10
REMARK    4  A    between atoms: C_14  and  C_15
REMARK    5  A    between atoms: C_15  and  O_17
REMARK    6  A    between atoms: O_17  and  C_18
REMARK    7  A    between atoms: C_18  and  C_19
REMARK    8  A    between atoms: C_25  and  C_26
REMARK                            x       y       z     vdW  Elec       q    Type
REMARK                         _______ _______ _______ _____ _____    ______ ____
ROOT
ATOM      1  C   UNL     1       4.067   5.042  17.525  0.00  0.00    +0.000 A 
ATOM      2  C   UNL     1       4.110   4.075  18.534  0.00  0.00    +0.000 A 
ATOM      3  C   UNL     1       3.493   4.289  19.769  0.00  0.00    +0.000 A 
ATOM      4  C   UNL     1       2.820   5.480  20.017  0.00  0.00    +0.000 A 
ATOM      5  C   UNL     1       2.779   6.474  19.032  0.00  0.00    +0.000 A 
ATOM      6  C   UNL     1       3.428   6.260  17.797  0.00  0.00    +0.000 A 
ENDROOT
BRANCH   1   9
ATOM      7  C   UNL     1       5.986   4.839  15.950  0.00  0.00    +0.000 C 
ATOM      8  O   UNL     1       6.890   5.015  16.766  0.00  0.00    +0.000 OA
ATOM      9  N   UNL     1       4.625   4.832  16.233  0.00  0.00    +0.000 N 
ATOM     10  H   UNL     1       4.002   4.482  15.517  0.00  0.00    +0.000 HD
BRANCH   7  16
ATOM     11  C   UNL     1       5.438   2.422  11.529  0.00  0.00    +0.000 C 
ATOM     12  C   UNL     1       6.143   3.415  12.409  0.00  0.00    +0.000 A 
ATOM     13  C   UNL     1       7.187   4.193  11.888  0.00  0.00    +0.000 A 
ATOM     14  C   UNL     1       7.833   5.135  12.685  0.00  0.00    +0.000 A 
ATOM     15  C   UNL     1       7.438   5.305  14.010  0.00  0.00    +0.000 A 
ATOM     16  C   UNL     1       6.401   4.530  14.554  0.00  0.00    +0.000 A 
ATOM     17  C   UNL     1       5.753   3.583  13.751  0.00  0.00    +0.000 A 
ENDBRANCH   7  16
ENDBRANCH   1   9
BRANCH   5  18
ATOM     18  C   UNL     1       2.043   7.753  19.248  0.00  0.00    +0.000 C 
ATOM     19  O   UNL     1       1.689   8.137  20.352  0.00  0.00    +0.000 OA
BRANCH  18  20
ATOM     20  O   UNL     1       1.852   8.405  18.078  0.00  0.00    +0.000 OA
BRANCH  20  21
ATOM     21  C   UNL     1       1.964   9.840  18.101  0.00  0.00    +0.000 C 
BRANCH  21  22
ATOM     22  C   UNL     1       0.610  10.457  18.409  0.00  0.00    +0.000 A 
ATOM     23  C   UNL     1       0.516  11.487  19.270  0.00  0.00    +0.000 A 
ATOM     24  C   UNL     1      -0.810  12.075  19.576  0.00  0.00    +0.000 A 
ATOM     25  O   UNL     1      -0.885  13.021  20.353  0.00  0.00    +0.000 OA
ATOM     26  N   UNL     1      -1.850  11.461  18.915  0.00  0.00    +0.000 N 
ATOM     27  N   UNL     1      -3.150  11.905  19.026  0.00  0.00    +0.000 NA
ATOM     28  C   UNL     1      -3.897  11.172  18.264  0.00  0.00    +0.000 A 
ATOM     29  S   UNL     1      -3.139   9.885  17.376  0.00  0.00    +0.000 S 
ATOM     30  C   UNL     1      -1.631  10.412  18.061  0.00  0.00    +0.000 A 
ATOM     31  N   UNL     1      -0.484   9.883  17.785  0.00  0.00    +0.000 NA
BRANCH  28  32
ATOM     32  C   UNL     1      -5.326  11.472  18.074  0.00  0.00    +0.000 C 
ATOM     33  C   UNL     1      -5.966  12.769  18.507  0.00  0.00    +0.000 C 
ATOM     34  C   UNL     1      -5.750  12.499  17.048  0.00  0.00    +0.000 C 
ENDBRANCH  28  32
ENDBRANCH  21  22
ENDBRANCH  20  21
ENDBRANCH  18  20
ENDBRANCH   5  18
TORSDOF 7
ENDMDL
MODEL 2
REMARK VINA RESULT:      -8.8      1.719      1.993
REMARK  Name = 
REMARK  8 active torsions:
REMARK  status: ('A' for Active; 'I' for Inactive)
REMARK    1  A    between atoms: C_1  and  C_2
REMARK    2  A    between atoms: C_6  and  C_7
REMARK    3  A    between atoms: N_9  and  C_10
REMARK    4  A    between atoms: C_14  and  C_15
REMARK    5  A    between atoms: C_15  and  O_17
REMARK    6  A    between atoms: O_17  and  C_18
REMARK    7  A    between atoms: C_18  and  C_19
REMARK    8  A    between atoms: C_25  and  C_26
REMARK                            x       y       z     vdW  Elec       q    Type
REMARK                         _______ _______ _______ _____ _____    ______ ____
ROOT
ATOM      1  C   UNL     1       4.048   4.661  17.627  0.00  0.00    +0.000 A 
ATOM      2  C   UNL     1       3.996   3.706  18.647  0.00  0.00    +0.000 A 
ATOM      3  C   UNL     1       3.369   3.979  19.865  0.00  0.00    +0.000 A 
ATOM      4  C   UNL     1       2.781   5.221  20.085  0.00  0.00    +0.000 A 
ATOM      5  C   UNL     1       2.837   6.203  19.089  0.00  0.00    +0.000 A 
ATOM      6  C   UNL     1       3.496   5.927  17.871  0.00  0.00    +0.000 A 
ENDROOT
BRANCH   1   9
ATOM      7  C   UNL     1       5.626   5.151  15.763  0.00  0.00    +0.000 C 
ATOM      8  O   UNL     1       6.168   6.137  16.259  0.00  0.00    +0.000 OA
ATOM      9  N   UNL     1       4.618   4.395  16.351  0.00  0.00    +0.000 N 
ATOM     10  H   UNL     1       4.399   3.502  15.929  0.00  0.00    +0.000 HD
BRANCH   7  16
ATOM     11  C   UNL     1       5.333   2.410  11.509  0.00  0.00    +0.000 C 
ATOM     12  C   UNL     1       6.027   3.415  12.383  0.00  0.00    +0.000 A 
ATOM     13  C   UNL     1       7.186   4.057  11.924  0.00  0.00    +0.000 A 
ATOM     14  C   UNL     1       7.827   5.010  12.713  0.00  0.00    +0.000 A 
ATOM     15  C   UNL     1       7.311   5.326  13.968  0.00  0.00    +0.000 A 
ATOM     16  C   UNL     1       6.157   4.689  14.450  0.00  0.00    +0.000 A 
ATOM     17  C   UNL     1       5.514   3.731  13.656  0.00  0.00    +0.000 A 
ENDBRANCH   7  16
ENDBRANCH   1   9
BRANCH   5  18
ATOM     18  C   UNL     1       2.194   7.536  19.275  0.00  0.00    +0.000 C 
ATOM     19  O   UNL     1       1.978   8.021  20.375  0.00  0.00    +0.000 OA
BRANCH  18  20
ATOM     20  O   UNL     1       1.915   8.109  18.082  0.00  0.00    +0.000 OA
BRANCH  20  21
ATOM     21  C   UNL     1       1.944   9.548  18.023  0.00  0.00    +0.000 C 
BRANCH  21  22
ATOM     22  C   UNL     1       0.551  10.100  18.275  0.00  0.00    +0.000 A 
ATOM     23  C   UNL     1      -0.500   9.627  17.581  0.00  0.00    +0.000 A 
ATOM     24  C   UNL     1      -1.854  10.179  17.822  0.00  0.00    +0.000 A 
ATOM     25  O   UNL     1      -2.808   9.733  17.194  0.00  0.00    +0.000 OA
ATOM     26  N   UNL     1      -1.881  11.172  18.775  0.00  0.00    +0.000 N 
ATOM     27  N   UNL     1      -3.058  11.766  19.179  0.00  0.00    +0.000 NA
ATOM     28  C   UNL     1      -2.783  12.623  20.109  0.00  0.00    +0.000 A 
ATOM     29  S   UNL     1      -1.119  12.822  20.568  0.00  0.00    +0.000 S 
ATOM     30  C   UNL     1      -0.739  11.576  19.416  0.00  0.00    +0.000 A 
ATOM     31  N   UNL     1       0.450  11.111  19.216  0.00  0.00    +0.000 NA
BRANCH  28  32
ATOM     32  C   UNL     1      -3.848  13.341  20.829  0.00  0.00    +0.000 C 
ATOM     33  C   UNL     1      -5.226  12.768  21.060  0.00  0.00    +0.000 C 
ATOM     34  C   UNL     1      -4.267  12.881  22.207  0.00  0.00    +0.000 C 
ENDBRANCH  28  32
ENDBRANCH  21  22
ENDBRANCH  20  21
ENDBRANCH  18  20
ENDBRANCH   5  18
TORSDOF 7
ENDMDL
MODEL 3
REMARK VINA RESULT:      -8.7      4.009      6.108
REMARK  Name = 
REMARK  8 active torsions:
REMARK  status: ('A' for Active; 'I' for Inactive)
REMARK    1  A    between atoms: C_1  and  C_2
REMARK    2  A    between atoms: C_6  and  C_7
REMARK    3  A    between atoms: N_9  and  C_10
REMARK    4  A    between atoms: C_14  and  C_15
REMARK    5  A    between atoms: C_15  and  O_17
REMARK    6  A    between atoms: O_17  and  C_18
REMARK    7  A    between atoms: C_18  and  C_19
REMARK    8  A    between atoms: C_25  and  C_26
REMARK                            x       y       z     vdW  Elec       q    Type
REMARK                         _______ _______ _______ _____ _____    ______ ____
ROOT
ATOM      1  C   UNL     1       6.444   6.740  16.978  0.00  0.00    +0.000 A 
ATOM      2  C   UNL     1       6.479   6.186  15.695  0.00  0.00    +0.000 A 
ATOM      3  C   UNL     1       5.887   4.950  15.422  0.00  0.00    +0.000 A 
ATOM      4  C   UNL     1       5.248   4.243  16.436  0.00  0.00    +0.000 A 
ATOM      5  C   UNL     1       5.217   4.764  17.734  0.00  0.00    +0.000 A 
ATOM      6  C   UNL     1       5.840   6.002  18.006  0.00  0.00    +0.000 A 
ENDROOT
BRANCH   1   9
ATOM      7  C   UNL     1       8.019   8.262  18.164  0.00  0.00    +0.000 C 
ATOM      8  O   UNL     1       8.630   7.405  18.802  0.00  0.00    +0.000 OA
ATOM      9  N   UNL     1       6.976   8.026  17.276  0.00  0.00    +0.000 N 
ATOM     10  H   UNL     1       6.695   8.788  16.674  0.00  0.00    +0.000 HD
BRANCH   7  16
ATOM     11  C   UNL     1       7.875  13.198  17.022  0.00  0.00    +0.000 C 
ATOM     12  C   UNL     1       8.430  12.043  17.806  0.00  0.00    +0.000 A 
ATOM     13  C   UNL     1       9.377  12.274  18.814  0.00  0.00    +0.000 A 
ATOM     14  C   UNL     1       9.882  11.217  19.566  0.00  0.00    +0.000 A 
ATOM     15  C   UNL     1       9.441   9.919  19.315  0.00  0.00    +0.000 A 
ATOM     16  C   UNL     1       8.499   9.665  18.305  0.00  0.00    +0.000 A 
ATOM     17  C   UNL     1       7.993  10.730  17.549  0.00  0.00    +0.000 A 
ENDBRANCH   7  16
ENDBRANCH   1   9
BRANCH   5  18
ATOM     18  C   UNL     1       4.517   4.051  18.841  0.00  0.00    +0.000 C 
ATOM     19  O   UNL     1       5.072   3.236  19.562  0.00  0.00    +0.000 OA
BRANCH  18  20
ATOM     20  O   UNL     1       3.226   4.445  18.930  0.00  0.00    +0.000 OA
BRANCH  20  21
ATOM     21  C   UNL     1       2.813   5.065  20.163  0.00  0.00    +0.000 C 
BRANCH  21  22
ATOM     22  C   UNL     1       2.298   6.468  19.885  0.00  0.00    +0.000 A 
ATOM     23  C   UNL     1       2.507   7.039  18.685  0.00  0.00    +0.000 A 
ATOM     24  C   UNL     1       2.014   8.413  18.425  0.00  0.00    +0.000 A 
ATOM     25  O   UNL     1       2.198   8.921  17.324  0.00  0.00    +0.000 OA
ATOM     26  N   UNL     1       1.371   8.979  19.502  0.00  0.00    +0.000 N 
ATOM     27  N   UNL     1       0.792  10.228  19.434  0.00  0.00    +0.000 NA
ATOM     28  C   UNL     1       0.226  10.477  20.571  0.00  0.00    +0.000 A 
ATOM     29  S   UNL     1       0.351   9.278  21.823  0.00  0.00    +0.000 S 
ATOM     30  C   UNL     1       1.222   8.298  20.682  0.00  0.00    +0.000 A 
ATOM     31  N   UNL     1       1.648   7.103  20.929  0.00  0.00    +0.000 NA
BRANCH  28  32
ATOM     32  C   UNL     1      -0.581  11.692  20.775  0.00  0.00    +0.000 C 
ATOM     33  C   UNL     1      -1.374  11.960  22.032  0.00  0.00    +0.000 C 
ATOM     34  C   UNL     1      -0.123  12.742  21.764  0.00  0.00    +0.000 C 
ENDBRANCH  28  32
ENDBRANCH  21  22
ENDBRANCH  20  21
ENDBRANCH  18  20
ENDBRANCH   5  18
TORSDOF 7
ENDMDL
MODEL 4
REMARK VINA RESULT:      -8.5      2.486      3.441
REMARK  Name = 
REMARK  8 active torsions:
REMARK  status: ('A' for Active; 'I' for Inactive)
REMARK    1  A    between atoms: C_1  and  C_2
REMARK    2  A    between atoms: C_6  and  C_7
REMARK    3  A    between atoms: N_9  and  C_10
REMARK    4  A    between atoms: C_14  and  C_15
REMARK    5  A    between atoms: C_15  and  O_17
REMARK    6  A    between atoms: O_17  and  C_18
REMARK    7  A    between atoms: C_18  and  C_19
REMARK    8  A    between atoms: C_25  and  C_26
REMARK                            x       y       z     vdW  Elec       q    Type
REMARK                         _______ _______ _______ _____ _____    ______ ____
ROOT
ATOM      1  C   UNL     1       4.058   4.510  17.649  0.00  0.00    +0.000 A 
ATOM      2  C   UNL     1       3.995   3.457  18.567  0.00  0.00    +0.000 A 
ATOM      3  C   UNL     1       3.392   3.620  19.816  0.00  0.00    +0.000 A 
ATOM      4  C   UNL     1       2.838   4.845  20.170  0.00  0.00    +0.000 A 
ATOM      5  C   UNL     1       2.905   5.922  19.279  0.00  0.00    +0.000 A 
ATOM      6  C   UNL     1       3.539   5.757  18.029  0.00  0.00    +0.000 A 
ENDROOT
BRANCH   1   9
ATOM      7  C   UNL     1       5.869   4.794  15.963  0.00  0.00    +0.000 C 
ATOM      8  O   UNL     1       6.690   5.348  16.693  0.00  0.00    +0.000 OA
ATOM      9  N   UNL     1       4.604   4.362  16.343  0.00  0.00    +0.000 N 
ATOM     10  H   UNL     1       4.109   3.750  15.707  0.00  0.00    +0.000 HD
BRANCH   7  16
ATOM     11  C   UNL     1       5.368   2.455  11.494  0.00  0.00    +0.000 C 
ATOM     12  C   UNL     1       6.076   3.417  12.406  0.00  0.00    +0.000 A 
ATOM     13  C   UNL     1       7.151   4.175  11.921  0.00  0.00    +0.000 A 
ATOM     14  C   UNL     1       7.801   5.089  12.747  0.00  0.00    +0.000 A 
ATOM     15  C   UNL     1       7.379   5.250  14.065  0.00  0.00    +0.000 A 
ATOM     16  C   UNL     1       6.310   4.494  14.572  0.00  0.00    +0.000 A 
ATOM     17  C   UNL     1       5.657   3.575  13.740  0.00  0.00    +0.000 A 
ENDBRANCH   7  16
ENDBRANCH   1   9
BRANCH   5  18
ATOM     18  C   UNL     1       2.297   7.244  19.609  0.00  0.00    +0.000 C 
ATOM     19  O   UNL     1       1.597   7.425  20.594  0.00  0.00    +0.000 OA
BRANCH  18  20
ATOM     20  O   UNL     1       2.642   8.178  18.693  0.00  0.00    +0.000 OA
BRANCH  20  21
ATOM     21  C   UNL     1       1.586   8.712  17.873  0.00  0.00    +0.000 C 
BRANCH  21  22
ATOM     22  C   UNL     1       1.207  10.100  18.363  0.00  0.00    +0.000 A 
ATOM     23  C   UNL     1       0.023  10.302  18.970  0.00  0.00    +0.000 A 
ATOM     24  C   UNL     1      -0.347  11.661  19.434  0.00  0.00    +0.000 A 
ATOM     25  O   UNL     1      -1.423  11.834  19.996  0.00  0.00    +0.000 OA
ATOM     26  N   UNL     1       0.613  12.612  19.170  0.00  0.00    +0.000 N 
ATOM     27  N   UNL     1       0.476  13.921  19.580  0.00  0.00    +0.000 NA
ATOM     28  C   UNL     1       1.544  14.568  19.237  0.00  0.00    +0.000 A 
ATOM     29  S   UNL     1       2.783  13.700  18.382  0.00  0.00    +0.000 S 
ATOM     30  C   UNL     1       1.785  12.285  18.540  0.00  0.00    +0.000 A 
ATOM     31  N   UNL     1       2.123  11.109  18.124  0.00  0.00    +0.000 NA
BRANCH  28  32
ATOM     32  C   UNL     1       1.752  15.969  19.637  0.00  0.00    +0.000 C 
ATOM     33  C   UNL     1       2.724  16.895  18.946  0.00  0.00    +0.000 C 
ATOM     34  C   UNL     1       1.250  17.088  18.751  0.00  0.00    +0.000 C 
ENDBRANCH  28  32
ENDBRANCH  21  22
ENDBRANCH  20  21
ENDBRANCH  18  20
ENDBRANCH   5  18
TORSDOF 7
ENDMDL
MODEL 5
REMARK VINA RESULT:      -8.3      4.201      9.740
REMARK  Name = 
REMARK  8 active torsions:
REMARK  status: ('A' for Active; 'I' for Inactive)
REMARK    1  A    between atoms: C_1  and  C_2
REMARK    2  A    between atoms: C_6  and  C_7
REMARK    3  A    between atoms: N_9  and  C_10
REMARK    4  A    between atoms: C_14  and  C_15
REMARK    5  A    between atoms: C_15  and  O_17
REMARK    6  A    between atoms: O_17  and  C_18
REMARK    7  A    between atoms: C_18  and  C_19
REMARK    8  A    between atoms: C_25  and  C_26
REMARK                            x       y       z     vdW  Elec       q    Type
REMARK                         _______ _______ _______ _____ _____    ______ ____
ROOT
ATOM      1  C   UNL     1       2.055   5.163  20.590  0.00  0.00    +0.000 A 
ATOM      2  C   UNL     1       2.325   4.129  21.491  0.00  0.00    +0.000 A 
ATOM      3  C   UNL     1       2.854   2.910  21.060  0.00  0.00    +0.000 A 
ATOM      4  C   UNL     1       3.122   2.704  19.711  0.00  0.00    +0.000 A 
ATOM      5  C   UNL     1       2.841   3.714  18.784  0.00  0.00    +0.000 A 
ATOM      6  C   UNL     1       2.283   4.933  19.225  0.00  0.00    +0.000 A 
ENDROOT
BRANCH   1   9
ATOM      7  C   UNL     1       1.701   7.606  20.255  0.00  0.00    +0.000 C 
ATOM      8  O   UNL     1       2.220   7.698  19.143  0.00  0.00    +0.000 OA
ATOM      9  N   UNL     1       1.580   6.440  21.002  0.00  0.00    +0.000 N 
ATOM     10  H   UNL     1       0.963   6.462  21.803  0.00  0.00    +0.000 HD
BRANCH   7  16
ATOM     11  C   UNL     1      -0.018  12.353  19.809  0.00  0.00    +0.000 C 
ATOM     12  C   UNL     1       0.217  11.108  20.615  0.00  0.00    +0.000 A 
ATOM     13  C   UNL     1      -0.255  11.030  21.933  0.00  0.00    +0.000 A 
ATOM     14  C   UNL     1      -0.066   9.872  22.685  0.00  0.00    +0.000 A 
ATOM     15  C   UNL     1       0.597   8.784  22.121  0.00  0.00    +0.000 A 
ATOM     16  C   UNL     1       1.084   8.844  20.806  0.00  0.00    +0.000 A 
ATOM     17  C   UNL     1       0.894  10.009  20.052  0.00  0.00    +0.000 A 
ENDBRANCH   7  16
ENDBRANCH   1   9
BRANCH   5  18
ATOM     18  C   UNL     1       3.142   3.543  17.332  0.00  0.00    +0.000 C 
ATOM     19  O   UNL     1       2.278   3.331  16.496  0.00  0.00    +0.000 OA
BRANCH  18  20
ATOM     20  O   UNL     1       4.467   3.671  17.095  0.00  0.00    +0.000 OA
BRANCH  20  21
ATOM     21  C   UNL     1       4.892   4.835  16.361  0.00  0.00    +0.000 C 
BRANCH  21  22
ATOM     22  C   UNL     1       5.955   5.581  17.152  0.00  0.00    +0.000 A 
ATOM     23  C   UNL     1       6.662   4.943  18.103  0.00  0.00    +0.000 A 
ATOM     24  C   UNL     1       7.687   5.679  18.880  0.00  0.00    +0.000 A 
ATOM     25  O   UNL     1       8.335   5.086  19.736  0.00  0.00    +0.000 OA
ATOM     26  N   UNL     1       7.799   7.004  18.525  0.00  0.00    +0.000 N 
ATOM     27  N   UNL     1       8.740   7.836  19.094  0.00  0.00    +0.000 NA
ATOM     28  C   UNL     1       8.643   9.001  18.538  0.00  0.00    +0.000 A 
ATOM     29  S   UNL     1       7.422   9.223  17.320  0.00  0.00    +0.000 S 
ATOM     30  C   UNL     1       7.018   7.546  17.538  0.00  0.00    +0.000 A 
ATOM     31  N   UNL     1       6.116   6.923  16.854  0.00  0.00    +0.000 NA
BRANCH  28  32
ATOM     32  C   UNL     1       9.594  10.081  18.850  0.00  0.00    +0.000 C 
ATOM     33  C   UNL     1       9.293  11.543  18.622  0.00  0.00    +0.000 C 
ATOM     34  C   UNL     1       9.328  11.001  20.020  0.00  0.00    +0.000 C 
ENDBRANCH  28  32
ENDBRANCH  21  22
ENDBRANCH  20  21
ENDBRANCH  18  20
ENDBRANCH   5  18
TORSDOF 7
ENDMDL
MODEL 6
REMARK VINA RESULT:      -8.3      2.864     10.913
REMARK  Name = 
REMARK  8 active torsions:
REMARK  status: ('A' for Active; 'I' for Inactive)
REMARK    1  A    between atoms: C_1  and  C_2
REMARK    2  A    between atoms: C_6  and  C_7
REMARK    3  A    between atoms: N_9  and  C_10
REMARK    4  A    between atoms: C_14  and  C_15
REMARK    5  A    between atoms: C_15  and  O_17
REMARK    6  A    between atoms: O_17  and  C_18
REMARK    7  A    between atoms: C_18  and  C_19
REMARK    8  A    between atoms: C_25  and  C_26
REMARK                            x       y       z     vdW  Elec       q    Type
REMARK                         _______ _______ _______ _____ _____    ______ ____
ROOT
ATOM      1  C   UNL     1       1.259   9.243  19.493  0.00  0.00    +0.000 A 
ATOM      2  C   UNL     1       1.798   9.420  18.215  0.00  0.00    +0.000 A 
ATOM      3  C   UNL     1       2.476   8.387  17.564  0.00  0.00    +0.000 A 
ATOM      4  C   UNL     1       2.628   7.151  18.184  0.00  0.00    +0.000 A 
ATOM      5  C   UNL     1       2.117   6.953  19.472  0.00  0.00    +0.000 A 
ATOM      6  C   UNL     1       1.456   8.010  20.133  0.00  0.00    +0.000 A 
ENDROOT
BRANCH   1   9
ATOM      7  C   UNL     1      -0.658  10.825  19.658  0.00  0.00    +0.000 C 
ATOM      8  O   UNL     1      -1.198  10.542  18.590  0.00  0.00    +0.000 OA
ATOM      9  N   UNL     1       0.506  10.250  20.158  0.00  0.00    +0.000 N 
ATOM     10  H   UNL     1       0.734  10.427  21.127  0.00  0.00    +0.000 HD
BRANCH   7  16
ATOM     11  C   UNL     1      -4.591  13.822  20.768  0.00  0.00    +0.000 C 
ATOM     12  C   UNL     1      -3.248  13.236  21.097  0.00  0.00    +0.000 A 
ATOM     13  C   UNL     1      -2.639  13.530  22.326  0.00  0.00    +0.000 A 
ATOM     14  C   UNL     1      -1.405  12.974  22.655  0.00  0.00    +0.000 A 
ATOM     15  C   UNL     1      -0.772  12.118  21.757  0.00  0.00    +0.000 A 
ATOM     16  C   UNL     1      -1.360  11.816  20.518  0.00  0.00    +0.000 A 
ATOM     17  C   UNL     1      -2.601  12.377  20.188  0.00  0.00    +0.000 A 
ENDBRANCH   7  16
ENDBRANCH   1   9
BRANCH   5  18
ATOM     18  C   UNL     1       2.234   5.633  20.160  0.00  0.00    +0.000 C 
ATOM     19  O   UNL     1       1.270   5.030  20.605  0.00  0.00    +0.000 OA
BRANCH  18  20
ATOM     20  O   UNL     1       3.521   5.219  20.196  0.00  0.00    +0.000 OA
BRANCH  20  21
ATOM     21  C   UNL     1       3.875   4.106  19.354  0.00  0.00    +0.000 C 
BRANCH  21  22
ATOM     22  C   UNL     1       4.924   4.539  18.343  0.00  0.00    +0.000 A 
ATOM     23  C   UNL     1       5.920   5.365  18.714  0.00  0.00    +0.000 A 
ATOM     24  C   UNL     1       6.931   5.795  17.720  0.00  0.00    +0.000 A 
ATOM     25  O   UNL     1       7.842   6.538  18.069  0.00  0.00    +0.000 OA
ATOM     26  N   UNL     1       6.720   5.278  16.461  0.00  0.00    +0.000 N 
ATOM     27  N   UNL     1       7.589   5.517  15.418  0.00  0.00    +0.000 NA
ATOM     28  C   UNL     1       7.164   4.871  14.379  0.00  0.00    +0.000 A 
ATOM     29  S   UNL     1       5.696   3.954  14.534  0.00  0.00    +0.000 S 
ATOM     30  C   UNL     1       5.663   4.446  16.201  0.00  0.00    +0.000 A 
ATOM     31  N   UNL     1       4.768   4.064  17.052  0.00  0.00    +0.000 NA
BRANCH  28  32
ATOM     32  C   UNL     1       7.943   4.832  13.130  0.00  0.00    +0.000 C 
ATOM     33  C   UNL     1       7.353   4.441  11.797  0.00  0.00    +0.000 C 
ATOM     34  C   UNL     1       7.704   5.874  12.061  0.00  0.00    +0.000 C 
ENDBRANCH  28  32
ENDBRANCH  21  22
ENDBRANCH  20  21
ENDBRANCH  18  20
ENDBRANCH   5  18
TORSDOF 7
ENDMDL
MODEL 7
REMARK VINA RESULT:      -8.3      3.988      6.628
REMARK  Name = 
REMARK  8 active torsions:
REMARK  status: ('A' for Active; 'I' for Inactive)
REMARK    1  A    between atoms: C_1  and  C_2
REMARK    2  A    between atoms: C_6  and  C_7
REMARK    3  A    between atoms: N_9  and  C_10
REMARK    4  A    between atoms: C_14  and  C_15
REMARK    5  A    between atoms: C_15  and  O_17
REMARK    6  A    between atoms: O_17  and  C_18
REMARK    7  A    between atoms: C_18  and  C_19
REMARK    8  A    between atoms: C_25  and  C_26
REMARK                            x       y       z     vdW  Elec       q    Type
REMARK                         _______ _______ _______ _____ _____    ______ ____
ROOT
ATOM      1  C   UNL     1       0.309  10.437  18.842  0.00  0.00    +0.000 A 
ATOM      2  C   UNL     1      -0.928  10.501  18.194  0.00  0.00    +0.000 A 
ATOM      3  C   UNL     1      -1.547  11.726  17.931  0.00  0.00    +0.000 A 
ATOM      4  C   UNL     1      -0.934  12.914  18.315  0.00  0.00    +0.000 A 
ATOM      5  C   UNL     1       0.294  12.879  18.984  0.00  0.00    +0.000 A 
ATOM      6  C   UNL     1       0.900  11.636  19.269  0.00  0.00    +0.000 A 
ENDROOT
BRANCH   1   9
ATOM      7  C   UNL     1       1.926   8.658  18.190  0.00  0.00    +0.000 C 
ATOM      8  O   UNL     1       2.283   9.142  17.118  0.00  0.00    +0.000 OA
ATOM      9  N   UNL     1       0.999   9.213  19.066  0.00  0.00    +0.000 N 
ATOM     10  H   UNL     1       0.942   8.819  19.996  0.00  0.00    +0.000 HD
BRANCH   7  16
ATOM     11  C   UNL     1       2.328   4.519  21.088  0.00  0.00    +0.000 C 
ATOM     12  C   UNL     1       2.808   5.391  19.963  0.00  0.00    +0.000 A 
ATOM     13  C   UNL     1       3.891   4.979  19.174  0.00  0.00    +0.000 A 
ATOM     14  C   UNL     1       4.332   5.765  18.112  0.00  0.00    +0.000 A 
ATOM     15  C   UNL     1       3.690   6.969  17.832  0.00  0.00    +0.000 A 
ATOM     16  C   UNL     1       2.608   7.403  18.614  0.00  0.00    +0.000 A 
ATOM     17  C   UNL     1       2.166   6.612  19.683  0.00  0.00    +0.000 A 
ENDBRANCH   7  16
ENDBRANCH   1   9
BRANCH   5  18
ATOM     18  C   UNL     1       0.997  14.132  19.385  0.00  0.00    +0.000 C 
ATOM     19  O   UNL     1       2.140  14.392  19.041  0.00  0.00    +0.000 OA
BRANCH  18  20
ATOM     20  O   UNL     1       0.197  14.912  20.147  0.00  0.00    +0.000 OA
BRANCH  20  21
ATOM     21  C   UNL     1       0.334  14.795  21.576  0.00  0.00    +0.000 C 
BRANCH  21  22
ATOM     22  C   UNL     1      -0.826  13.991  22.139  0.00  0.00    +0.000 A 
ATOM     23  C   UNL     1      -0.649  12.705  22.491  0.00  0.00    +0.000 A 
ATOM     24  C   UNL     1      -1.788  11.922  23.027  0.00  0.00    +0.000 A 
ATOM     25  O   UNL     1      -1.615  10.753  23.356  0.00  0.00    +0.000 OA
ATOM     26  N   UNL     1      -2.961  12.638  23.100  0.00  0.00    +0.000 N 
ATOM     27  N   UNL     1      -4.115  12.099  23.628  0.00  0.00    +0.000 NA
ATOM     28  C   UNL     1      -5.035  13.010  23.610  0.00  0.00    +0.000 A 
ATOM     29  S   UNL     1      -4.630  14.565  22.947  0.00  0.00    +0.000 S 
ATOM     30  C   UNL     1      -3.021  13.949  22.707  0.00  0.00    +0.000 A 
ATOM     31  N   UNL     1      -2.042  14.647  22.233  0.00  0.00    +0.000 NA
BRANCH  28  32
ATOM     32  C   UNL     1      -6.356  12.776  24.217  0.00  0.00    +0.000 C 
ATOM     33  C   UNL     1      -7.507  13.745  24.097  0.00  0.00    +0.000 C 
ATOM     34  C   UNL     1      -7.542  12.454  23.335  0.00  0.00    +0.000 C 
ENDBRANCH  28  32
ENDBRANCH  21  22
ENDBRANCH  20  21
ENDBRANCH  18  20
ENDBRANCH   5  18
TORSDOF 7
ENDMDL
MODEL 8
REMARK VINA RESULT:      -8.2      5.894      9.945
REMARK  Name = 
REMARK  8 active torsions:
REMARK  status: ('A' for Active; 'I' for Inactive)
REMARK    1  A    between atoms: C_1  and  C_2
REMARK    2  A    between atoms: C_6  and  C_7
REMARK    3  A    between atoms: N_9  and  C_10
REMARK    4  A    between atoms: C_14  and  C_15
REMARK    5  A    between atoms: C_15  and  O_17
REMARK    6  A    between atoms: O_17  and  C_18
REMARK    7  A    between atoms: C_18  and  C_19
REMARK    8  A    between atoms: C_25  and  C_26
REMARK                            x       y       z     vdW  Elec       q    Type
REMARK                         _______ _______ _______ _____ _____    ______ ____
ROOT
ATOM      1  C   UNL     1       3.393   6.400  18.421  0.00  0.00    +0.000 A 
ATOM      2  C   UNL     1       3.174   5.020  18.462  0.00  0.00    +0.000 A 
ATOM      3  C   UNL     1       4.115   4.121  17.955  0.00  0.00    +0.000 A 
ATOM      4  C   UNL     1       5.298   4.590  17.394  0.00  0.00    +0.000 A 
ATOM      5  C   UNL     1       5.534   5.968  17.321  0.00  0.00    +0.000 A 
ATOM      6  C   UNL     1       4.566   6.870  17.812  0.00  0.00    +0.000 A 
ENDROOT
BRANCH   1   9
ATOM      7  C   UNL     1       2.012   8.471  18.333  0.00  0.00    +0.000 C 
ATOM      8  O   UNL     1       2.291   8.809  17.184  0.00  0.00    +0.000 OA
ATOM      9  N   UNL     1       2.489   7.341  18.988  0.00  0.00    +0.000 N 
ATOM     10  H   UNL     1       2.032   7.074  19.850  0.00  0.00    +0.000 HD
BRANCH   7  16
ATOM     11  C   UNL     1      -0.189  10.222  22.550  0.00  0.00    +0.000 C 
ATOM     12  C   UNL     1      -0.037  10.199  21.055  0.00  0.00    +0.000 A 
ATOM     13  C   UNL     1      -0.782  11.084  20.264  0.00  0.00    +0.000 A 
ATOM     14  C   UNL     1      -0.633  11.092  18.879  0.00  0.00    +0.000 A 
ATOM     15  C   UNL     1       0.264  10.212  18.277  0.00  0.00    +0.000 A 
ATOM     16  C   UNL     1       1.014   9.312  19.050  0.00  0.00    +0.000 A 
ATOM     17  C   UNL     1       0.863   9.306  20.443  0.00  0.00    +0.000 A 
ENDBRANCH   7  16
ENDBRANCH   1   9
BRANCH   5  18
ATOM     18  C   UNL     1       6.803   6.510  16.754  0.00  0.00    +0.000 C 
ATOM     19  O   UNL     1       7.508   5.879  15.982  0.00  0.00    +0.000 OA
BRANCH  18  20
ATOM     20  O   UNL     1       7.033   7.767  17.199  0.00  0.00    +0.000 OA
BRANCH  20  21
ATOM     21  C   UNL     1       8.180   7.961  18.048  0.00  0.00    +0.000 C 
BRANCH  21  22
ATOM     22  C   UNL     1       8.445   9.448  18.220  0.00  0.00    +0.000 A 
ATOM     23  C   UNL     1       7.812  10.343  17.439  0.00  0.00    +0.000 A 
ATOM     24  C   UNL     1       8.085  11.790  17.602  0.00  0.00    +0.000 A 
ATOM     25  O   UNL     1       7.495  12.599  16.894  0.00  0.00    +0.000 OA
ATOM     26  N   UNL     1       9.011  12.067  18.583  0.00  0.00    +0.000 N 
ATOM     27  N   UNL     1       9.351  13.360  18.922  0.00  0.00    +0.000 NA
ATOM     28  C   UNL     1      10.201  13.314  19.897  0.00  0.00    +0.000 A 
ATOM     29  S   UNL     1      10.692  11.751  20.478  0.00  0.00    +0.000 S 
ATOM     30  C   UNL     1       9.595  11.067  19.315  0.00  0.00    +0.000 A 
ATOM     31  N   UNL     1       9.374   9.801  19.184  0.00  0.00    +0.000 NA
BRANCH  28  32
ATOM     32  C   UNL     1      10.670  14.541  20.563  0.00  0.00    +0.000 C 
ATOM     33  C   UNL     1       9.861  15.814  20.621  0.00  0.00    +0.000 C 
ATOM     34  C   UNL     1      10.029  14.985  21.859  0.00  0.00    +0.000 C 
ENDBRANCH  28  32
ENDBRANCH  21  22
ENDBRANCH  20  21
ENDBRANCH  18  20
ENDBRANCH   5  18
TORSDOF 7
ENDMDL
MODEL 9
REMARK VINA RESULT:      -8.1      4.520      6.403
REMARK  Name = 
REMARK  8 active torsions:
REMARK  status: ('A' for Active; 'I' for Inactive)
REMARK    1  A    between atoms: C_1  and  C_2
REMARK    2  A    between atoms: C_6  and  C_7
REMARK    3  A    between atoms: N_9  and  C_10
REMARK    4  A    between atoms: C_14  and  C_15
REMARK    5  A    between atoms: C_15  and  O_17
REMARK    6  A    between atoms: O_17  and  C_18
REMARK    7  A    between atoms: C_18  and  C_19
REMARK    8  A    between atoms: C_25  and  C_26
REMARK                            x       y       z     vdW  Elec       q    Type
REMARK                         _______ _______ _______ _____ _____    ______ ____
ROOT
ATOM      1  C   UNL     1       7.521   6.608  17.855  0.00  0.00    +0.000 A 
ATOM      2  C   UNL     1       7.454   6.227  16.511  0.00  0.00    +0.000 A 
ATOM      3  C   UNL     1       6.568   5.236  16.082  0.00  0.00    +0.000 A 
ATOM      4  C   UNL     1       5.729   4.606  16.995  0.00  0.00    +0.000 A 
ATOM      5  C   UNL     1       5.790   4.953  18.349  0.00  0.00    +0.000 A 
ATOM      6  C   UNL     1       6.707   5.937  18.778  0.00  0.00    +0.000 A 
ENDROOT
BRANCH   1   9
ATOM      7  C   UNL     1       8.156   9.009  18.054  0.00  0.00    +0.000 C 
ATOM      8  O   UNL     1       7.225   9.481  17.403  0.00  0.00    +0.000 OA
ATOM      9  N   UNL     1       8.362   7.659  18.316  0.00  0.00    +0.000 N 
ATOM     10  H   UNL     1       9.047   7.421  19.022  0.00  0.00    +0.000 HD
BRANCH   7  16
ATOM     11  C   UNL     1      11.734  12.589  17.799  0.00  0.00    +0.000 C 
ATOM     12  C   UNL     1      10.786  11.728  18.584  0.00  0.00    +0.000 A 
ATOM     13  C   UNL     1      10.672  11.900  19.970  0.00  0.00    +0.000 A 
ATOM     14  C   UNL     1       9.779  11.126  20.708  0.00  0.00    +0.000 A 
ATOM     15  C   UNL     1       8.992  10.175  20.061  0.00  0.00    +0.000 A 
ATOM     16  C   UNL     1       9.096   9.983  18.675  0.00  0.00    +0.000 A 
ATOM     17  C   UNL     1       9.995  10.761  17.934  0.00  0.00    +0.000 A 
ENDBRANCH   7  16
ENDBRANCH   1   9
BRANCH   5  18
ATOM     18  C   UNL     1       4.887   4.321  19.355  0.00  0.00    +0.000 C 
ATOM     19  O   UNL     1       4.965   3.145  19.671  0.00  0.00    +0.000 OA
BRANCH  18  20
ATOM     20  O   UNL     1       4.013   5.225  19.855  0.00  0.00    +0.000 OA
BRANCH  20  21
ATOM     21  C   UNL     1       2.851   5.522  19.059  0.00  0.00    +0.000 C 
BRANCH  21  22
ATOM     22  C   UNL     1       2.245   6.842  19.507  0.00  0.00    +0.000 A 
ATOM     23  C   UNL     1       1.659   6.942  20.714  0.00  0.00    +0.000 A 
ATOM     24  C   UNL     1       1.058   8.229  21.140  0.00  0.00    +0.000 A 
ATOM     25  O   UNL     1       0.537   8.314  22.246  0.00  0.00    +0.000 OA
ATOM     26  N   UNL     1       1.169   9.226  20.197  0.00  0.00    +0.000 N 
ATOM     27  N   UNL     1       0.724  10.509  20.434  0.00  0.00    +0.000 NA
ATOM     28  C   UNL     1       1.000  11.233  19.397  0.00  0.00    +0.000 A 
ATOM     29  S   UNL     1       1.780  10.463  18.049  0.00  0.00    +0.000 S 
ATOM     30  C   UNL     1       1.788   9.004  18.995  0.00  0.00    +0.000 A 
ATOM     31  N   UNL     1       2.313   7.889  18.604  0.00  0.00    +0.000 NA
BRANCH  28  32
ATOM     32  C   UNL     1       0.752  12.685  19.389  0.00  0.00    +0.000 C 
ATOM     33  C   UNL     1       1.328  13.619  18.353  0.00  0.00    +0.000 C 
ATOM     34  C   UNL     1      -0.135  13.290  18.324  0.00  0.00    +0.000 C 
ENDBRANCH  28  32
ENDBRANCH  21  22
ENDBRANCH  20  21
ENDBRANCH  18  20
ENDBRANCH   5  18
TORSDOF 7
ENDMDL
