MODEL 1
REMARK VINA RESULT:      -6.8      0.000      0.000
REMARK  Name = 
REMARK  7 active torsions:
REMARK  status: ('A' for Active; 'I' for Inactive)
REMARK    1  A    between atoms: C_1  and  N_2
REMARK    2  A    between atoms: N_2  and  C_3
REMARK    3  A    between atoms: C_4  and  C_6
REMARK    4  A    between atoms: C_6  and  C_7
REMARK    5  A    between atoms: C_7  and  C_8
REMARK    6  A    between atoms: C_8  and  N_9
REMARK    7  A    between atoms: N_9  and  C_10
REMARK                            x       y       z     vdW  Elec       q    Type
REMARK                         _______ _______ _______ _____ _____    ______ ____
ROOT
ATOM      1  C   UNL     1       4.591   6.386  18.216  0.00  0.00    +0.000 C 
ATOM      2  C   UNL     1       3.057   6.334  18.130  0.00  0.00    +0.000 C 
ATOM      3  C   UNL     1       2.547   4.909  17.915  0.00  0.00    +0.000 C 
ATOM      4  C   UNL     1       2.982   3.947  19.050  0.00  0.00    +0.000 C 
ATOM      5  C   UNL     1       2.307   4.304  20.399  0.00  0.00    +0.000 C 
ATOM      6  C   UNL     1       0.792   4.096  20.367  0.00  0.00    +0.000 C 
ATOM      7  N   UNL     1       0.444   2.724  20.004  0.00  0.00    +0.000 NA
ATOM      8  C   UNL     1       1.034   2.314  18.730  0.00  0.00    +0.000 C 
ATOM      9  C   UNL     1       2.554   2.499  18.710  0.00  0.00    +0.000 C 
ATOM     10  C   UNL     1       4.526   4.010  19.186  0.00  0.00    +0.000 C 
ATOM     11  C   UNL     1       5.064   5.440  19.336  0.00  0.00    +0.000 C 
ATOM     12  H   UNL     1      -0.570   2.640  19.946  0.00  0.00    +0.000 HD
ENDROOT
BRANCH   1  13
ATOM     13  N   UNL     1       5.239   6.008  16.947  0.00  0.00    +0.000 NA
ATOM     14  H   UNL     1       4.805   5.159  16.582  0.00  0.00    +0.000 HD
BRANCH  13  15
ATOM     15  C   UNL     1       6.678   5.796  17.090  0.00  0.00    +0.000 C 
BRANCH  15  16
ATOM     16  C   UNL     1       7.103   4.460  16.485  0.00  0.00    +0.000 C 
BRANCH  16  17
ATOM     17  C   UNL     1       6.333   4.225  15.185  0.00  0.00    +0.000 C 
BRANCH  17  21
ATOM     18  C   UNL     1       7.350   4.629  11.543  0.00  0.00    +0.000 C 
ATOM     19  N   UNL     1       6.674   4.166  12.740  0.00  0.00    +0.000 N 
ATOM     20  C   UNL     1       5.581   3.216  12.601  0.00  0.00    +0.000 C 
ATOM     21  C   UNL     1       7.077   4.712  13.957  0.00  0.00    +0.000 C 
ATOM     22  O   UNL     1       7.983   5.545  14.031  0.00  0.00    +0.000 OA
ENDBRANCH  17  21
ENDBRANCH  16  17
ENDBRANCH  15  16
ENDBRANCH  13  15
ENDBRANCH   1  13
TORSDOF 5
ENDMDL
MODEL 2
REMARK VINA RESULT:      -6.7      4.428      6.250
REMARK  Name = 
REMARK  7 active torsions:
REMARK  status: ('A' for Active; 'I' for Inactive)
REMARK    1  A    between atoms: C_1  and  N_2
REMARK    2  A    between atoms: N_2  and  C_3
REMARK    3  A    between atoms: C_4  and  C_6
REMARK    4  A    between atoms: C_6  and  C_7
REMARK    5  A    between atoms: C_7  and  C_8
REMARK    6  A    between atoms: C_8  and  N_9
REMARK    7  A    between atoms: N_9  and  C_10
REMARK                            x       y       z     vdW  Elec       q    Type
REMARK                         _______ _______ _______ _____ _____    ______ ____
ROOT
ATOM      1  C   UNL     1       7.015   6.103  17.051  0.00  0.00    +0.000 C 
ATOM      2  C   UNL     1       6.951   5.328  18.377  0.00  0.00    +0.000 C 
ATOM      3  C   UNL     1       5.622   5.550  19.102  0.00  0.00    +0.000 C 
ATOM      4  C   UNL     1       4.403   5.114  18.250  0.00  0.00    +0.000 C 
ATOM      5  C   UNL     1       4.370   3.580  18.031  0.00  0.00    +0.000 C 
ATOM      6  C   UNL     1       4.142   2.810  19.333  0.00  0.00    +0.000 C 
ATOM      7  N   UNL     1       2.909   3.227  19.996  0.00  0.00    +0.000 NA
ATOM      8  C   UNL     1       2.869   4.667  20.251  0.00  0.00    +0.000 C 
ATOM      9  C   UNL     1       3.088   5.487  18.977  0.00  0.00    +0.000 C 
ATOM     10  C   UNL     1       4.466   5.851  16.886  0.00  0.00    +0.000 C 
ATOM     11  C   UNL     1       5.816   5.696  16.174  0.00  0.00    +0.000 C 
ATOM     12  H   UNL     1       2.819   2.728  20.881  0.00  0.00    +0.000 HD
ENDROOT
BRANCH   1  13
ATOM     13  N   UNL     1       7.005   7.563  17.251  0.00  0.00    +0.000 NA
ATOM     14  H   UNL     1       7.046   8.032  16.346  0.00  0.00    +0.000 HD
BRANCH  13  15
ATOM     15  C   UNL     1       8.110   8.026  18.088  0.00  0.00    +0.000 C 
BRANCH  15  16
ATOM     16  C   UNL     1       8.326   9.530  17.939  0.00  0.00    +0.000 C 
BRANCH  16  17
ATOM     17  C   UNL     1       9.168  10.039  19.109  0.00  0.00    +0.000 C 
BRANCH  17  21
ATOM     18  C   UNL     1      11.259  13.196  19.459  0.00  0.00    +0.000 C 
ATOM     19  N   UNL     1      10.393  12.077  19.776  0.00  0.00    +0.000 N 
ATOM     20  C   UNL     1       9.982  11.883  21.158  0.00  0.00    +0.000 C 
ATOM     21  C   UNL     1      10.054  11.212  18.737  0.00  0.00    +0.000 C 
ATOM     22  O   UNL     1      10.453  11.389  17.584  0.00  0.00    +0.000 OA
ENDBRANCH  17  21
ENDBRANCH  16  17
ENDBRANCH  15  16
ENDBRANCH  13  15
ENDBRANCH   1  13
TORSDOF 5
ENDMDL
MODEL 3
REMARK VINA RESULT:      -6.5      2.700      6.193
REMARK  Name = 
REMARK  7 active torsions:
REMARK  status: ('A' for Active; 'I' for Inactive)
REMARK    1  A    between atoms: C_1  and  N_2
REMARK    2  A    between atoms: N_2  and  C_3
REMARK    3  A    between atoms: C_4  and  C_6
REMARK    4  A    between atoms: C_6  and  C_7
REMARK    5  A    between atoms: C_7  and  C_8
REMARK    6  A    between atoms: C_8  and  N_9
REMARK    7  A    between atoms: N_9  and  C_10
REMARK                            x       y       z     vdW  Elec       q    Type
REMARK                         _______ _______ _______ _____ _____    ______ ____
ROOT
ATOM      1  C   UNL     1       3.175   6.250  19.513  0.00  0.00    +0.000 C 
ATOM      2  C   UNL     1       4.546   5.557  19.493  0.00  0.00    +0.000 C 
ATOM      3  C   UNL     1       4.887   5.010  18.106  0.00  0.00    +0.000 C 
ATOM      4  C   UNL     1       4.910   6.117  17.021  0.00  0.00    +0.000 C 
ATOM      5  C   UNL     1       6.075   7.116  17.242  0.00  0.00    +0.000 C 
ATOM      6  C   UNL     1       7.446   6.462  17.060  0.00  0.00    +0.000 C 
ATOM      7  N   UNL     1       7.580   5.851  15.740  0.00  0.00    +0.000 NA
ATOM      8  C   UNL     1       6.521   4.881  15.461  0.00  0.00    +0.000 C 
ATOM      9  C   UNL     1       5.124   5.487  15.624  0.00  0.00    +0.000 C 
ATOM     10  C   UNL     1       3.549   6.862  17.048  0.00  0.00    +0.000 C 
ATOM     11  C   UNL     1       3.158   7.361  18.446  0.00  0.00    +0.000 C 
ATOM     12  H   UNL     1       8.485   5.385  15.677  0.00  0.00    +0.000 HD
ENDROOT
BRANCH   1  13
ATOM     13  N   UNL     1       2.065   5.312  19.264  0.00  0.00    +0.000 NA
ATOM     14  H   UNL     1       1.439   5.703  18.559  0.00  0.00    +0.000 HD
BRANCH  13  15
ATOM     15  C   UNL     1       1.305   5.003  20.473  0.00  0.00    +0.000 C 
BRANCH  15  16
ATOM     16  C   UNL     1       2.171   4.280  21.501  0.00  0.00    +0.000 C 
BRANCH  16  17
ATOM     17  C   UNL     1       2.095   2.772  21.257  0.00  0.00    +0.000 C 
BRANCH  17  21
ATOM     18  C   UNL     1       3.632   1.452  18.039  0.00  0.00    +0.000 C 
ATOM     19  N   UNL     1       2.660   1.907  19.014  0.00  0.00    +0.000 N 
ATOM     20  C   UNL     1       1.266   2.014  18.611  0.00  0.00    +0.000 C 
ATOM     21  C   UNL     1       3.135   2.277  20.271  0.00  0.00    +0.000 C 
ATOM     22  O   UNL     1       4.331   2.209  20.562  0.00  0.00    +0.000 OA
ENDBRANCH  17  21
ENDBRANCH  16  17
ENDBRANCH  15  16
ENDBRANCH  13  15
ENDBRANCH   1  13
TORSDOF 5
ENDMDL
MODEL 4
REMARK VINA RESULT:      -6.5      4.241      5.806
REMARK  Name = 
REMARK  7 active torsions:
REMARK  status: ('A' for Active; 'I' for Inactive)
REMARK    1  A    between atoms: C_1  and  N_2
REMARK    2  A    between atoms: N_2  and  C_3
REMARK    3  A    between atoms: C_4  and  C_6
REMARK    4  A    between atoms: C_6  and  C_7
REMARK    5  A    between atoms: C_7  and  C_8
REMARK    6  A    between atoms: C_8  and  N_9
REMARK    7  A    between atoms: N_9  and  C_10
REMARK                            x       y       z     vdW  Elec       q    Type
REMARK                         _______ _______ _______ _____ _____    ______ ____
ROOT
ATOM      1  C   UNL     1       6.942   5.611  17.974  0.00  0.00    +0.000 C 
ATOM      2  C   UNL     1       6.208   5.214  19.265  0.00  0.00    +0.000 C 
ATOM      3  C   UNL     1       4.697   5.416  19.147  0.00  0.00    +0.000 C 
ATOM      4  C   UNL     1       4.078   4.592  17.989  0.00  0.00    +0.000 C 
ATOM      5  C   UNL     1       4.154   3.068  18.260  0.00  0.00    +0.000 C 
ATOM      6  C   UNL     1       3.292   2.644  19.451  0.00  0.00    +0.000 C 
ATOM      7  N   UNL     1       1.895   3.031  19.268  0.00  0.00    +0.000 NA
ATOM      8  C   UNL     1       1.737   4.464  19.020  0.00  0.00    +0.000 C 
ATOM      9  C   UNL     1       2.579   4.942  17.833  0.00  0.00    +0.000 C 
ATOM     10  C   UNL     1       4.829   4.944  16.677  0.00  0.00    +0.000 C 
ATOM     11  C   UNL     1       6.354   4.811  16.796  0.00  0.00    +0.000 C 
ATOM     12  H   UNL     1       1.365   2.776  20.101  0.00  0.00    +0.000 HD
ENDROOT
BRANCH   1  13
ATOM     13  N   UNL     1       6.839   7.054  17.689  0.00  0.00    +0.000 NA
ATOM     14  H   UNL     1       6.592   7.191  16.709  0.00  0.00    +0.000 HD
BRANCH  13  15
ATOM     15  C   UNL     1       8.073   7.777  17.986  0.00  0.00    +0.000 C 
BRANCH  15  16
ATOM     16  C   UNL     1       7.919   9.271  17.710  0.00  0.00    +0.000 C 
BRANCH  16  17
ATOM     17  C   UNL     1       8.966  10.045  18.513  0.00  0.00    +0.000 C 
BRANCH  17  21
ATOM     18  C   UNL     1      10.381  13.550  18.101  0.00  0.00    +0.000 C 
ATOM     19  N   UNL     1      10.233  12.165  18.502  0.00  0.00    +0.000 N 
ATOM     20  C   UNL     1      11.315  11.532  19.241  0.00  0.00    +0.000 C 
ATOM     21  C   UNL     1       9.077  11.499  18.098  0.00  0.00    +0.000 C 
ATOM     22  O   UNL     1       8.198  12.058  17.439  0.00  0.00    +0.000 OA
ENDBRANCH  17  21
ENDBRANCH  16  17
ENDBRANCH  15  16
ENDBRANCH  13  15
ENDBRANCH   1  13
TORSDOF 5
ENDMDL
MODEL 5
REMARK VINA RESULT:      -6.5      4.378      6.004
REMARK  Name = 
REMARK  7 active torsions:
REMARK  status: ('A' for Active; 'I' for Inactive)
REMARK    1  A    between atoms: C_1  and  N_2
REMARK    2  A    between atoms: N_2  and  C_3
REMARK    3  A    between atoms: C_4  and  C_6
REMARK    4  A    between atoms: C_6  and  C_7
REMARK    5  A    between atoms: C_7  and  C_8
REMARK    6  A    between atoms: C_8  and  N_9
REMARK    7  A    between atoms: N_9  and  C_10
REMARK                            x       y       z     vdW  Elec       q    Type
REMARK                         _______ _______ _______ _____ _____    ______ ____
ROOT
ATOM      1  C   UNL     1       6.862   5.972  17.540  0.00  0.00    +0.000 C 
ATOM      2  C   UNL     1       6.391   5.231  18.802  0.00  0.00    +0.000 C 
ATOM      3  C   UNL     1       4.882   5.364  19.010  0.00  0.00    +0.000 C 
ATOM      4  C   UNL     1       4.068   4.808  17.814  0.00  0.00    +0.000 C 
ATOM      5  C   UNL     1       4.216   3.270  17.680  0.00  0.00    +0.000 C 
ATOM      6  C   UNL     1       3.600   2.520  18.863  0.00  0.00    +0.000 C 
ATOM      7  N   UNL     1       2.189   2.853  19.036  0.00  0.00    +0.000 NA
ATOM      8  C   UNL     1       1.966   4.292  19.184  0.00  0.00    +0.000 C 
ATOM      9  C   UNL     1       2.561   5.092  18.021  0.00  0.00    +0.000 C 
ATOM     10  C   UNL     1       4.552   5.510  16.519  0.00  0.00    +0.000 C 
ATOM     11  C   UNL     1       6.074   5.446  16.326  0.00  0.00    +0.000 C 
ATOM     12  H   UNL     1       1.829   2.373  19.860  0.00  0.00    +0.000 HD
ENDROOT
BRANCH   1  13
ATOM     13  N   UNL     1       6.686   7.432  17.646  0.00  0.00    +0.000 NA
ATOM     14  H   UNL     1       5.953   7.735  17.003  0.00  0.00    +0.000 HD
BRANCH  13  15
ATOM     15  C   UNL     1       7.915   8.170  17.365  0.00  0.00    +0.000 C 
BRANCH  15  16
ATOM     16  C   UNL     1       8.494   8.785  18.638  0.00  0.00    +0.000 C 
BRANCH  16  17
ATOM     17  C   UNL     1       8.893  10.236  18.363  0.00  0.00    +0.000 C 
BRANCH  17  21
ATOM     18  C   UNL     1      11.618  12.185  20.161  0.00  0.00    +0.000 C 
ATOM     19  N   UNL     1      10.838  11.561  19.110  0.00  0.00    +0.000 N 
ATOM     20  C   UNL     1      11.245  11.759  17.727  0.00  0.00    +0.000 C 
ATOM     21  C   UNL     1       9.698  10.853  19.489  0.00  0.00    +0.000 C 
ATOM     22  O   UNL     1       9.363  10.740  20.670  0.00  0.00    +0.000 OA
ENDBRANCH  17  21
ENDBRANCH  16  17
ENDBRANCH  15  16
ENDBRANCH  13  15
ENDBRANCH   1  13
TORSDOF 5
ENDMDL
MODEL 6
REMARK VINA RESULT:      -6.5      4.389      6.094
REMARK  Name = 
REMARK  7 active torsions:
REMARK  status: ('A' for Active; 'I' for Inactive)
REMARK    1  A    between atoms: C_1  and  N_2
REMARK    2  A    between atoms: N_2  and  C_3
REMARK    3  A    between atoms: C_4  and  C_6
REMARK    4  A    between atoms: C_6  and  C_7
REMARK    5  A    between atoms: C_7  and  C_8
REMARK    6  A    between atoms: C_8  and  N_9
REMARK    7  A    between atoms: N_9  and  C_10
REMARK                            x       y       z     vdW  Elec       q    Type
REMARK                         _______ _______ _______ _____ _____    ______ ____
ROOT
ATOM      1  C   UNL     1       6.747   6.009  16.800  0.00  0.00    +0.000 C 
ATOM      2  C   UNL     1       6.546   4.521  17.128  0.00  0.00    +0.000 C 
ATOM      3  C   UNL     1       5.710   4.325  18.394  0.00  0.00    +0.000 C 
ATOM      4  C   UNL     1       4.305   4.970  18.282  0.00  0.00    +0.000 C 
ATOM      5  C   UNL     1       3.423   4.252  17.228  0.00  0.00    +0.000 C 
ATOM      6  C   UNL     1       3.084   2.816  17.633  0.00  0.00    +0.000 C 
ATOM      7  N   UNL     1       2.419   2.765  18.932  0.00  0.00    +0.000 NA
ATOM      8  C   UNL     1       3.198   3.413  19.987  0.00  0.00    +0.000 C 
ATOM      9  C   UNL     1       3.561   4.858  19.634  0.00  0.00    +0.000 C 
ATOM     10  C   UNL     1       4.478   6.466  17.910  0.00  0.00    +0.000 C 
ATOM     11  C   UNL     1       5.369   6.687  16.680  0.00  0.00    +0.000 C 
ATOM     12  H   UNL     1       2.255   1.791  19.187  0.00  0.00    +0.000 HD
ENDROOT
BRANCH   1  13
ATOM     13  N   UNL     1       7.551   6.707  17.819  0.00  0.00    +0.000 NA
ATOM     14  H   UNL     1       7.102   6.615  18.731  0.00  0.00    +0.000 HD
BRANCH  13  15
ATOM     15  C   UNL     1       7.745   8.122  17.513  0.00  0.00    +0.000 C 
BRANCH  15  16
ATOM     16  C   UNL     1       8.598   8.807  18.579  0.00  0.00    +0.000 C 
BRANCH  16  17
ATOM     17  C   UNL     1       8.870  10.252  18.157  0.00  0.00    +0.000 C 
BRANCH  17  21
ATOM     18  C   UNL     1      10.092  13.312  20.055  0.00  0.00    +0.000 C 
ATOM     19  N   UNL     1       9.656  12.444  18.978  0.00  0.00    +0.000 N 
ATOM     20  C   UNL     1       9.505  13.008  17.645  0.00  0.00    +0.000 C 
ATOM     21  C   UNL     1       9.347  11.125  19.302  0.00  0.00    +0.000 C 
ATOM     22  O   UNL     1       9.450  10.693  20.452  0.00  0.00    +0.000 OA
ENDBRANCH  17  21
ENDBRANCH  16  17
ENDBRANCH  15  16
ENDBRANCH  13  15
ENDBRANCH   1  13
TORSDOF 5
ENDMDL
MODEL 7
REMARK VINA RESULT:      -6.4      4.543      6.139
REMARK  Name = 
REMARK  7 active torsions:
REMARK  status: ('A' for Active; 'I' for Inactive)
REMARK    1  A    between atoms: C_1  and  N_2
REMARK    2  A    between atoms: N_2  and  C_3
REMARK    3  A    between atoms: C_4  and  C_6
REMARK    4  A    between atoms: C_6  and  C_7
REMARK    5  A    between atoms: C_7  and  C_8
REMARK    6  A    between atoms: C_8  and  N_9
REMARK    7  A    between atoms: N_9  and  C_10
REMARK                            x       y       z     vdW  Elec       q    Type
REMARK                         _______ _______ _______ _____ _____    ______ ____
ROOT
ATOM      1  C   UNL     1       7.355   6.231  17.280  0.00  0.00    +0.000 C 
ATOM      2  C   UNL     1       7.117   4.861  17.936  0.00  0.00    +0.000 C 
ATOM      3  C   UNL     1       5.950   4.898  18.924  0.00  0.00    +0.000 C 
ATOM      4  C   UNL     1       4.620   5.330  18.254  0.00  0.00    +0.000 C 
ATOM      5  C   UNL     1       4.116   4.274  17.237  0.00  0.00    +0.000 C 
ATOM      6  C   UNL     1       3.722   2.958  17.910  0.00  0.00    +0.000 C 
ATOM      7  N   UNL     1       2.703   3.162  18.936  0.00  0.00    +0.000 NA
ATOM      8  C   UNL     1       3.110   4.139  19.946  0.00  0.00    +0.000 C 
ATOM      9  C   UNL     1       3.512   5.480  19.324  0.00  0.00    +0.000 C 
ATOM     10  C   UNL     1       4.844   6.693  17.548  0.00  0.00    +0.000 C 
ATOM     11  C   UNL     1       6.053   6.696  16.602  0.00  0.00    +0.000 C 
ATOM     12  H   UNL     1       2.504   2.272  19.393  0.00  0.00    +0.000 HD
ENDROOT
BRANCH   1  13
ATOM     13  N   UNL     1       7.795   7.250  18.250  0.00  0.00    +0.000 NA
ATOM     14  H   UNL     1       7.128   7.299  19.021  0.00  0.00    +0.000 HD
BRANCH  13  15
ATOM     15  C   UNL     1       7.943   8.574  17.649  0.00  0.00    +0.000 C 
BRANCH  15  16
ATOM     16  C   UNL     1       8.813   9.481  18.516  0.00  0.00    +0.000 C 
BRANCH  16  17
ATOM     17  C   UNL     1       8.481  10.943  18.212  0.00  0.00    +0.000 C 
BRANCH  17  21
ATOM     18  C   UNL     1      10.661  13.978  17.507  0.00  0.00    +0.000 C 
ATOM     19  N   UNL     1       9.505  13.150  17.792  0.00  0.00    +0.000 N 
ATOM     20  C   UNL     1       8.223  13.799  18.024  0.00  0.00    +0.000 C 
ATOM     21  C   UNL     1       9.707  11.775  17.888  0.00  0.00    +0.000 C 
ATOM     22  O   UNL     1      10.817  11.265  17.723  0.00  0.00    +0.000 OA
ENDBRANCH  17  21
ENDBRANCH  16  17
ENDBRANCH  15  16
ENDBRANCH  13  15
ENDBRANCH   1  13
TORSDOF 5
ENDMDL
MODEL 8
REMARK VINA RESULT:      -6.4      1.469      2.119
REMARK  Name = 
REMARK  7 active torsions:
REMARK  status: ('A' for Active; 'I' for Inactive)
REMARK    1  A    between atoms: C_1  and  N_2
REMARK    2  A    between atoms: N_2  and  C_3
REMARK    3  A    between atoms: C_4  and  C_6
REMARK    4  A    between atoms: C_6  and  C_7
REMARK    5  A    between atoms: C_7  and  C_8
REMARK    6  A    between atoms: C_8  and  N_9
REMARK    7  A    between atoms: N_9  and  C_10
REMARK                            x       y       z     vdW  Elec       q    Type
REMARK                         _______ _______ _______ _____ _____    ______ ____
ROOT
ATOM      1  C   UNL     1       4.718   4.656  17.185  0.00  0.00    +0.000 C 
ATOM      2  C   UNL     1       4.130   3.294  17.586  0.00  0.00    +0.000 C 
ATOM      3  C   UNL     1       3.838   3.220  19.086  0.00  0.00    +0.000 C 
ATOM      4  C   UNL     1       2.840   4.312  19.550  0.00  0.00    +0.000 C 
ATOM      5  C   UNL     1       1.424   4.088  18.959  0.00  0.00    +0.000 C 
ATOM      6  C   UNL     1       0.767   2.811  19.486  0.00  0.00    +0.000 C 
ATOM      7  N   UNL     1       0.686   2.810  20.944  0.00  0.00    +0.000 NA
ATOM      8  C   UNL     1       1.989   3.002  21.580  0.00  0.00    +0.000 C 
ATOM      9  C   UNL     1       2.690   4.273  21.089  0.00  0.00    +0.000 C 
ATOM     10  C   UNL     1       3.390   5.697  19.120  0.00  0.00    +0.000 C 
ATOM     11  C   UNL     1       3.753   5.771  17.630  0.00  0.00    +0.000 C 
ATOM     12  H   UNL     1       0.289   1.924  21.257  0.00  0.00    +0.000 HD
ENDROOT
BRANCH   1  13
ATOM     13  N   UNL     1       6.047   4.892  17.777  0.00  0.00    +0.000 NA
ATOM     14  H   UNL     1       6.114   5.860  18.093  0.00  0.00    +0.000 HD
BRANCH  13  15
ATOM     15  C   UNL     1       7.138   4.608  16.846  0.00  0.00    +0.000 C 
BRANCH  15  16
ATOM     16  C   UNL     1       6.952   5.362  15.531  0.00  0.00    +0.000 C 
BRANCH  16  17
ATOM     17  C   UNL     1       7.127   4.392  14.362  0.00  0.00    +0.000 C 
BRANCH  17  21
ATOM     18  C   UNL     1       4.707   3.137  11.711  0.00  0.00    +0.000 C 
ATOM     19  N   UNL     1       5.936   3.482  12.400  0.00  0.00    +0.000 N 
ATOM     20  C   UNL     1       7.205   3.142  11.775  0.00  0.00    +0.000 C 
ATOM     21  C   UNL     1       5.823   4.068  13.659  0.00  0.00    +0.000 C 
ATOM     22  O   UNL     1       4.728   4.306  14.173  0.00  0.00    +0.000 OA
ENDBRANCH  17  21
ENDBRANCH  16  17
ENDBRANCH  15  16
ENDBRANCH  13  15
ENDBRANCH   1  13
TORSDOF 5
ENDMDL
MODEL 9
REMARK VINA RESULT:      -6.3      5.069      8.393
REMARK  Name = 
REMARK  7 active torsions:
REMARK  status: ('A' for Active; 'I' for Inactive)
REMARK    1  A    between atoms: C_1  and  N_2
REMARK    2  A    between atoms: N_2  and  C_3
REMARK    3  A    between atoms: C_4  and  C_6
REMARK    4  A    between atoms: C_6  and  C_7
REMARK    5  A    between atoms: C_7  and  C_8
REMARK    6  A    between atoms: C_8  and  N_9
REMARK    7  A    between atoms: N_9  and  C_10
REMARK                            x       y       z     vdW  Elec       q    Type
REMARK                         _______ _______ _______ _____ _____    ______ ____
ROOT
ATOM      1  C   UNL     1       2.308   5.708  19.263  0.00  0.00    +0.000 C 
ATOM      2  C   UNL     1       2.737   6.172  17.862  0.00  0.00    +0.000 C 
ATOM      3  C   UNL     1       4.255   6.319  17.751  0.00  0.00    +0.000 C 
ATOM      4  C   UNL     1       5.002   4.994  18.050  0.00  0.00    +0.000 C 
ATOM      5  C   UNL     1       4.727   3.919  16.968  0.00  0.00    +0.000 C 
ATOM      6  C   UNL     1       5.299   4.307  15.602  0.00  0.00    +0.000 C 
ATOM      7  N   UNL     1       6.736   4.562  15.673  0.00  0.00    +0.000 NA
ATOM      8  C   UNL     1       7.077   5.580  16.667  0.00  0.00    +0.000 C 
ATOM      9  C   UNL     1       6.531   5.238  18.056  0.00  0.00    +0.000 C 
ATOM     10  C   UNL     1       4.556   4.481  19.444  0.00  0.00    +0.000 C 
ATOM     11  C   UNL     1       3.032   4.390  19.599  0.00  0.00    +0.000 C 
ATOM     12  H   UNL     1       7.067   4.864  14.757  0.00  0.00    +0.000 HD
ENDROOT
BRANCH   1  13
ATOM     13  N   UNL     1       2.604   6.710  20.303  0.00  0.00    +0.000 NA
ATOM     14  H   UNL     1       2.482   6.291  21.226  0.00  0.00    +0.000 HD
BRANCH  13  15
ATOM     15  C   UNL     1       1.764   7.900  20.195  0.00  0.00    +0.000 C 
BRANCH  15  16
ATOM     16  C   UNL     1       1.315   8.388  21.571  0.00  0.00    +0.000 C 
BRANCH  16  17
ATOM     17  C   UNL     1      -0.085   8.994  21.461  0.00  0.00    +0.000 C 
BRANCH  17  21
ATOM     18  C   UNL     1      -1.018  12.462  22.711  0.00  0.00    +0.000 C 
ATOM     19  N   UNL     1      -0.775  11.336  21.830  0.00  0.00    +0.000 N 
ATOM     20  C   UNL     1      -1.094  11.474  20.417  0.00  0.00    +0.000 C 
ATOM     21  C   UNL     1      -0.304  10.158  22.407  0.00  0.00    +0.000 C 
ATOM     22  O   UNL     1      -0.081  10.068  23.616  0.00  0.00    +0.000 OA
ENDBRANCH  17  21
ENDBRANCH  16  17
ENDBRANCH  15  16
ENDBRANCH  13  15
ENDBRANCH   1  13
TORSDOF 5
ENDMDL
