MODEL 1
REMARK VINA RESULT:      -6.6      0.000      0.000
REMARK  Name = 
REMARK  2 active torsions:
REMARK  status: ('A' for Active; 'I' for Inactive)
REMARK    1  A    between atoms: C_6  and  N_7
REMARK    2  A    between atoms: N_7  and  C_8
REMARK                            x       y       z     vdW  Elec       q    Type
REMARK                         _______ _______ _______ _____ _____    ______ ____
ROOT
ATOM      1  N   UNL     1       3.494   4.213  18.250  0.00  0.00    +0.000 NA
ATOM      2  H   UNL     1       2.843   4.032  17.480  0.00  0.00    +0.000 HD
ENDROOT
BRANCH   1   8
ATOM      3  O   UNL     1       8.061   4.366  17.827  0.00  0.00    +0.000 OA
ATOM      4  S   UNL     1       7.163   5.202  17.051  0.00  0.00    +0.000 S 
ATOM      5  O   UNL     1       7.594   6.455  16.464  0.00  0.00    +0.000 OA
ATOM      6  C   UNL     1       6.389   4.191  15.797  0.00  0.00    +0.000 C 
ATOM      7  C   UNL     1       4.915   4.073  16.206  0.00  0.00    +0.000 C 
ATOM      8  C   UNL     1       4.872   4.205  17.741  0.00  0.00    +0.000 C 
ATOM      9  C   UNL     1       5.688   5.475  18.010  0.00  0.00    +0.000 C 
ENDBRANCH   1   8
BRANCH   1  10
ATOM     10  C   UNL     1       3.237   3.260  19.349  0.00  0.00    +0.000 C 
ATOM     11  C   UNL     1       2.303   2.086  18.996  0.00  0.00    +0.000 C 
ATOM     12  C   UNL     1       0.832   2.485  18.935  0.00  0.00    +0.000 C 
ATOM     13  N   UNL     1       0.388   3.100  20.185  0.00  0.00    +0.000 NA
ATOM     14  C   UNL     1       1.175   4.296  20.483  0.00  0.00    +0.000 C 
ATOM     15  C   UNL     1       2.670   3.993  20.581  0.00  0.00    +0.000 C 
ATOM     16  H   UNL     1       0.496   2.429  20.947  0.00  0.00    +0.000 HD
ENDBRANCH   1  10
TORSDOF 2
ENDMDL
MODEL 2
REMARK VINA RESULT:      -6.5      1.276      2.331
REMARK  Name = 
REMARK  2 active torsions:
REMARK  status: ('A' for Active; 'I' for Inactive)
REMARK    1  A    between atoms: C_6  and  N_7
REMARK    2  A    between atoms: N_7  and  C_8
REMARK                            x       y       z     vdW  Elec       q    Type
REMARK                         _______ _______ _______ _____ _____    ______ ____
ROOT
ATOM      1  N   UNL     1       4.013   4.454  19.358  0.00  0.00    +0.000 NA
ATOM      2  H   UNL     1       4.330   4.446  20.332  0.00  0.00    +0.000 HD
ENDROOT
BRANCH   1   8
ATOM      3  O   UNL     1       6.240   6.520  15.918  0.00  0.00    +0.000 OA
ATOM      4  S   UNL     1       6.793   5.406  16.666  0.00  0.00    +0.000 S 
ATOM      5  O   UNL     1       7.822   4.547  16.117  0.00  0.00    +0.000 OA
ATOM      6  C   UNL     1       7.304   5.999  18.272  0.00  0.00    +0.000 C 
ATOM      7  C   UNL     1       6.328   5.377  19.278  0.00  0.00    +0.000 C 
ATOM      8  C   UNL     1       5.004   5.148  18.524  0.00  0.00    +0.000 C 
ATOM      9  C   UNL     1       5.442   4.406  17.255  0.00  0.00    +0.000 C 
ENDBRANCH   1   8
BRANCH   1  10
ATOM     10  C   UNL     1       2.648   5.013  19.286  0.00  0.00    +0.000 C 
ATOM     11  C   UNL     1       1.862   5.001  20.612  0.00  0.00    +0.000 C 
ATOM     12  C   UNL     1       1.329   3.620  20.983  0.00  0.00    +0.000 C 
ATOM     13  N   UNL     1       0.495   3.062  19.919  0.00  0.00    +0.000 NA
ATOM     14  C   UNL     1       1.254   2.941  18.674  0.00  0.00    +0.000 C 
ATOM     15  C   UNL     1       1.819   4.283  18.211  0.00  0.00    +0.000 C 
ATOM     16  H   UNL     1      -0.308   3.673  19.764  0.00  0.00    +0.000 HD
ENDBRANCH   1  10
TORSDOF 2
ENDMDL
MODEL 3
REMARK VINA RESULT:      -6.5      0.925      1.329
REMARK  Name = 
REMARK  2 active torsions:
REMARK  status: ('A' for Active; 'I' for Inactive)
REMARK    1  A    between atoms: C_6  and  N_7
REMARK    2  A    between atoms: N_7  and  C_8
REMARK                            x       y       z     vdW  Elec       q    Type
REMARK                         _______ _______ _______ _____ _____    ______ ____
ROOT
ATOM      1  N   UNL     1       3.519   4.872  18.473  0.00  0.00    +0.000 NA
ATOM      2  H   UNL     1       2.778   4.818  17.768  0.00  0.00    +0.000 HD
ENDROOT
BRANCH   1   8
ATOM      3  O   UNL     1       7.994   4.380  17.585  0.00  0.00    +0.000 OA
ATOM      4  S   UNL     1       7.101   5.164  16.752  0.00  0.00    +0.000 S 
ATOM      5  O   UNL     1       7.585   6.226  15.894  0.00  0.00    +0.000 OA
ATOM      6  C   UNL     1       6.083   4.044  15.802  0.00  0.00    +0.000 C 
ATOM      7  C   UNL     1       4.665   4.186  16.368  0.00  0.00    +0.000 C 
ATOM      8  C   UNL     1       4.819   4.601  17.844  0.00  0.00    +0.000 C 
ATOM      9  C   UNL     1       5.787   5.788  17.779  0.00  0.00    +0.000 C 
ENDBRANCH   1   8
BRANCH   1  10
ATOM     10  C   UNL     1       3.187   3.986  19.608  0.00  0.00    +0.000 C 
ATOM     11  C   UNL     1       3.843   2.591  19.567  0.00  0.00    +0.000 C 
ATOM     12  C   UNL     1       3.180   1.644  18.571  0.00  0.00    +0.000 C 
ATOM     13  N   UNL     1       1.749   1.500  18.835  0.00  0.00    +0.000 NA
ATOM     14  C   UNL     1       1.074   2.795  18.754  0.00  0.00    +0.000 C 
ATOM     15  C   UNL     1       1.660   3.813  19.731  0.00  0.00    +0.000 C 
ATOM     16  H   UNL     1       1.617   1.110  19.769  0.00  0.00    +0.000 HD
ENDBRANCH   1  10
TORSDOF 2
ENDMDL
MODEL 4
REMARK VINA RESULT:      -6.5      0.848      1.557
REMARK  Name = 
REMARK  2 active torsions:
REMARK  status: ('A' for Active; 'I' for Inactive)
REMARK    1  A    between atoms: C_6  and  N_7
REMARK    2  A    between atoms: N_7  and  C_8
REMARK                            x       y       z     vdW  Elec       q    Type
REMARK                         _______ _______ _______ _____ _____    ______ ____
ROOT
ATOM      1  N   UNL     1       3.949   3.330  18.685  0.00  0.00    +0.000 NA
ATOM      2  H   UNL     1       4.274   3.198  19.647  0.00  0.00    +0.000 HD
ENDROOT
BRANCH   1   8
ATOM      3  O   UNL     1       8.120   4.264  17.015  0.00  0.00    +0.000 OA
ATOM      4  S   UNL     1       7.006   5.190  16.929  0.00  0.00    +0.000 S 
ATOM      5  O   UNL     1       7.201   6.617  16.776  0.00  0.00    +0.000 OA
ATOM      6  C   UNL     1       5.876   4.603  15.675  0.00  0.00    +0.000 C 
ATOM      7  C   UNL     1       4.621   4.140  16.425  0.00  0.00    +0.000 C 
ATOM      8  C   UNL     1       5.083   3.700  17.828  0.00  0.00    +0.000 C 
ATOM      9  C   UNL     1       5.924   4.888  18.312  0.00  0.00    +0.000 C 
ENDBRANCH   1   8
BRANCH   1  10
ATOM     10  C   UNL     1       2.827   4.291  18.671  0.00  0.00    +0.000 C 
ATOM     11  C   UNL     1       2.523   4.968  20.022  0.00  0.00    +0.000 C 
ATOM     12  C   UNL     1       1.793   4.055  21.002  0.00  0.00    +0.000 C 
ATOM     13  N   UNL     1       0.551   3.535  20.429  0.00  0.00    +0.000 NA
ATOM     14  C   UNL     1       0.820   2.775  19.209  0.00  0.00    +0.000 C 
ATOM     15  C   UNL     1       1.541   3.614  18.154  0.00  0.00    +0.000 C 
ATOM     16  H   UNL     1      -0.070   4.314  20.209  0.00  0.00    +0.000 HD
ENDBRANCH   1  10
TORSDOF 2
ENDMDL
MODEL 5
REMARK VINA RESULT:      -6.4      1.089      1.394
REMARK  Name = 
REMARK  2 active torsions:
REMARK  status: ('A' for Active; 'I' for Inactive)
REMARK    1  A    between atoms: C_6  and  N_7
REMARK    2  A    between atoms: N_7  and  C_8
REMARK                            x       y       z     vdW  Elec       q    Type
REMARK                         _______ _______ _______ _____ _____    ______ ____
ROOT
ATOM      1  N   UNL     1       4.055   4.490  19.230  0.00  0.00    +0.000 NA
ATOM      2  H   UNL     1       3.611   5.400  19.385  0.00  0.00    +0.000 HD
ENDROOT
BRANCH   1   8
ATOM      3  O   UNL     1       7.942   4.433  16.791  0.00  0.00    +0.000 OA
ATOM      4  S   UNL     1       7.108   5.612  16.928  0.00  0.00    +0.000 S 
ATOM      5  O   UNL     1       7.633   6.951  16.748  0.00  0.00    +0.000 OA
ATOM      6  C   UNL     1       5.653   5.400  15.911  0.00  0.00    +0.000 C 
ATOM      7  C   UNL     1       4.483   5.227  16.887  0.00  0.00    +0.000 C 
ATOM      8  C   UNL     1       5.067   4.609  18.172  0.00  0.00    +0.000 C 
ATOM      9  C   UNL     1       6.260   5.517  18.492  0.00  0.00    +0.000 C 
ENDBRANCH   1   8
BRANCH   1  10
ATOM     10  C   UNL     1       3.015   3.471  18.977  0.00  0.00    +0.000 C 
ATOM     11  C   UNL     1       1.570   4.004  18.928  0.00  0.00    +0.000 C 
ATOM     12  C   UNL     1       0.997   4.316  20.307  0.00  0.00    +0.000 C 
ATOM     13  N   UNL     1       1.055   3.151  21.189  0.00  0.00    +0.000 NA
ATOM     14  C   UNL     1       2.434   2.698  21.360  0.00  0.00    +0.000 C 
ATOM     15  C   UNL     1       3.094   2.344  20.027  0.00  0.00    +0.000 C 
ATOM     16  H   UNL     1       0.500   2.395  20.787  0.00  0.00    +0.000 HD
ENDBRANCH   1  10
TORSDOF 2
ENDMDL
MODEL 6
REMARK VINA RESULT:      -6.4      0.857      1.283
REMARK  Name = 
REMARK  2 active torsions:
REMARK  status: ('A' for Active; 'I' for Inactive)
REMARK    1  A    between atoms: C_6  and  N_7
REMARK    2  A    between atoms: N_7  and  C_8
REMARK                            x       y       z     vdW  Elec       q    Type
REMARK                         _______ _______ _______ _____ _____    ______ ____
ROOT
ATOM      1  N   UNL     1       3.220   4.212  17.698  0.00  0.00    +0.000 NA
ATOM      2  H   UNL     1       2.729   4.605  16.889  0.00  0.00    +0.000 HD
ENDROOT
BRANCH   1   8
ATOM      3  O   UNL     1       7.786   4.430  18.102  0.00  0.00    +0.000 OA
ATOM      4  S   UNL     1       7.033   5.237  17.160  0.00  0.00    +0.000 S 
ATOM      5  O   UNL     1       7.547   6.486  16.635  0.00  0.00    +0.000 OA
ATOM      6  C   UNL     1       6.510   4.192  15.808  0.00  0.00    +0.000 C 
ATOM      7  C   UNL     1       4.989   4.057  15.947  0.00  0.00    +0.000 C 
ATOM      8  C   UNL     1       4.667   4.217  17.446  0.00  0.00    +0.000 C 
ATOM      9  C   UNL     1       5.405   5.504  17.832  0.00  0.00    +0.000 C 
ENDBRANCH   1   8
BRANCH   1  10
ATOM     10  C   UNL     1       2.655   2.886  18.021  0.00  0.00    +0.000 C 
ATOM     11  C   UNL     1       1.186   2.893  18.487  0.00  0.00    +0.000 C 
ATOM     12  C   UNL     1       1.013   3.371  19.925  0.00  0.00    +0.000 C 
ATOM     13  N   UNL     1       1.813   2.576  20.856  0.00  0.00    +0.000 NA
ATOM     14  C   UNL     1       3.233   2.654  20.516  0.00  0.00    +0.000 C 
ATOM     15  C   UNL     1       3.512   2.178  19.090  0.00  0.00    +0.000 C 
ATOM     16  H   UNL     1       1.511   1.602  20.815  0.00  0.00    +0.000 HD
ENDBRANCH   1  10
TORSDOF 2
ENDMDL
MODEL 7
REMARK VINA RESULT:      -6.4      1.761      2.268
REMARK  Name = 
REMARK  2 active torsions:
REMARK  status: ('A' for Active; 'I' for Inactive)
REMARK    1  A    between atoms: C_6  and  N_7
REMARK    2  A    between atoms: N_7  and  C_8
REMARK                            x       y       z     vdW  Elec       q    Type
REMARK                         _______ _______ _______ _____ _____    ______ ____
ROOT
ATOM      1  N   UNL     1       3.454   5.021  18.788  0.00  0.00    +0.000 NA
ATOM      2  H   UNL     1       3.066   5.923  19.079  0.00  0.00    +0.000 HD
ENDROOT
BRANCH   1   8
ATOM      3  O   UNL     1       7.811   4.602  17.410  0.00  0.00    +0.000 OA
ATOM      4  S   UNL     1       7.308   5.772  18.106  0.00  0.00    +0.000 S 
ATOM      5  O   UNL     1       8.180   6.659  18.849  0.00  0.00    +0.000 OA
ATOM      6  C   UNL     1       6.314   6.725  16.968  0.00  0.00    +0.000 C 
ATOM      7  C   UNL     1       4.867   6.586  17.458  0.00  0.00    +0.000 C 
ATOM      8  C   UNL     1       4.775   5.227  18.178  0.00  0.00    +0.000 C 
ATOM      9  C   UNL     1       5.959   5.260  19.151  0.00  0.00    +0.000 C 
ENDBRANCH   1   8
BRANCH   1  10
ATOM     10  C   UNL     1       2.481   4.319  17.927  0.00  0.00    +0.000 C 
ATOM     11  C   UNL     1       1.217   3.806  18.646  0.00  0.00    +0.000 C 
ATOM     12  C   UNL     1       1.465   2.549  19.474  0.00  0.00    +0.000 C 
ATOM     13  N   UNL     1       2.032   1.473  18.662  0.00  0.00    +0.000 NA
ATOM     14  C   UNL     1       3.302   1.886  18.067  0.00  0.00    +0.000 C 
ATOM     15  C   UNL     1       3.153   3.137  17.201  0.00  0.00    +0.000 C 
ATOM     16  H   UNL     1       1.376   1.230  17.919  0.00  0.00    +0.000 HD
ENDBRANCH   1  10
TORSDOF 2
ENDMDL
MODEL 8
REMARK VINA RESULT:      -6.3      3.695      5.760
REMARK  Name = 
REMARK  2 active torsions:
REMARK  status: ('A' for Active; 'I' for Inactive)
REMARK    1  A    between atoms: C_6  and  N_7
REMARK    2  A    between atoms: N_7  and  C_8
REMARK                            x       y       z     vdW  Elec       q    Type
REMARK                         _______ _______ _______ _____ _____    ______ ____
ROOT
ATOM      1  N   UNL     1       4.806   3.525  17.419  0.00  0.00    +0.000 NA
ATOM      2  H   UNL     1       4.881   2.666  16.865  0.00  0.00    +0.000 HD
ENDROOT
BRANCH   1   8
ATOM      3  O   UNL     1       1.571   4.325  20.574  0.00  0.00    +0.000 OA
ATOM      4  S   UNL     1       2.471   3.189  20.631  0.00  0.00    +0.000 S 
ATOM      5  O   UNL     1       2.771   2.507  21.874  0.00  0.00    +0.000 OA
ATOM      6  C   UNL     1       1.957   1.995  19.404  0.00  0.00    +0.000 C 
ATOM      7  C   UNL     1       3.048   2.007  18.326  0.00  0.00    +0.000 C 
ATOM      8  C   UNL     1       3.670   3.418  18.344  0.00  0.00    +0.000 C 
ATOM      9  C   UNL     1       3.993   3.643  19.825  0.00  0.00    +0.000 C 
ENDBRANCH   1   8
BRANCH   1  10
ATOM     10  C   UNL     1       4.758   4.692  16.515  0.00  0.00    +0.000 C 
ATOM     11  C   UNL     1       5.442   4.494  15.148  0.00  0.00    +0.000 C 
ATOM     12  C   UNL     1       6.964   4.555  15.223  0.00  0.00    +0.000 C 
ATOM     13  N   UNL     1       7.424   5.808  15.819  0.00  0.00    +0.000 NA
ATOM     14  C   UNL     1       6.894   5.965  17.173  0.00  0.00    +0.000 C 
ATOM     15  C   UNL     1       5.366   5.933  17.200  0.00  0.00    +0.000 C 
ATOM     16  H   UNL     1       7.111   6.590  15.243  0.00  0.00    +0.000 HD
ENDBRANCH   1  10
TORSDOF 2
ENDMDL
MODEL 9
REMARK VINA RESULT:      -6.3      1.012      1.689
REMARK  Name = 
REMARK  2 active torsions:
REMARK  status: ('A' for Active; 'I' for Inactive)
REMARK    1  A    between atoms: C_6  and  N_7
REMARK    2  A    between atoms: N_7  and  C_8
REMARK                            x       y       z     vdW  Elec       q    Type
REMARK                         _______ _______ _______ _____ _____    ______ ____
ROOT
ATOM      1  N   UNL     1       3.002   4.777  17.685  0.00  0.00    +0.000 NA
ATOM      2  H   UNL     1       2.336   4.506  16.955  0.00  0.00    +0.000 HD
ENDROOT
BRANCH   1   8
ATOM      3  O   UNL     1       6.600   5.360  14.897  0.00  0.00    +0.000 OA
ATOM      4  S   UNL     1       6.731   5.036  16.305  0.00  0.00    +0.000 S 
ATOM      5  O   UNL     1       7.918   4.400  16.840  0.00  0.00    +0.000 OA
ATOM      6  C   UNL     1       6.356   6.499  17.261  0.00  0.00    +0.000 C 
ATOM      7  C   UNL     1       5.023   6.210  17.962  0.00  0.00    +0.000 C 
ATOM      8  C   UNL     1       4.260   5.215  17.065  0.00  0.00    +0.000 C 
ATOM      9  C   UNL     1       5.292   4.113  16.801  0.00  0.00    +0.000 C 
ENDBRANCH   1   8
BRANCH   1  10
ATOM     10  C   UNL     1       3.146   3.673  18.656  0.00  0.00    +0.000 C 
ATOM     11  C   UNL     1       2.287   2.426  18.367  0.00  0.00    +0.000 C 
ATOM     12  C   UNL     1       0.816   2.613  18.723  0.00  0.00    +0.000 C 
ATOM     13  N   UNL     1       0.646   3.004  20.121  0.00  0.00    +0.000 NA
ATOM     14  C   UNL     1       1.346   4.258  20.398  0.00  0.00    +0.000 C 
ATOM     15  C   UNL     1       2.839   4.166  20.085  0.00  0.00    +0.000 C 
ATOM     16  H   UNL     1       1.021   2.271  20.725  0.00  0.00    +0.000 HD
ENDBRANCH   1  10
TORSDOF 2
ENDMDL
