MODEL 1
REMARK VINA RESULT:      -6.8      0.000      0.000
REMARK  Name = 
REMARK  4 active torsions:
REMARK  status: ('A' for Active; 'I' for Inactive)
REMARK    1  A    between atoms: C_1  and  S_2
REMARK    2  A    between atoms: S_2  and  C_3
REMARK    3  A    between atoms: C_6  and  S_7
REMARK    4  A    between atoms: S_7  and  N_10
REMARK                            x       y       z     vdW  Elec       q    Type
REMARK                         _______ _______ _______ _____ _____    ______ ____
ROOT
ATOM      1  C   UNL     1       2.403   4.424  18.941  0.00  0.00    +0.000 A 
ATOM      2  C   UNL     1       2.852   5.742  18.810  0.00  0.00    +0.000 A 
ATOM      3  C   UNL     1       3.862   6.059  17.894  0.00  0.00    +0.000 A 
ATOM      4  C   UNL     1       4.425   5.054  17.102  0.00  0.00    +0.000 A 
ATOM      5  C   UNL     1       3.970   3.738  17.219  0.00  0.00    +0.000 A 
ATOM      6  C   UNL     1       2.983   3.422  18.158  0.00  0.00    +0.000 A 
ENDROOT
BRANCH   4   7
ATOM      7  S   UNL     1       5.596   5.482  15.822  0.00  0.00    +0.000 S 
ATOM      8  O   UNL     1       5.714   4.324  14.964  0.00  0.00    +0.000 OA
ATOM      9  O   UNL     1       5.194   6.772  15.290  0.00  0.00    +0.000 OA
BRANCH   7  10
ATOM     10  N   UNL     1       7.070   5.707  16.600  0.00  0.00    +0.000 NA
ATOM     11  C   UNL     1       7.598   4.695  17.523  0.00  0.00    +0.000 C 
ATOM     12  C   UNL     1       7.604   5.398  18.865  0.00  0.00    +0.000 C 
ATOM     13  C   UNL     1       7.934   6.840  18.520  0.00  0.00    +0.000 C 
ATOM     14  C   UNL     1       7.443   7.046  17.088  0.00  0.00    +0.000 C 
ENDBRANCH   7  10
ENDBRANCH   4   7
BRANCH   1  16
ATOM     15  C   UNL     1       2.104   3.207  21.394  0.00  0.00    +0.000 C 
ATOM     16  S   UNL     1       1.110   3.990  20.091  0.00  0.00    +0.000 S 
ENDBRANCH   1  16
TORSDOF 3
ENDMDL
MODEL 2
REMARK VINA RESULT:      -6.7      0.251      1.233
REMARK  Name = 
REMARK  4 active torsions:
REMARK  status: ('A' for Active; 'I' for Inactive)
REMARK    1  A    between atoms: C_1  and  S_2
REMARK    2  A    between atoms: S_2  and  C_3
REMARK    3  A    between atoms: C_6  and  S_7
REMARK    4  A    between atoms: S_7  and  N_10
REMARK                            x       y       z     vdW  Elec       q    Type
REMARK                         _______ _______ _______ _____ _____    ______ ____
ROOT
ATOM      1  C   UNL     1       2.604   4.630  18.990  0.00  0.00    +0.000 A 
ATOM      2  C   UNL     1       3.066   3.582  18.189  0.00  0.00    +0.000 A 
ATOM      3  C   UNL     1       3.984   3.827  17.160  0.00  0.00    +0.000 A 
ATOM      4  C   UNL     1       4.447   5.127  16.936  0.00  0.00    +0.000 A 
ATOM      5  C   UNL     1       4.000   6.176  17.743  0.00  0.00    +0.000 A 
ATOM      6  C   UNL     1       3.058   5.930  18.748  0.00  0.00    +0.000 A 
ENDROOT
BRANCH   4   7
ATOM      7  S   UNL     1       5.739   5.415  15.735  0.00  0.00    +0.000 S 
ATOM      8  O   UNL     1       5.879   4.193  14.976  0.00  0.00    +0.000 OA
ATOM      9  O   UNL     1       5.439   6.676  15.079  0.00  0.00    +0.000 OA
BRANCH   7  10
ATOM     10  N   UNL     1       7.150   5.645  16.620  0.00  0.00    +0.000 NA
ATOM     11  C   UNL     1       7.582   4.660  17.619  0.00  0.00    +0.000 C 
ATOM     12  C   UNL     1       7.496   5.413  18.931  0.00  0.00    +0.000 C 
ATOM     13  C   UNL     1       7.881   6.836  18.561  0.00  0.00    +0.000 C 
ATOM     14  C   UNL     1       7.510   6.995  17.088  0.00  0.00    +0.000 C 
ENDBRANCH   7  10
ENDBRANCH   4   7
BRANCH   1  16
ATOM     15  C   UNL     1       2.217   2.912  21.108  0.00  0.00    +0.000 C 
ATOM     16  S   UNL     1       1.442   4.349  20.314  0.00  0.00    +0.000 S 
ENDBRANCH   1  16
TORSDOF 3
ENDMDL
MODEL 3
REMARK VINA RESULT:      -6.3      2.888      5.689
REMARK  Name = 
REMARK  4 active torsions:
REMARK  status: ('A' for Active; 'I' for Inactive)
REMARK    1  A    between atoms: C_1  and  S_2
REMARK    2  A    between atoms: S_2  and  C_3
REMARK    3  A    between atoms: C_6  and  S_7
REMARK    4  A    between atoms: S_7  and  N_10
REMARK                            x       y       z     vdW  Elec       q    Type
REMARK                         _______ _______ _______ _____ _____    ______ ____
ROOT
ATOM      1  C   UNL     1       6.041   5.587  18.341  0.00  0.00    +0.000 A 
ATOM      2  C   UNL     1       5.811   4.311  18.864  0.00  0.00    +0.000 A 
ATOM      3  C   UNL     1       4.541   3.728  18.779  0.00  0.00    +0.000 A 
ATOM      4  C   UNL     1       3.495   4.423  18.164  0.00  0.00    +0.000 A 
ATOM      5  C   UNL     1       3.723   5.692  17.626  0.00  0.00    +0.000 A 
ATOM      6  C   UNL     1       4.986   6.283  17.743  0.00  0.00    +0.000 A 
ENDROOT
BRANCH   4   7
ATOM      7  S   UNL     1       1.920   3.617  17.909  0.00  0.00    +0.000 S 
ATOM      8  O   UNL     1       1.103   4.535  17.147  0.00  0.00    +0.000 OA
ATOM      9  O   UNL     1       2.200   2.278  17.421  0.00  0.00    +0.000 OA
BRANCH   7  10
ATOM     10  N   UNL     1       1.234   3.451  19.436  0.00  0.00    +0.000 NA
ATOM     11  C   UNL     1       1.240   4.566  20.390  0.00  0.00    +0.000 C 
ATOM     12  C   UNL     1       2.114   4.069  21.524  0.00  0.00    +0.000 C 
ATOM     13  C   UNL     1       1.819   2.579  21.585  0.00  0.00    +0.000 C 
ATOM     14  C   UNL     1       1.387   2.185  20.174  0.00  0.00    +0.000 C 
ENDBRANCH   7  10
ENDBRANCH   4   7
BRANCH   1  16
ATOM     15  C   UNL     1       7.352   7.815  17.391  0.00  0.00    +0.000 C 
ATOM     16  S   UNL     1       7.650   6.352  18.425  0.00  0.00    +0.000 S 
ENDBRANCH   1  16
TORSDOF 3
ENDMDL
MODEL 4
REMARK VINA RESULT:      -6.2      2.923      5.404
REMARK  Name = 
REMARK  4 active torsions:
REMARK  status: ('A' for Active; 'I' for Inactive)
REMARK    1  A    between atoms: C_1  and  S_2
REMARK    2  A    between atoms: S_2  and  C_3
REMARK    3  A    between atoms: C_6  and  S_7
REMARK    4  A    between atoms: S_7  and  N_10
REMARK                            x       y       z     vdW  Elec       q    Type
REMARK                         _______ _______ _______ _____ _____    ______ ____
ROOT
ATOM      1  C   UNL     1       5.807   5.731  18.044  0.00  0.00    +0.000 A 
ATOM      2  C   UNL     1       4.675   6.353  17.508  0.00  0.00    +0.000 A 
ATOM      3  C   UNL     1       3.462   5.660  17.415  0.00  0.00    +0.000 A 
ATOM      4  C   UNL     1       3.379   4.338  17.864  0.00  0.00    +0.000 A 
ATOM      5  C   UNL     1       4.504   3.717  18.412  0.00  0.00    +0.000 A 
ATOM      6  C   UNL     1       5.721   4.404  18.473  0.00  0.00    +0.000 A 
ENDROOT
BRANCH   4   7
ATOM      7  S   UNL     1       1.797   3.508  17.896  0.00  0.00    +0.000 S 
ATOM      8  O   UNL     1       0.879   4.337  17.148  0.00  0.00    +0.000 OA
ATOM      9  O   UNL     1       2.034   2.124  17.524  0.00  0.00    +0.000 OA
BRANCH   7  10
ATOM     10  N   UNL     1       1.308   3.508  19.505  0.00  0.00    +0.000 NA
ATOM     11  C   UNL     1       1.375   4.732  20.314  0.00  0.00    +0.000 C 
ATOM     12  C   UNL     1       2.402   4.405  21.379  0.00  0.00    +0.000 C 
ATOM     13  C   UNL     1       2.188   2.926  21.652  0.00  0.00    +0.000 C 
ATOM     14  C   UNL     1       1.608   2.348  20.362  0.00  0.00    +0.000 C 
ENDBRANCH   7  10
ENDBRANCH   4   7
BRANCH   1  16
ATOM     15  C   UNL     1       8.113   5.654  19.547  0.00  0.00    +0.000 C 
ATOM     16  S   UNL     1       7.363   6.591  18.185  0.00  0.00    +0.000 S 
ENDBRANCH   1  16
TORSDOF 3
ENDMDL
MODEL 5
REMARK VINA RESULT:      -6.1      2.964      5.555
REMARK  Name = 
REMARK  4 active torsions:
REMARK  status: ('A' for Active; 'I' for Inactive)
REMARK    1  A    between atoms: C_1  and  S_2
REMARK    2  A    between atoms: S_2  and  C_3
REMARK    3  A    between atoms: C_6  and  S_7
REMARK    4  A    between atoms: S_7  and  N_10
REMARK                            x       y       z     vdW  Elec       q    Type
REMARK                         _______ _______ _______ _____ _____    ______ ____
ROOT
ATOM      1  C   UNL     1       5.837   5.739  17.631  0.00  0.00    +0.000 A 
ATOM      2  C   UNL     1       6.024   4.861  18.702  0.00  0.00    +0.000 A 
ATOM      3  C   UNL     1       5.111   3.826  18.939  0.00  0.00    +0.000 A 
ATOM      4  C   UNL     1       4.006   3.666  18.097  0.00  0.00    +0.000 A 
ATOM      5  C   UNL     1       3.822   4.532  17.016  0.00  0.00    +0.000 A 
ATOM      6  C   UNL     1       4.720   5.583  16.804  0.00  0.00    +0.000 A 
ENDROOT
BRANCH   4   7
ATOM      7  S   UNL     1       2.932   2.252  18.299  0.00  0.00    +0.000 S 
ATOM      8  O   UNL     1       2.048   2.236  17.155  0.00  0.00    +0.000 OA
ATOM      9  O   UNL     1       3.779   1.114  18.609  0.00  0.00    +0.000 OA
BRANCH   7  10
ATOM     10  N   UNL     1       2.008   2.565  19.669  0.00  0.00    +0.000 NA
ATOM     11  C   UNL     1       1.024   3.654  19.682  0.00  0.00    +0.000 C 
ATOM     12  C   UNL     1       1.569   4.622  20.713  0.00  0.00    +0.000 C 
ATOM     13  C   UNL     1       2.216   3.722  21.752  0.00  0.00    +0.000 C 
ATOM     14  C   UNL     1       2.617   2.451  21.005  0.00  0.00    +0.000 C 
ENDBRANCH   7  10
ENDBRANCH   4   7
BRANCH   1  16
ATOM     15  C   UNL     1       8.119   6.850  18.702  0.00  0.00    +0.000 C 
ATOM     16  S   UNL     1       6.987   7.061  17.297  0.00  0.00    +0.000 S 
ENDBRANCH   1  16
TORSDOF 3
ENDMDL
MODEL 6
REMARK VINA RESULT:      -6.0      3.059      5.888
REMARK  Name = 
REMARK  4 active torsions:
REMARK  status: ('A' for Active; 'I' for Inactive)
REMARK    1  A    between atoms: C_1  and  S_2
REMARK    2  A    between atoms: S_2  and  C_3
REMARK    3  A    between atoms: C_6  and  S_7
REMARK    4  A    between atoms: S_7  and  N_10
REMARK                            x       y       z     vdW  Elec       q    Type
REMARK                         _______ _______ _______ _____ _____    ______ ____
ROOT
ATOM      1  C   UNL     1       6.597   4.592  15.049  0.00  0.00    +0.000 A 
ATOM      2  C   UNL     1       7.307   4.836  16.228  0.00  0.00    +0.000 A 
ATOM      3  C   UNL     1       6.669   4.747  17.471  0.00  0.00    +0.000 A 
ATOM      4  C   UNL     1       5.314   4.409  17.536  0.00  0.00    +0.000 A 
ATOM      5  C   UNL     1       4.603   4.151  16.361  0.00  0.00    +0.000 A 
ATOM      6  C   UNL     1       5.238   4.273  15.120  0.00  0.00    +0.000 A 
ENDROOT
BRANCH   4   7
ATOM      7  S   UNL     1       4.540   4.137  19.124  0.00  0.00    +0.000 S 
ATOM      8  O   UNL     1       5.211   3.004  19.722  0.00  0.00    +0.000 OA
ATOM      9  O   UNL     1       4.488   5.421  19.799  0.00  0.00    +0.000 OA
BRANCH   7  10
ATOM     10  N   UNL     1       2.953   3.689  18.794  0.00  0.00    +0.000 NA
ATOM     11  C   UNL     1       1.845   4.628  19.006  0.00  0.00    +0.000 C 
ATOM     12  C   UNL     1       1.033   3.985  20.112  0.00  0.00    +0.000 C 
ATOM     13  C   UNL     1       1.167   2.495  19.844  0.00  0.00    +0.000 C 
ATOM     14  C   UNL     1       2.496   2.325  19.111  0.00  0.00    +0.000 C 
ENDBRANCH   7  10
ENDBRANCH   4   7
BRANCH   1  16
ATOM     15  C   UNL     1       6.317   3.557  12.511  0.00  0.00    +0.000 C 
ATOM     16  S   UNL     1       7.384   4.687  13.451  0.00  0.00    +0.000 S 
ENDBRANCH   1  16
TORSDOF 3
ENDMDL
MODEL 7
REMARK VINA RESULT:      -5.9      2.890      4.689
REMARK  Name = 
REMARK  4 active torsions:
REMARK  status: ('A' for Active; 'I' for Inactive)
REMARK    1  A    between atoms: C_1  and  S_2
REMARK    2  A    between atoms: S_2  and  C_3
REMARK    3  A    between atoms: C_6  and  S_7
REMARK    4  A    between atoms: S_7  and  N_10
REMARK                            x       y       z     vdW  Elec       q    Type
REMARK                         _______ _______ _______ _____ _____    ______ ____
ROOT
ATOM      1  C   UNL     1       2.276   8.032  18.821  0.00  0.00    +0.000 A 
ATOM      2  C   UNL     1       3.052   7.894  17.667  0.00  0.00    +0.000 A 
ATOM      3  C   UNL     1       3.874   6.773  17.495  0.00  0.00    +0.000 A 
ATOM      4  C   UNL     1       3.917   5.783  18.481  0.00  0.00    +0.000 A 
ATOM      5  C   UNL     1       3.132   5.910  19.630  0.00  0.00    +0.000 A 
ATOM      6  C   UNL     1       2.338   7.047  19.811  0.00  0.00    +0.000 A 
ENDROOT
BRANCH   4   7
ATOM      7  S   UNL     1       4.837   4.279  18.191  0.00  0.00    +0.000 S 
ATOM      8  O   UNL     1       5.487   4.432  16.908  0.00  0.00    +0.000 OA
ATOM      9  O   UNL     1       5.603   4.009  19.394  0.00  0.00    +0.000 OA
BRANCH   7  10
ATOM     10  N   UNL     1       3.691   3.056  18.052  0.00  0.00    +0.000 NA
ATOM     11  C   UNL     1       2.473   3.250  17.256  0.00  0.00    +0.000 C 
ATOM     12  C   UNL     1       1.357   3.188  18.279  0.00  0.00    +0.000 C 
ATOM     13  C   UNL     1       1.848   2.169  19.293  0.00  0.00    +0.000 C 
ATOM     14  C   UNL     1       3.374   2.213  19.218  0.00  0.00    +0.000 C 
ENDBRANCH   7  10
ENDBRANCH   4   7
BRANCH   1  16
ATOM     15  C   UNL     1       0.732   9.174  20.796  0.00  0.00    +0.000 C 
ATOM     16  S   UNL     1       1.212   9.443  19.065  0.00  0.00    +0.000 S 
ENDBRANCH   1  16
TORSDOF 3
ENDMDL
MODEL 8
REMARK VINA RESULT:      -5.9      3.019      5.716
REMARK  Name = 
REMARK  4 active torsions:
REMARK  status: ('A' for Active; 'I' for Inactive)
REMARK    1  A    between atoms: C_1  and  S_2
REMARK    2  A    between atoms: S_2  and  C_3
REMARK    3  A    between atoms: C_6  and  S_7
REMARK    4  A    between atoms: S_7  and  N_10
REMARK                            x       y       z     vdW  Elec       q    Type
REMARK                         _______ _______ _______ _____ _____    ______ ____
ROOT
ATOM      1  C   UNL     1       6.016   4.842  14.965  0.00  0.00    +0.000 A 
ATOM      2  C   UNL     1       5.540   6.092  15.371  0.00  0.00    +0.000 A 
ATOM      3  C   UNL     1       4.765   6.214  16.530  0.00  0.00    +0.000 A 
ATOM      4  C   UNL     1       4.466   5.079  17.290  0.00  0.00    +0.000 A 
ATOM      5  C   UNL     1       4.951   3.829  16.896  0.00  0.00    +0.000 A 
ATOM      6  C   UNL     1       5.698   3.709  15.720  0.00  0.00    +0.000 A 
ENDROOT
BRANCH   4   7
ATOM      7  S   UNL     1       3.617   5.254  18.853  0.00  0.00    +0.000 S 
ATOM      8  O   UNL     1       4.639   5.409  19.865  0.00  0.00    +0.000 OA
ATOM      9  O   UNL     1       2.586   6.259  18.668  0.00  0.00    +0.000 OA
BRANCH   7  10
ATOM     10  N   UNL     1       2.836   3.789  19.121  0.00  0.00    +0.000 NA
ATOM     11  C   UNL     1       1.407   3.631  18.821  0.00  0.00    +0.000 C 
ATOM     12  C   UNL     1       0.777   3.387  20.177  0.00  0.00    +0.000 C 
ATOM     13  C   UNL     1       1.830   2.593  20.932  0.00  0.00    +0.000 C 
ATOM     14  C   UNL     1       3.169   2.988  20.312  0.00  0.00    +0.000 C 
ENDBRANCH   7  10
ENDBRANCH   4   7
BRANCH   1  16
ATOM     15  C   UNL     1       6.009   3.448  12.589  0.00  0.00    +0.000 C 
ATOM     16  S   UNL     1       7.014   4.656  13.498  0.00  0.00    +0.000 S 
ENDBRANCH   1  16
TORSDOF 3
ENDMDL
MODEL 9
REMARK VINA RESULT:      -5.8      2.953      4.755
REMARK  Name = 
REMARK  4 active torsions:
REMARK  status: ('A' for Active; 'I' for Inactive)
REMARK    1  A    between atoms: C_1  and  S_2
REMARK    2  A    between atoms: S_2  and  C_3
REMARK    3  A    between atoms: C_6  and  S_7
REMARK    4  A    between atoms: S_7  and  N_10
REMARK                            x       y       z     vdW  Elec       q    Type
REMARK                         _______ _______ _______ _____ _____    ______ ____
ROOT
ATOM      1  C   UNL     1       2.248   8.062  18.750  0.00  0.00    +0.000 A 
ATOM      2  C   UNL     1       2.212   7.082  19.747  0.00  0.00    +0.000 A 
ATOM      3  C   UNL     1       2.948   5.899  19.605  0.00  0.00    +0.000 A 
ATOM      4  C   UNL     1       3.728   5.697  18.463  0.00  0.00    +0.000 A 
ATOM      5  C   UNL     1       3.778   6.679  17.470  0.00  0.00    +0.000 A 
ATOM      6  C   UNL     1       3.016   7.844  17.602  0.00  0.00    +0.000 A 
ENDROOT
BRANCH   4   7
ATOM      7  S   UNL     1       4.793   4.265  18.355  0.00  0.00    +0.000 S 
ATOM      8  O   UNL     1       5.342   4.258  17.018  0.00  0.00    +0.000 OA
ATOM      9  O   UNL     1       5.657   4.288  19.522  0.00  0.00    +0.000 OA
BRANCH   7  10
ATOM     10  N   UNL     1       3.786   2.928  18.514  0.00  0.00    +0.000 NA
ATOM     11  C   UNL     1       2.679   2.701  17.576  0.00  0.00    +0.000 C 
ATOM     12  C   UNL     1       1.441   2.829  18.440  0.00  0.00    +0.000 C 
ATOM     13  C   UNL     1       1.871   2.259  19.781  0.00  0.00    +0.000 C 
ATOM     14  C   UNL     1       3.383   2.469  19.855  0.00  0.00    +0.000 C 
ENDBRANCH   7  10
ENDBRANCH   4   7
BRANCH   1  16
ATOM     15  C   UNL     1       0.675   9.380  20.587  0.00  0.00    +0.000 C 
ATOM     16  S   UNL     1       1.329   9.583  18.906  0.00  0.00    +0.000 S 
ENDBRANCH   1  16
TORSDOF 3
ENDMDL
