MODEL 1
REMARK VINA RESULT:      -7.2      0.000      0.000
REMARK  Name = 
REMARK  10 active torsions:
REMARK  status: ('A' for Active; 'I' for Inactive)
REMARK    1  A    between atoms: C_1  and  C_2
REMARK    2  A    between atoms: C_2  and  O_3
REMARK    3  A    between atoms: O_3  and  C_4
REMARK    4  A    between atoms: C_6  and  N_7
REMARK    5  A    between atoms: N_7  and  S_8
REMARK    6  A    between atoms: S_8  and  C_11
REMARK    7  A    between atoms: C_14  and  N_15
REMARK    8  A    between atoms: C_22  and  N_23
REMARK    9  A    between atoms: N_23  and  S_24
REMARK   10  A    between atoms: S_24  and  C_25
REMARK                            x       y       z     vdW  Elec       q    Type
REMARK                         _______ _______ _______ _____ _____    ______ ____
ROOT
ATOM      1  C   UNL     1       1.086   9.546  19.347  0.00  0.00    +0.000 A 
ATOM      2  C   UNL     1       2.023   8.531  19.044  0.00  0.00    +0.000 A 
ATOM      3  C   UNL     1       2.178   7.416  19.869  0.00  0.00    +0.000 A 
ATOM      4  C   UNL     1       1.349   7.265  20.972  0.00  0.00    +0.000 A 
ATOM      5  C   UNL     1       0.416   8.262  21.285  0.00  0.00    +0.000 A 
ATOM      6  C   UNL     1       0.274   9.412  20.491  0.00  0.00    +0.000 A 
ENDROOT
BRANCH   3   7
ATOM      7  N   UNL     1       3.221   6.460  19.637  0.00  0.00    +0.000 N 
ATOM      8  H   UNL     1       4.029   6.866  19.159  0.00  0.00    +0.000 HD
BRANCH   7   9
ATOM      9  S   UNL     1       2.849   5.012  18.835  0.00  0.00    +0.000 S 
ATOM     10  O   UNL     1       3.102   3.886  19.701  0.00  0.00    +0.000 OA
ATOM     11  O   UNL     1       1.567   5.228  18.208  0.00  0.00    +0.000 OA
BRANCH   9  12
ATOM     12  C   UNL     1       4.073   4.979  17.529  0.00  0.00    +0.000 A 
ATOM     13  C   UNL     1       4.476   3.747  17.003  0.00  0.00    +0.000 A 
ATOM     14  C   UNL     1       5.388   3.705  15.942  0.00  0.00    +0.000 A 
ATOM     15  C   UNL     1       5.885   4.900  15.403  0.00  0.00    +0.000 A 
ATOM     16  C   UNL     1       5.463   6.139  15.908  0.00  0.00    +0.000 A 
ATOM     17  C   UNL     1       4.548   6.176  16.969  0.00  0.00    +0.000 A 
BRANCH  15  18
ATOM     18  N   UNL     1       6.851   4.849  14.295  0.00  0.00    +0.000 N 
ATOM     19  O   UNL     1       6.602   4.087  13.350  0.00  0.00    +0.000 OA
ATOM     20  O   UNL     1       7.861   5.562  14.376  0.00  0.00    +0.000 OA
ENDBRANCH  15  18
ENDBRANCH   9  12
ENDBRANCH   7   9
ENDBRANCH   3   7
BRANCH   6  21
ATOM     21  N   UNL     1      -0.764  10.316  20.893  0.00  0.00    +0.000 N 
ATOM     22  H   UNL     1      -1.369  10.665  20.151  0.00  0.00    +0.000 HD
BRANCH  21  23
ATOM     23  S   UNL     1      -0.485  11.494  22.067  0.00  0.00    +0.000 S 
ATOM     24  C   UNL     1      -1.887  12.584  21.938  0.00  0.00    +0.000 C 
ATOM     25  O   UNL     1      -0.499  10.898  23.383  0.00  0.00    +0.000 OA
ATOM     26  O   UNL     1       0.669  12.228  21.590  0.00  0.00    +0.000 OA
ENDBRANCH  21  23
ENDBRANCH   6  21
BRANCH   1  27
ATOM     27  O   UNL     1       1.094  10.528  18.390  0.00  0.00    +0.000 OA
BRANCH  27  29
ATOM     28  C   UNL     1       2.303  12.598  18.325  0.00  0.00    +0.000 C 
ATOM     29  C   UNL     1       2.322  11.115  17.988  0.00  0.00    +0.000 C 
ENDBRANCH  27  29
ENDBRANCH   1  27
TORSDOF 8
ENDMDL
MODEL 2
REMARK VINA RESULT:      -7.1      2.474      3.022
REMARK  Name = 
REMARK  10 active torsions:
REMARK  status: ('A' for Active; 'I' for Inactive)
REMARK    1  A    between atoms: C_1  and  C_2
REMARK    2  A    between atoms: C_2  and  O_3
REMARK    3  A    between atoms: O_3  and  C_4
REMARK    4  A    between atoms: C_6  and  N_7
REMARK    5  A    between atoms: N_7  and  S_8
REMARK    6  A    between atoms: S_8  and  C_11
REMARK    7  A    between atoms: C_14  and  N_15
REMARK    8  A    between atoms: C_22  and  N_23
REMARK    9  A    between atoms: N_23  and  S_24
REMARK   10  A    between atoms: S_24  and  C_25
REMARK                            x       y       z     vdW  Elec       q    Type
REMARK                         _______ _______ _______ _____ _____    ______ ____
ROOT
ATOM      1  C   UNL     1       2.178   7.258  18.956  0.00  0.00    +0.000 A 
ATOM      2  C   UNL     1       2.172   5.999  18.311  0.00  0.00    +0.000 A 
ATOM      3  C   UNL     1       1.915   4.822  19.015  0.00  0.00    +0.000 A 
ATOM      4  C   UNL     1       1.589   4.893  20.362  0.00  0.00    +0.000 A 
ATOM      5  C   UNL     1       1.590   6.133  21.016  0.00  0.00    +0.000 A 
ATOM      6  C   UNL     1       1.889   7.323  20.334  0.00  0.00    +0.000 A 
ENDROOT
BRANCH   3   7
ATOM      7  N   UNL     1       2.046   3.539  18.391  0.00  0.00    +0.000 N 
ATOM      8  H   UNL     1       1.258   2.919  18.594  0.00  0.00    +0.000 HD
BRANCH   7   9
ATOM      9  S   UNL     1       3.460   2.638  18.646  0.00  0.00    +0.000 S 
ATOM     10  O   UNL     1       3.524   2.192  20.017  0.00  0.00    +0.000 OA
ATOM     11  O   UNL     1       3.549   1.722  17.535  0.00  0.00    +0.000 OA
BRANCH   9  12
ATOM     12  C   UNL     1       4.740   3.869  18.415  0.00  0.00    +0.000 A 
ATOM     13  C   UNL     1       5.113   4.229  17.116  0.00  0.00    +0.000 A 
ATOM     14  C   UNL     1       6.069   5.232  16.916  0.00  0.00    +0.000 A 
ATOM     15  C   UNL     1       6.640   5.879  18.022  0.00  0.00    +0.000 A 
ATOM     16  C   UNL     1       6.249   5.542  19.325  0.00  0.00    +0.000 A 
ATOM     17  C   UNL     1       5.290   4.538  19.520  0.00  0.00    +0.000 A 
BRANCH  15  18
ATOM     18  N   UNL     1       7.653   6.924  17.805  0.00  0.00    +0.000 N 
ATOM     19  O   UNL     1       8.448   7.153  18.728  0.00  0.00    +0.000 OA
ATOM     20  O   UNL     1       7.646   7.519  16.719  0.00  0.00    +0.000 OA
ENDBRANCH  15  18
ENDBRANCH   9  12
ENDBRANCH   7   9
ENDBRANCH   3   7
BRANCH   6  21
ATOM     21  N   UNL     1       1.789   8.524  21.113  0.00  0.00    +0.000 N 
ATOM     22  H   UNL     1       2.580   8.733  21.721  0.00  0.00    +0.000 HD
BRANCH  21  23
ATOM     23  S   UNL     1       0.329   8.984  21.819  0.00  0.00    +0.000 S 
ATOM     24  C   UNL     1      -0.140  10.459  20.939  0.00  0.00    +0.000 C 
ATOM     25  O   UNL     1      -0.679   7.977  21.578  0.00  0.00    +0.000 OA
ATOM     26  O   UNL     1       0.679   9.385  23.166  0.00  0.00    +0.000 OA
ENDBRANCH  21  23
ENDBRANCH   6  21
BRANCH   1  27
ATOM     27  O   UNL     1       2.436   8.269  18.067  0.00  0.00    +0.000 OA
BRANCH  27  29
ATOM     28  C   UNL     1       1.998  10.626  18.036  0.00  0.00    +0.000 C 
ATOM     29  C   UNL     1       1.436   9.236  17.784  0.00  0.00    +0.000 C 
ENDBRANCH  27  29
ENDBRANCH   1  27
TORSDOF 8
ENDMDL
MODEL 3
REMARK VINA RESULT:      -7.1      1.701      2.863
REMARK  Name = 
REMARK  10 active torsions:
REMARK  status: ('A' for Active; 'I' for Inactive)
REMARK    1  A    between atoms: C_1  and  C_2
REMARK    2  A    between atoms: C_2  and  O_3
REMARK    3  A    between atoms: O_3  and  C_4
REMARK    4  A    between atoms: C_6  and  N_7
REMARK    5  A    between atoms: N_7  and  S_8
REMARK    6  A    between atoms: S_8  and  C_11
REMARK    7  A    between atoms: C_14  and  N_15
REMARK    8  A    between atoms: C_22  and  N_23
REMARK    9  A    between atoms: N_23  and  S_24
REMARK   10  A    between atoms: S_24  and  C_25
REMARK                            x       y       z     vdW  Elec       q    Type
REMARK                         _______ _______ _______ _____ _____    ______ ____
ROOT
ATOM      1  C   UNL     1       0.847   9.324  19.986  0.00  0.00    +0.000 A 
ATOM      2  C   UNL     1       1.662   8.225  20.346  0.00  0.00    +0.000 A 
ATOM      3  C   UNL     1       2.430   7.548  19.398  0.00  0.00    +0.000 A 
ATOM      4  C   UNL     1       2.449   8.004  18.087  0.00  0.00    +0.000 A 
ATOM      5  C   UNL     1       1.647   9.091  17.714  0.00  0.00    +0.000 A 
ATOM      6  C   UNL     1       0.835   9.758  18.646  0.00  0.00    +0.000 A 
ENDROOT
BRANCH   3   7
ATOM      7  N   UNL     1       3.145   6.353  19.737  0.00  0.00    +0.000 N 
ATOM      8  H   UNL     1       4.160   6.475  19.697  0.00  0.00    +0.000 HD
BRANCH   7   9
ATOM      9  S   UNL     1       2.789   4.916  18.908  0.00  0.00    +0.000 S 
ATOM     10  O   UNL     1       3.007   3.779  19.770  0.00  0.00    +0.000 OA
ATOM     11  O   UNL     1       1.528   5.146  18.245  0.00  0.00    +0.000 OA
BRANCH   9  12
ATOM     12  C   UNL     1       4.052   4.888  17.640  0.00  0.00    +0.000 A 
ATOM     13  C   UNL     1       4.061   3.844  16.709  0.00  0.00    +0.000 A 
ATOM     14  C   UNL     1       5.005   3.837  15.675  0.00  0.00    +0.000 A 
ATOM     15  C   UNL     1       5.931   4.885  15.571  0.00  0.00    +0.000 A 
ATOM     16  C   UNL     1       5.908   5.949  16.485  0.00  0.00    +0.000 A 
ATOM     17  C   UNL     1       4.960   5.952  17.517  0.00  0.00    +0.000 A 
BRANCH  15  18
ATOM     18  N   UNL     1       6.927   4.866  14.490  0.00  0.00    +0.000 N 
ATOM     19  O   UNL     1       7.915   5.605  14.606  0.00  0.00    +0.000 OA
ATOM     20  O   UNL     1       6.716   4.122  13.522  0.00  0.00    +0.000 OA
ENDBRANCH  15  18
ENDBRANCH   9  12
ENDBRANCH   7   9
ENDBRANCH   3   7
BRANCH   6  21
ATOM     21  N   UNL     1       0.118  10.893  18.139  0.00  0.00    +0.000 N 
ATOM     22  H   UNL     1       0.507  11.808  18.364  0.00  0.00    +0.000 HD
BRANCH  21  23
ATOM     23  S   UNL     1      -1.568  10.925  18.131  0.00  0.00    +0.000 S 
ATOM     24  C   UNL     1      -1.997  11.866  19.580  0.00  0.00    +0.000 C 
ATOM     25  O   UNL     1      -2.046  11.641  16.970  0.00  0.00    +0.000 OA
ATOM     26  O   UNL     1      -1.965   9.554  18.381  0.00  0.00    +0.000 OA
ENDBRANCH  21  23
ENDBRANCH   6  21
BRANCH   1  27
ATOM     27  O   UNL     1       0.202   9.841  21.080  0.00  0.00    +0.000 OA
BRANCH  27  29
ATOM     28  C   UNL     1      -0.282   9.666  23.421  0.00  0.00    +0.000 C 
ATOM     29  C   UNL     1      -0.323   8.970  22.070  0.00  0.00    +0.000 C 
ENDBRANCH  27  29
ENDBRANCH   1  27
TORSDOF 8
ENDMDL
MODEL 4
REMARK VINA RESULT:      -7.0      2.107      2.684
REMARK  Name = 
REMARK  10 active torsions:
REMARK  status: ('A' for Active; 'I' for Inactive)
REMARK    1  A    between atoms: C_1  and  C_2
REMARK    2  A    between atoms: C_2  and  O_3
REMARK    3  A    between atoms: O_3  and  C_4
REMARK    4  A    between atoms: C_6  and  N_7
REMARK    5  A    between atoms: N_7  and  S_8
REMARK    6  A    between atoms: S_8  and  C_11
REMARK    7  A    between atoms: C_14  and  N_15
REMARK    8  A    between atoms: C_22  and  N_23
REMARK    9  A    between atoms: N_23  and  S_24
REMARK   10  A    between atoms: S_24  and  C_25
REMARK                            x       y       z     vdW  Elec       q    Type
REMARK                         _______ _______ _______ _____ _____    ______ ____
ROOT
ATOM      1  C   UNL     1       2.219   7.223  19.192  0.00  0.00    +0.000 A 
ATOM      2  C   UNL     1       2.144   5.969  18.541  0.00  0.00    +0.000 A 
ATOM      3  C   UNL     1       1.783   4.811  19.232  0.00  0.00    +0.000 A 
ATOM      4  C   UNL     1       1.423   4.902  20.569  0.00  0.00    +0.000 A 
ATOM      5  C   UNL     1       1.492   6.136  21.228  0.00  0.00    +0.000 A 
ATOM      6  C   UNL     1       1.894   7.304  20.561  0.00  0.00    +0.000 A 
ENDROOT
BRANCH   3   7
ATOM      7  N   UNL     1       1.843   3.524  18.605  0.00  0.00    +0.000 N 
ATOM      8  H   UNL     1       1.038   2.936  18.834  0.00  0.00    +0.000 HD
BRANCH   7   9
ATOM      9  S   UNL     1       3.228   2.567  18.816  0.00  0.00    +0.000 S 
ATOM     10  O   UNL     1       3.554   2.467  20.219  0.00  0.00    +0.000 OA
ATOM     11  O   UNL     1       3.032   1.402  17.988  0.00  0.00    +0.000 OA
BRANCH   9  12
ATOM     12  C   UNL     1       4.496   3.560  18.034  0.00  0.00    +0.000 A 
ATOM     13  C   UNL     1       4.488   3.704  16.643  0.00  0.00    +0.000 A 
ATOM     14  C   UNL     1       5.436   4.524  16.020  0.00  0.00    +0.000 A 
ATOM     15  C   UNL     1       6.384   5.207  16.796  0.00  0.00    +0.000 A 
ATOM     16  C   UNL     1       6.379   5.088  18.193  0.00  0.00    +0.000 A 
ATOM     17  C   UNL     1       5.426   4.267  18.813  0.00  0.00    +0.000 A 
BRANCH  15  18
ATOM     18  N   UNL     1       7.384   6.058  16.134  0.00  0.00    +0.000 N 
ATOM     19  O   UNL     1       7.775   7.065  16.742  0.00  0.00    +0.000 OA
ATOM     20  O   UNL     1       7.771   5.724  15.005  0.00  0.00    +0.000 OA
ENDBRANCH  15  18
ENDBRANCH   9  12
ENDBRANCH   7   9
ENDBRANCH   3   7
BRANCH   6  21
ATOM     21  N   UNL     1       1.855   8.507  21.342  0.00  0.00    +0.000 N 
ATOM     22  H   UNL     1       2.381   8.493  22.216  0.00  0.00    +0.000 HD
BRANCH  21  23
ATOM     23  S   UNL     1       0.434   9.403  21.491  0.00  0.00    +0.000 S 
ATOM     24  C   UNL     1       0.134   9.464  23.245  0.00  0.00    +0.000 C 
ATOM     25  O   UNL     1       0.647  10.754  21.024  0.00  0.00    +0.000 OA
ATOM     26  O   UNL     1      -0.595   8.564  20.913  0.00  0.00    +0.000 OA
ENDBRANCH  21  23
ENDBRANCH   6  21
BRANCH   1  27
ATOM     27  O   UNL     1       2.573   8.215  18.316  0.00  0.00    +0.000 OA
BRANCH  27  29
ATOM     28  C   UNL     1       2.105  10.538  17.950  0.00  0.00    +0.000 C 
ATOM     29  C   UNL     1       1.589   9.113  17.826  0.00  0.00    +0.000 C 
ENDBRANCH  27  29
ENDBRANCH   1  27
TORSDOF 8
ENDMDL
MODEL 5
REMARK VINA RESULT:      -6.9      2.523      8.015
REMARK  Name = 
REMARK  10 active torsions:
REMARK  status: ('A' for Active; 'I' for Inactive)
REMARK    1  A    between atoms: C_1  and  C_2
REMARK    2  A    between atoms: C_2  and  O_3
REMARK    3  A    between atoms: O_3  and  C_4
REMARK    4  A    between atoms: C_6  and  N_7
REMARK    5  A    between atoms: N_7  and  S_8
REMARK    6  A    between atoms: S_8  and  C_11
REMARK    7  A    between atoms: C_14  and  N_15
REMARK    8  A    between atoms: C_22  and  N_23
REMARK    9  A    between atoms: N_23  and  S_24
REMARK   10  A    between atoms: S_24  and  C_25
REMARK                            x       y       z     vdW  Elec       q    Type
REMARK                         _______ _______ _______ _____ _____    ______ ____
ROOT
ATOM      1  C   UNL     1       6.770   5.761  17.776  0.00  0.00    +0.000 A 
ATOM      2  C   UNL     1       5.922   5.878  18.902  0.00  0.00    +0.000 A 
ATOM      3  C   UNL     1       4.861   4.995  19.108  0.00  0.00    +0.000 A 
ATOM      4  C   UNL     1       4.677   3.937  18.229  0.00  0.00    +0.000 A 
ATOM      5  C   UNL     1       5.509   3.808  17.109  0.00  0.00    +0.000 A 
ATOM      6  C   UNL     1       6.554   4.712  16.861  0.00  0.00    +0.000 A 
ENDROOT
BRANCH   3   7
ATOM      7  N   UNL     1       3.921   5.197  20.171  0.00  0.00    +0.000 N 
ATOM      8  H   UNL     1       4.018   4.508  20.921  0.00  0.00    +0.000 HD
BRANCH   7   9
ATOM      9  S   UNL     1       2.268   5.295  19.802  0.00  0.00    +0.000 S 
ATOM     10  O   UNL     1       1.989   4.580  18.579  0.00  0.00    +0.000 OA
ATOM     11  O   UNL     1       1.573   5.010  21.034  0.00  0.00    +0.000 OA
BRANCH   9  12
ATOM     12  C   UNL     1       2.057   7.041  19.471  0.00  0.00    +0.000 A 
ATOM     13  C   UNL     1       2.354   7.535  18.197  0.00  0.00    +0.000 A 
ATOM     14  C   UNL     1       2.139   8.886  17.903  0.00  0.00    +0.000 A 
ATOM     15  C   UNL     1       1.614   9.738  18.886  0.00  0.00    +0.000 A 
ATOM     16  C   UNL     1       1.288   9.242  20.157  0.00  0.00    +0.000 A 
ATOM     17  C   UNL     1       1.504   7.887  20.446  0.00  0.00    +0.000 A 
BRANCH  15  18
ATOM     18  N   UNL     1       1.401  11.159  18.575  0.00  0.00    +0.000 N 
ATOM     19  O   UNL     1       2.393  11.834  18.265  0.00  0.00    +0.000 OA
ATOM     20  O   UNL     1       0.246  11.600  18.649  0.00  0.00    +0.000 OA
ENDBRANCH  15  18
ENDBRANCH   9  12
ENDBRANCH   7   9
ENDBRANCH   3   7
BRANCH   6  21
ATOM     21  N   UNL     1       7.365   4.421  15.714  0.00  0.00    +0.000 N 
ATOM     22  H   UNL     1       8.369   4.357  15.877  0.00  0.00    +0.000 HD
BRANCH  21  23
ATOM     23  S   UNL     1       7.027   5.107  14.212  0.00  0.00    +0.000 S 
ATOM     24  C   UNL     1       6.469   3.739  13.218  0.00  0.00    +0.000 C 
ATOM     25  O   UNL     1       5.938   6.051  14.330  0.00  0.00    +0.000 OA
ATOM     26  O   UNL     1       8.315   5.514  13.691  0.00  0.00    +0.000 OA
ENDBRANCH  21  23
ENDBRANCH   6  21
BRANCH   1  27
ATOM     27  O   UNL     1       7.748   6.722  17.792  0.00  0.00    +0.000 OA
BRANCH  27  29
ATOM     28  C   UNL     1       8.370   9.008  18.157  0.00  0.00    +0.000 C 
ATOM     29  C   UNL     1       7.437   8.057  17.425  0.00  0.00    +0.000 C 
ENDBRANCH  27  29
ENDBRANCH   1  27
TORSDOF 8
ENDMDL
MODEL 6
REMARK VINA RESULT:      -6.8      1.799      2.853
REMARK  Name = 
REMARK  10 active torsions:
REMARK  status: ('A' for Active; 'I' for Inactive)
REMARK    1  A    between atoms: C_1  and  C_2
REMARK    2  A    between atoms: C_2  and  O_3
REMARK    3  A    between atoms: O_3  and  C_4
REMARK    4  A    between atoms: C_6  and  N_7
REMARK    5  A    between atoms: N_7  and  S_8
REMARK    6  A    between atoms: S_8  and  C_11
REMARK    7  A    between atoms: C_14  and  N_15
REMARK    8  A    between atoms: C_22  and  N_23
REMARK    9  A    between atoms: N_23  and  S_24
REMARK   10  A    between atoms: S_24  and  C_25
REMARK                            x       y       z     vdW  Elec       q    Type
REMARK                         _______ _______ _______ _____ _____    ______ ____
ROOT
ATOM      1  C   UNL     1       0.872   8.579  20.215  0.00  0.00    +0.000 A 
ATOM      2  C   UNL     1       1.622   7.465  20.659  0.00  0.00    +0.000 A 
ATOM      3  C   UNL     1       2.619   6.896  19.866  0.00  0.00    +0.000 A 
ATOM      4  C   UNL     1       2.930   7.478  18.644  0.00  0.00    +0.000 A 
ATOM      5  C   UNL     1       2.197   8.582  18.190  0.00  0.00    +0.000 A 
ATOM      6  C   UNL     1       1.161   9.141  18.956  0.00  0.00    +0.000 A 
ENDROOT
BRANCH   3   7
ATOM      7  N   UNL     1       3.281   5.687  20.256  0.00  0.00    +0.000 N 
ATOM      8  H   UNL     1       4.299   5.782  20.278  0.00  0.00    +0.000 HD
BRANCH   7   9
ATOM      9  S   UNL     1       2.938   4.252  19.418  0.00  0.00    +0.000 S 
ATOM     10  O   UNL     1       3.261   3.109  20.238  0.00  0.00    +0.000 OA
ATOM     11  O   UNL     1       1.630   4.437  18.839  0.00  0.00    +0.000 OA
BRANCH   9  12
ATOM     12  C   UNL     1       4.120   4.307  18.075  0.00  0.00    +0.000 A 
ATOM     13  C   UNL     1       3.686   4.041  16.773  0.00  0.00    +0.000 A 
ATOM     14  C   UNL     1       4.583   4.138  15.702  0.00  0.00    +0.000 A 
ATOM     15  C   UNL     1       5.913   4.514  15.941  0.00  0.00    +0.000 A 
ATOM     16  C   UNL     1       6.347   4.809  17.241  0.00  0.00    +0.000 A 
ATOM     17  C   UNL     1       5.444   4.713  18.309  0.00  0.00    +0.000 A 
BRANCH  15  18
ATOM     18  N   UNL     1       6.853   4.602  14.814  0.00  0.00    +0.000 N 
ATOM     19  O   UNL     1       7.773   5.429  14.897  0.00  0.00    +0.000 OA
ATOM     20  O   UNL     1       6.667   3.853  13.845  0.00  0.00    +0.000 OA
ENDBRANCH  15  18
ENDBRANCH   9  12
ENDBRANCH   7   9
ENDBRANCH   3   7
BRANCH   6  21
ATOM     21  N   UNL     1       0.540  10.308  18.397  0.00  0.00    +0.000 N 
ATOM     22  H   UNL     1       0.153  10.206  17.459  0.00  0.00    +0.000 HD
BRANCH  21  23
ATOM     23  S   UNL     1       1.201  11.842  18.629  0.00  0.00    +0.000 S 
ATOM     24  C   UNL     1       1.315  12.009  20.398  0.00  0.00    +0.000 C 
ATOM     25  O   UNL     1       2.539  11.894  18.085  0.00  0.00    +0.000 OA
ATOM     26  O   UNL     1       0.174  12.759  18.180  0.00  0.00    +0.000 OA
ENDBRANCH  21  23
ENDBRANCH   6  21
BRANCH   1  27
ATOM     27  O   UNL     1      -0.034   8.976  21.164  0.00  0.00    +0.000 OA
BRANCH  27  29
ATOM     28  C   UNL     1      -0.665  10.105  23.183  0.00  0.00    +0.000 C 
ATOM     29  C   UNL     1       0.405   9.287  22.477  0.00  0.00    +0.000 C 
ENDBRANCH  27  29
ENDBRANCH   1  27
TORSDOF 8
ENDMDL
MODEL 7
REMARK VINA RESULT:      -6.8      2.435      7.984
REMARK  Name = 
REMARK  10 active torsions:
REMARK  status: ('A' for Active; 'I' for Inactive)
REMARK    1  A    between atoms: C_1  and  C_2
REMARK    2  A    between atoms: C_2  and  O_3
REMARK    3  A    between atoms: O_3  and  C_4
REMARK    4  A    between atoms: C_6  and  N_7
REMARK    5  A    between atoms: N_7  and  S_8
REMARK    6  A    between atoms: S_8  and  C_11
REMARK    7  A    between atoms: C_14  and  N_15
REMARK    8  A    between atoms: C_22  and  N_23
REMARK    9  A    between atoms: N_23  and  S_24
REMARK   10  A    between atoms: S_24  and  C_25
REMARK                            x       y       z     vdW  Elec       q    Type
REMARK                         _______ _______ _______ _____ _____    ______ ____
ROOT
ATOM      1  C   UNL     1       5.756   6.412  17.072  0.00  0.00    +0.000 A 
ATOM      2  C   UNL     1       5.302   6.026  18.355  0.00  0.00    +0.000 A 
ATOM      3  C   UNL     1       4.515   4.887  18.536  0.00  0.00    +0.000 A 
ATOM      4  C   UNL     1       4.230   4.077  17.445  0.00  0.00    +0.000 A 
ATOM      5  C   UNL     1       4.672   4.446  16.168  0.00  0.00    +0.000 A 
ATOM      6  C   UNL     1       5.428   5.611  15.960  0.00  0.00    +0.000 A 
ENDROOT
BRANCH   3   7
ATOM      7  N   UNL     1       3.942   4.575  19.812  0.00  0.00    +0.000 N 
ATOM      8  H   UNL     1       4.198   3.642  20.143  0.00  0.00    +0.000 HD
BRANCH   7   9
ATOM      9  S   UNL     1       2.265   4.728  20.022  0.00  0.00    +0.000 S 
ATOM     10  O   UNL     1       1.567   4.036  18.965  0.00  0.00    +0.000 OA
ATOM     11  O   UNL     1       2.016   4.453  21.417  0.00  0.00    +0.000 OA
BRANCH   9  12
ATOM     12  C   UNL     1       2.012   6.484  19.781  0.00  0.00    +0.000 A 
ATOM     13  C   UNL     1       2.184   7.029  18.505  0.00  0.00    +0.000 A 
ATOM     14  C   UNL     1       1.934   8.389  18.286  0.00  0.00    +0.000 A 
ATOM     15  C   UNL     1       1.500   9.196  19.347  0.00  0.00    +0.000 A 
ATOM     16  C   UNL     1       1.299   8.649  20.622  0.00  0.00    +0.000 A 
ATOM     17  C   UNL     1       1.549   7.287  20.836  0.00  0.00    +0.000 A 
BRANCH  15  18
ATOM     18  N   UNL     1       1.249  10.626  19.113  0.00  0.00    +0.000 N 
ATOM     19  O   UNL     1       1.887  11.181  18.206  0.00  0.00    +0.000 OA
ATOM     20  O   UNL     1       0.423  11.195  19.840  0.00  0.00    +0.000 OA
ENDBRANCH  15  18
ENDBRANCH   9  12
ENDBRANCH   7   9
ENDBRANCH   3   7
BRANCH   6  21
ATOM     21  N   UNL     1       5.868   5.830  14.612  0.00  0.00    +0.000 N 
ATOM     22  H   UNL     1       5.136   5.943  13.912  0.00  0.00    +0.000 HD
BRANCH  21  23
ATOM     23  S   UNL     1       7.198   5.004  13.986  0.00  0.00    +0.000 S 
ATOM     24  C   UNL     1       6.487   3.644  13.083  0.00  0.00    +0.000 C 
ATOM     25  O   UNL     1       7.909   5.844  13.048  0.00  0.00    +0.000 OA
ATOM     26  O   UNL     1       7.866   4.444  15.143  0.00  0.00    +0.000 OA
ENDBRANCH  21  23
ENDBRANCH   6  21
BRANCH   1  27
ATOM     27  O   UNL     1       6.524   7.545  17.140  0.00  0.00    +0.000 OA
BRANCH  27  29
ATOM     28  C   UNL     1       8.274   8.942  17.997  0.00  0.00    +0.000 C 
ATOM     29  C   UNL     1       7.770   7.518  17.818  0.00  0.00    +0.000 C 
ENDBRANCH  27  29
ENDBRANCH   1  27
TORSDOF 8
ENDMDL
MODEL 8
REMARK VINA RESULT:      -6.8      1.867      3.144
REMARK  Name = 
REMARK  10 active torsions:
REMARK  status: ('A' for Active; 'I' for Inactive)
REMARK    1  A    between atoms: C_1  and  C_2
REMARK    2  A    between atoms: C_2  and  O_3
REMARK    3  A    between atoms: O_3  and  C_4
REMARK    4  A    between atoms: C_6  and  N_7
REMARK    5  A    between atoms: N_7  and  S_8
REMARK    6  A    between atoms: S_8  and  C_11
REMARK    7  A    between atoms: C_14  and  N_15
REMARK    8  A    between atoms: C_22  and  N_23
REMARK    9  A    between atoms: N_23  and  S_24
REMARK   10  A    between atoms: S_24  and  C_25
REMARK                            x       y       z     vdW  Elec       q    Type
REMARK                         _______ _______ _______ _____ _____    ______ ____
ROOT
ATOM      1  C   UNL     1       0.068   9.176  20.475  0.00  0.00    +0.000 A 
ATOM      2  C   UNL     1       1.210   8.344  20.408  0.00  0.00    +0.000 A 
ATOM      3  C   UNL     1       1.999   8.282  19.259  0.00  0.00    +0.000 A 
ATOM      4  C   UNL     1       1.699   9.106  18.183  0.00  0.00    +0.000 A 
ATOM      5  C   UNL     1       0.571   9.936  18.233  0.00  0.00    +0.000 A 
ATOM      6  C   UNL     1      -0.260   9.979  19.364  0.00  0.00    +0.000 A 
ENDROOT
BRANCH   3   7
ATOM      7  N   UNL     1       3.071   7.338  19.144  0.00  0.00    +0.000 N 
ATOM      8  H   UNL     1       3.811   7.656  18.513  0.00  0.00    +0.000 HD
BRANCH   7   9
ATOM      9  S   UNL     1       2.716   5.735  18.717  0.00  0.00    +0.000 S 
ATOM     10  O   UNL     1       3.044   4.847  19.807  0.00  0.00    +0.000 OA
ATOM     11  O   UNL     1       1.402   5.768  18.122  0.00  0.00    +0.000 OA
BRANCH   9  12
ATOM     12  C   UNL     1       3.884   5.428  17.395  0.00  0.00    +0.000 A 
ATOM     13  C   UNL     1       4.553   6.508  16.811  0.00  0.00    +0.000 A 
ATOM     14  C   UNL     1       5.512   6.282  15.817  0.00  0.00    +0.000 A 
ATOM     15  C   UNL     1       5.807   4.970  15.420  0.00  0.00    +0.000 A 
ATOM     16  C   UNL     1       5.159   3.881  16.022  0.00  0.00    +0.000 A 
ATOM     17  C   UNL     1       4.200   4.113  17.018  0.00  0.00    +0.000 A 
BRANCH  15  18
ATOM     18  N   UNL     1       6.807   4.739  14.367  0.00  0.00    +0.000 N 
ATOM     19  O   UNL     1       7.847   5.412  14.406  0.00  0.00    +0.000 OA
ATOM     20  O   UNL     1       6.549   3.893  13.499  0.00  0.00    +0.000 OA
ENDBRANCH  15  18
ENDBRANCH   9  12
ENDBRANCH   7   9
ENDBRANCH   3   7
BRANCH   6  21
ATOM     21  N   UNL     1      -1.340  10.921  19.302  0.00  0.00    +0.000 N 
ATOM     22  H   UNL     1      -1.772  11.170  20.191  0.00  0.00    +0.000 HD
BRANCH  21  23
ATOM     23  S   UNL     1      -2.477  10.860  18.058  0.00  0.00    +0.000 S 
ATOM     24  C   UNL     1      -3.900  11.700  18.722  0.00  0.00    +0.000 C 
ATOM     25  O   UNL     1      -2.006  11.608  16.915  0.00  0.00    +0.000 OA
ATOM     26  O   UNL     1      -2.826   9.459  17.943  0.00  0.00    +0.000 OA
ENDBRANCH  21  23
ENDBRANCH   6  21
BRANCH   1  27
ATOM     27  O   UNL     1      -0.537   9.089  21.701  0.00  0.00    +0.000 OA
BRANCH  27  29
ATOM     28  C   UNL     1      -1.065  11.008  23.038  0.00  0.00    +0.000 C 
ATOM     29  C   UNL     1      -0.072   9.885  22.780  0.00  0.00    +0.000 C 
ENDBRANCH  27  29
ENDBRANCH   1  27
TORSDOF 8
ENDMDL
MODEL 9
REMARK VINA RESULT:      -6.8      2.560      9.580
REMARK  Name = 
REMARK  10 active torsions:
REMARK  status: ('A' for Active; 'I' for Inactive)
REMARK    1  A    between atoms: C_1  and  C_2
REMARK    2  A    between atoms: C_2  and  O_3
REMARK    3  A    between atoms: O_3  and  C_4
REMARK    4  A    between atoms: C_6  and  N_7
REMARK    5  A    between atoms: N_7  and  S_8
REMARK    6  A    between atoms: S_8  and  C_11
REMARK    7  A    between atoms: C_14  and  N_15
REMARK    8  A    between atoms: C_22  and  N_23
REMARK    9  A    between atoms: N_23  and  S_24
REMARK   10  A    between atoms: S_24  and  C_25
REMARK                            x       y       z     vdW  Elec       q    Type
REMARK                         _______ _______ _______ _____ _____    ______ ____
ROOT
ATOM      1  C   UNL     1       2.979   5.907  19.442  0.00  0.00    +0.000 A 
ATOM      2  C   UNL     1       2.140   6.817  20.127  0.00  0.00    +0.000 A 
ATOM      3  C   UNL     1       1.867   8.084  19.610  0.00  0.00    +0.000 A 
ATOM      4  C   UNL     1       2.372   8.434  18.365  0.00  0.00    +0.000 A 
ATOM      5  C   UNL     1       3.205   7.543  17.675  0.00  0.00    +0.000 A 
ATOM      6  C   UNL     1       3.526   6.281  18.199  0.00  0.00    +0.000 A 
ENDROOT
BRANCH   3   7
ATOM      7  N   UNL     1       1.133   9.054  20.368  0.00  0.00    +0.000 N 
ATOM      8  H   UNL     1       0.389   8.634  20.930  0.00  0.00    +0.000 HD
BRANCH   7   9
ATOM      9  S   UNL     1       0.452  10.385  19.565  0.00  0.00    +0.000 S 
ATOM     10  O   UNL     1       1.459  11.392  19.333  0.00  0.00    +0.000 OA
ATOM     11  O   UNL     1      -0.345   9.834  18.496  0.00  0.00    +0.000 OA
BRANCH   9  12
ATOM     12  C   UNL     1      -0.684  11.025  20.792  0.00  0.00    +0.000 A 
ATOM     13  C   UNL     1      -0.551  10.619  22.123  0.00  0.00    +0.000 A 
ATOM     14  C   UNL     1      -1.392  11.155  23.105  0.00  0.00    +0.000 A 
ATOM     15  C   UNL     1      -2.360  12.106  22.749  0.00  0.00    +0.000 A 
ATOM     16  C   UNL     1      -2.479  12.537  21.420  0.00  0.00    +0.000 A 
ATOM     17  C   UNL     1      -1.632  12.000  20.441  0.00  0.00    +0.000 A 
BRANCH  15  18
ATOM     18  N   UNL     1      -3.248  12.656  23.784  0.00  0.00    +0.000 N 
ATOM     19  O   UNL     1      -4.165  11.933  24.198  0.00  0.00    +0.000 OA
ATOM     20  O   UNL     1      -3.035  13.813  24.174  0.00  0.00    +0.000 OA
ENDBRANCH  15  18
ENDBRANCH   9  12
ENDBRANCH   7   9
ENDBRANCH   3   7
BRANCH   6  21
ATOM     21  N   UNL     1       4.334   5.449  17.355  0.00  0.00    +0.000 N 
ATOM     22  H   UNL     1       3.896   4.594  17.013  0.00  0.00    +0.000 HD
BRANCH  21  23
ATOM     23  S   UNL     1       5.973   5.217  17.675  0.00  0.00    +0.000 S 
ATOM     24  C   UNL     1       6.607   4.457  16.195  0.00  0.00    +0.000 C 
ATOM     25  O   UNL     1       6.633   6.492  17.843  0.00  0.00    +0.000 OA
ATOM     26  O   UNL     1       6.010   4.213  18.718  0.00  0.00    +0.000 OA
ENDBRANCH  21  23
ENDBRANCH   6  21
BRANCH   1  27
ATOM     27  O   UNL     1       3.087   4.724  20.126  0.00  0.00    +0.000 OA
BRANCH  27  29
ATOM     28  C   UNL     1       1.040   3.483  20.270  0.00  0.00    +0.000 C 
ATOM     29  C   UNL     1       2.425   3.564  19.646  0.00  0.00    +0.000 C 
ENDBRANCH  27  29
ENDBRANCH   1  27
TORSDOF 8
ENDMDL
