MODEL 1
REMARK VINA RESULT:      -7.5      0.000      0.000
REMARK  Name = 
REMARK  5 active torsions:
REMARK  status: ('A' for Active; 'I' for Inactive)
REMARK    1  A    between atoms: C_1  and  O_2
REMARK    2  A    between atoms: O_2  and  C_3
REMARK    3  A    between atoms: C_8  and  O_9
REMARK    4  A    between atoms: O_9  and  C_10
REMARK    5  A    between atoms: C_10  and  C_12
REMARK                            x       y       z     vdW  Elec       q    Type
REMARK                         _______ _______ _______ _____ _____    ______ ____
ROOT
ATOM      1  C   UNL     1      -5.529  12.597  22.023  0.00  0.00    +0.000 A 
ATOM      2  C   UNL     1      -5.581  13.063  23.336  0.00  0.00    +0.000 A 
ATOM      3  C   UNL     1      -4.359  13.406  23.949  0.00  0.00    +0.000 A 
ATOM      4  C   UNL     1      -3.248  13.549  23.131  0.00  0.00    +0.000 A 
ATOM      5  C   UNL     1      -3.540  13.866  21.823  0.00  0.00    +0.000 A 
ATOM      6  C   UNL     1      -4.422  12.954  21.259  0.00  0.00    +0.000 A 
ATOM      7  C   UNL     1      -2.514  14.804  21.272  0.00  0.00    +0.000 C 
ATOM      8  N   UNL     1      -1.244  14.142  20.960  0.00  0.00    +0.000 NA
ATOM      9  C   UNL     1      -1.331  13.935  19.518  0.00  0.00    +0.000 C 
ATOM     10  C   UNL     1      -0.300  13.042  18.913  0.00  0.00    +0.000 C 
ATOM     11  C   UNL     1       0.165  11.931  19.802  0.00  0.00    +0.000 A 
ATOM     12  C   UNL     1       0.805  10.909  19.085  0.00  0.00    +0.000 A 
ATOM     13  C   UNL     1       1.138   9.780  19.757  0.00  0.00    +0.000 A 
ATOM     14  C   UNL     1       0.884   9.667  21.114  0.00  0.00    +0.000 A 
ATOM     15  C   UNL     1       0.307  10.679  21.873  0.00  0.00    +0.000 A 
ATOM     16  C   UNL     1      -0.091  11.867  21.217  0.00  0.00    +0.000 A 
ATOM     17  C   UNL     1      -1.139  12.873  21.779  0.00  0.00    +0.000 C 
ATOM     18  C   UNL     1      -1.741  13.167  23.304  0.00  0.00    +0.000 C 
ATOM     19  O   UNL     1       1.230   8.402  21.525  0.00  0.00    +0.000 OA
ATOM     20  C   UNL     1       1.596   7.760  20.269  0.00  0.00    +0.000 C 
ATOM     21  O   UNL     1       1.633   8.667  19.163  0.00  0.00    +0.000 OA
ENDROOT
BRANCH   1  23
ATOM     22  C   UNL     1      -7.682  12.235  21.212  0.00  0.00    +0.000 C 
ATOM     23  O   UNL     1      -6.399  11.675  21.507  0.00  0.00    +0.000 OA
ENDBRANCH   1  23
BRANCH   6  24
ATOM     24  O   UNL     1      -3.977  11.975  20.305  0.00  0.00    +0.000 OA
BRANCH  24  25
ATOM     25  C   UNL     1      -4.495  12.185  18.997  0.00  0.00    +0.000 C 
ATOM     26  O   UNL     1      -5.393  12.963  18.691  0.00  0.00    +0.000 OA
BRANCH  25  27
ATOM     27  C   UNL     1      -3.866  11.334  17.948  0.00  0.00    +0.000 A 
ATOM     28  C   UNL     1      -2.729  10.568  18.196  0.00  0.00    +0.000 A 
ATOM     29  C   UNL     1      -2.080   9.919  17.139  0.00  0.00    +0.000 A 
ATOM     30  C   UNL     1      -2.563  10.026  15.833  0.00  0.00    +0.000 A 
ATOM     31  C   UNL     1      -3.728  10.743  15.581  0.00  0.00    +0.000 A 
ATOM     32  C   UNL     1      -4.384  11.388  16.635  0.00  0.00    +0.000 A 
ENDBRANCH  25  27
ENDBRANCH  24  25
ENDBRANCH   6  24
TORSDOF 4
ENDMDL
MODEL 2
REMARK VINA RESULT:      -6.6      1.668      6.901
REMARK  Name = 
REMARK  5 active torsions:
REMARK  status: ('A' for Active; 'I' for Inactive)
REMARK    1  A    between atoms: C_1  and  O_2
REMARK    2  A    between atoms: O_2  and  C_3
REMARK    3  A    between atoms: C_8  and  O_9
REMARK    4  A    between atoms: O_9  and  C_10
REMARK    5  A    between atoms: C_10  and  C_12
REMARK                            x       y       z     vdW  Elec       q    Type
REMARK                         _______ _______ _______ _____ _____    ______ ____
ROOT
ATOM      1  C   UNL     1       0.850   9.323  20.290  0.00  0.00    +0.000 A 
ATOM      2  C   UNL     1       1.380   8.949  19.057  0.00  0.00    +0.000 A 
ATOM      3  C   UNL     1       0.740   9.445  17.902  0.00  0.00    +0.000 A 
ATOM      4  C   UNL     1      -0.157  10.490  18.064  0.00  0.00    +0.000 A 
ATOM      5  C   UNL     1       0.062  11.262  19.183  0.00  0.00    +0.000 A 
ATOM      6  C   UNL     1       0.096  10.491  20.338  0.00  0.00    +0.000 A 
ATOM      7  C   UNL     1      -0.239  12.698  18.894  0.00  0.00    +0.000 C 
ATOM      8  N   UNL     1      -1.677  12.977  18.828  0.00  0.00    +0.000 NA
ATOM      9  C   UNL     1      -1.959  13.539  20.145  0.00  0.00    +0.000 C 
ATOM     10  C   UNL     1      -3.399  13.695  20.504  0.00  0.00    +0.000 C 
ATOM     11  C   UNL     1      -4.305  12.654  19.924  0.00  0.00    +0.000 A 
ATOM     12  C   UNL     1      -5.539  12.593  20.589  0.00  0.00    +0.000 A 
ATOM     13  C   UNL     1      -6.388  11.591  20.254  0.00  0.00    +0.000 A 
ATOM     14  C   UNL     1      -6.051  10.686  19.260  0.00  0.00    +0.000 A 
ATOM     15  C   UNL     1      -4.865  10.746  18.537  0.00  0.00    +0.000 A 
ATOM     16  C   UNL     1      -3.928  11.752  18.868  0.00  0.00    +0.000 A 
ATOM     17  C   UNL     1      -2.412  11.692  18.514  0.00  0.00    +0.000 C 
ATOM     18  C   UNL     1      -1.531  10.828  17.395  0.00  0.00    +0.000 C 
ATOM     19  O   UNL     1      -7.034   9.727  19.185  0.00  0.00    +0.000 OA
ATOM     20  C   UNL     1      -7.905  10.092  20.294  0.00  0.00    +0.000 C 
ATOM     21  O   UNL     1      -7.547  11.334  20.907  0.00  0.00    +0.000 OA
ENDROOT
BRANCH   1  23
ATOM     22  C   UNL     1       1.407   7.225  21.134  0.00  0.00    +0.000 C 
ATOM     23  O   UNL     1       0.875   8.526  21.403  0.00  0.00    +0.000 OA
ENDBRANCH   1  23
BRANCH   6  24
ATOM     24  O   UNL     1      -0.998  10.495  21.271  0.00  0.00    +0.000 OA
BRANCH  24  25
ATOM     25  C   UNL     1      -0.637  10.967  22.563  0.00  0.00    +0.000 C 
ATOM     26  O   UNL     1       0.256  10.517  23.274  0.00  0.00    +0.000 OA
BRANCH  25  27
ATOM     27  C   UNL     1      -1.473  12.098  23.054  0.00  0.00    +0.000 A 
ATOM     28  C   UNL     1      -0.953  13.375  23.253  0.00  0.00    +0.000 A 
ATOM     29  C   UNL     1      -1.732  14.359  23.872  0.00  0.00    +0.000 A 
ATOM     30  C   UNL     1      -3.034  14.077  24.292  0.00  0.00    +0.000 A 
ATOM     31  C   UNL     1      -3.584  12.822  24.050  0.00  0.00    +0.000 A 
ATOM     32  C   UNL     1      -2.810  11.838  23.426  0.00  0.00    +0.000 A 
ENDBRANCH  25  27
ENDBRANCH  24  25
ENDBRANCH   6  24
TORSDOF 4
ENDMDL
MODEL 3
REMARK VINA RESULT:      -6.5      1.392      2.260
REMARK  Name = 
REMARK  5 active torsions:
REMARK  status: ('A' for Active; 'I' for Inactive)
REMARK    1  A    between atoms: C_1  and  O_2
REMARK    2  A    between atoms: O_2  and  C_3
REMARK    3  A    between atoms: C_8  and  O_9
REMARK    4  A    between atoms: O_9  and  C_10
REMARK    5  A    between atoms: C_10  and  C_12
REMARK                            x       y       z     vdW  Elec       q    Type
REMARK                         _______ _______ _______ _____ _____    ______ ____
ROOT
ATOM      1  C   UNL     1      -7.171  12.587  20.335  0.00  0.00    +0.000 A 
ATOM      2  C   UNL     1      -7.916  13.010  21.434  0.00  0.00    +0.000 A 
ATOM      3  C   UNL     1      -7.205  13.522  22.538  0.00  0.00    +0.000 A 
ATOM      4  C   UNL     1      -5.871  13.851  22.346  0.00  0.00    +0.000 A 
ATOM      5  C   UNL     1      -5.539  14.148  21.044  0.00  0.00    +0.000 A 
ATOM      6  C   UNL     1      -5.898  13.125  20.177  0.00  0.00    +0.000 A 
ATOM      7  C   UNL     1      -4.522  15.244  21.002  0.00  0.00    +0.000 C 
ATOM      8  N   UNL     1      -3.178  14.790  21.374  0.00  0.00    +0.000 NA
ATOM      9  C   UNL     1      -2.529  14.605  20.080  0.00  0.00    +0.000 C 
ATOM     10  C   UNL     1      -1.218  13.893  20.092  0.00  0.00    +0.000 C 
ATOM     11  C   UNL     1      -1.084  12.847  21.155  0.00  0.00    +0.000 A 
ATOM     12  C   UNL     1      -0.038  11.950  20.888  0.00  0.00    +0.000 A 
ATOM     13  C   UNL     1       0.090  10.871  21.698  0.00  0.00    +0.000 A 
ATOM     14  C   UNL     1      -0.768  10.691  22.772  0.00  0.00    +0.000 A 
ATOM     15  C   UNL     1      -1.778  11.585  23.104  0.00  0.00    +0.000 A 
ATOM     16  C   UNL     1      -1.978  12.713  22.274  0.00  0.00    +0.000 A 
ATOM     17  C   UNL     1      -3.299  13.534  22.210  0.00  0.00    +0.000 C 
ATOM     18  C   UNL     1      -4.597  13.699  23.242  0.00  0.00    +0.000 C 
ATOM     19  O   UNL     1      -0.484   9.484  23.366  0.00  0.00    +0.000 OA
ATOM     20  C   UNL     1       0.529   8.933  22.476  0.00  0.00    +0.000 C 
ATOM     21  O   UNL     1       0.964   9.860  21.476  0.00  0.00    +0.000 OA
ENDROOT
BRANCH   1  23
ATOM     22  C   UNL     1      -7.281  10.273  20.097  0.00  0.00    +0.000 C 
ATOM     23  O   UNL     1      -7.542  11.554  19.516  0.00  0.00    +0.000 OA
ENDBRANCH   1  23
BRANCH   6  24
ATOM     24  O   UNL     1      -4.912  12.247  19.607  0.00  0.00    +0.000 OA
BRANCH  24  25
ATOM     25  C   UNL     1      -4.837  12.326  18.190  0.00  0.00    +0.000 C 
ATOM     26  O   UNL     1      -5.589  12.964  17.459  0.00  0.00    +0.000 OA
BRANCH  25  27
ATOM     27  C   UNL     1      -3.738  11.518  17.591  0.00  0.00    +0.000 A 
ATOM     28  C   UNL     1      -3.802  11.026  16.289  0.00  0.00    +0.000 A 
ATOM     29  C   UNL     1      -2.824  10.135  15.829  0.00  0.00    +0.000 A 
ATOM     30  C   UNL     1      -1.777   9.735  16.663  0.00  0.00    +0.000 A 
ATOM     31  C   UNL     1      -1.672  10.262  17.946  0.00  0.00    +0.000 A 
ATOM     32  C   UNL     1      -2.643  11.157  18.407  0.00  0.00    +0.000 A 
ENDBRANCH  25  27
ENDBRANCH  24  25
ENDBRANCH   6  24
TORSDOF 4
ENDMDL
MODEL 4
REMARK VINA RESULT:      -6.3      1.585      2.363
REMARK  Name = 
REMARK  5 active torsions:
REMARK  status: ('A' for Active; 'I' for Inactive)
REMARK    1  A    between atoms: C_1  and  O_2
REMARK    2  A    between atoms: O_2  and  C_3
REMARK    3  A    between atoms: C_8  and  O_9
REMARK    4  A    between atoms: O_9  and  C_10
REMARK    5  A    between atoms: C_10  and  C_12
REMARK                            x       y       z     vdW  Elec       q    Type
REMARK                         _______ _______ _______ _____ _____    ______ ____
ROOT
ATOM      1  C   UNL     1      -6.361  14.596  21.397  0.00  0.00    +0.000 A 
ATOM      2  C   UNL     1      -7.095  14.550  22.581  0.00  0.00    +0.000 A 
ATOM      3  C   UNL     1      -6.387  14.280  23.769  0.00  0.00    +0.000 A 
ATOM      4  C   UNL     1      -5.005  14.380  23.731  0.00  0.00    +0.000 A 
ATOM      5  C   UNL     1      -4.521  15.217  22.751  0.00  0.00    +0.000 A 
ATOM      6  C   UNL     1      -5.000  14.866  21.495  0.00  0.00    +0.000 A 
ATOM      7  C   UNL     1      -3.313  15.951  23.240  0.00  0.00    +0.000 C 
ATOM      8  N   UNL     1      -2.114  15.108  23.288  0.00  0.00    +0.000 NA
ATOM      9  C   UNL     1      -1.413  15.470  22.061  0.00  0.00    +0.000 C 
ATOM     10  C   UNL     1      -0.267  14.598  21.670  0.00  0.00    +0.000 C 
ATOM     11  C   UNL     1      -0.419  13.158  22.049  0.00  0.00    +0.000 A 
ATOM     12  C   UNL     1       0.453  12.325  21.333  0.00  0.00    +0.000 A 
ATOM     13  C   UNL     1       0.309  10.985  21.478  0.00  0.00    +0.000 A 
ATOM     14  C   UNL     1      -0.649  10.469  22.337  0.00  0.00    +0.000 A 
ATOM     15  C   UNL     1      -1.492  11.260  23.108  0.00  0.00    +0.000 A 
ATOM     16  C   UNL     1      -1.407  12.665  22.972  0.00  0.00    +0.000 A 
ATOM     17  C   UNL     1      -2.538  13.657  23.374  0.00  0.00    +0.000 C 
ATOM     18  C   UNL     1      -3.857  13.542  24.386  0.00  0.00    +0.000 C 
ATOM     19  O   UNL     1      -0.649   9.099  22.226  0.00  0.00    +0.000 OA
ATOM     20  C   UNL     1       0.307   8.877  21.150  0.00  0.00    +0.000 C 
ATOM     21  O   UNL     1       0.988  10.069  20.746  0.00  0.00    +0.000 OA
ENDROOT
BRANCH   1  23
ATOM     22  C   UNL     1      -7.894  13.237  20.290  0.00  0.00    +0.000 C 
ATOM     23  O   UNL     1      -6.857  14.215  20.178  0.00  0.00    +0.000 OA
ENDBRANCH   1  23
BRANCH   6  24
ATOM     24  O   UNL     1      -4.158  14.214  20.529  0.00  0.00    +0.000 OA
BRANCH  24  25
ATOM     25  C   UNL     1      -4.297  12.799  20.522  0.00  0.00    +0.000 C 
ATOM     26  O   UNL     1      -4.740  12.111  21.437  0.00  0.00    +0.000 OA
BRANCH  25  27
ATOM     27  C   UNL     1      -3.821  12.145  19.272  0.00  0.00    +0.000 A 
ATOM     28  C   UNL     1      -4.698  11.705  18.283  0.00  0.00    +0.000 A 
ATOM     29  C   UNL     1      -4.217  10.950  17.207  0.00  0.00    +0.000 A 
ATOM     30  C   UNL     1      -2.860  10.634  17.109  0.00  0.00    +0.000 A 
ATOM     31  C   UNL     1      -1.966  11.114  18.060  0.00  0.00    +0.000 A 
ATOM     32  C   UNL     1      -2.442  11.875  19.134  0.00  0.00    +0.000 A 
ENDBRANCH  25  27
ENDBRANCH  24  25
ENDBRANCH   6  24
TORSDOF 4
ENDMDL
MODEL 5
REMARK VINA RESULT:      -6.3      1.662      6.878
REMARK  Name = 
REMARK  5 active torsions:
REMARK  status: ('A' for Active; 'I' for Inactive)
REMARK    1  A    between atoms: C_1  and  O_2
REMARK    2  A    between atoms: O_2  and  C_3
REMARK    3  A    between atoms: C_8  and  O_9
REMARK    4  A    between atoms: O_9  and  C_10
REMARK    5  A    between atoms: C_10  and  C_12
REMARK                            x       y       z     vdW  Elec       q    Type
REMARK                         _______ _______ _______ _____ _____    ______ ____
ROOT
ATOM      1  C   UNL     1       0.757   9.846  20.394  0.00  0.00    +0.000 A 
ATOM      2  C   UNL     1       1.084   9.291  19.158  0.00  0.00    +0.000 A 
ATOM      3  C   UNL     1       0.305   9.679  18.049  0.00  0.00    +0.000 A 
ATOM      4  C   UNL     1      -0.512  10.790  18.195  0.00  0.00    +0.000 A 
ATOM      5  C   UNL     1      -0.099  11.679  19.162  0.00  0.00    +0.000 A 
ATOM      6  C   UNL     1       0.069  11.055  20.392  0.00  0.00    +0.000 A 
ATOM      7  C   UNL     1      -0.375  13.084  18.733  0.00  0.00    +0.000 C 
ATOM      8  N   UNL     1      -1.794  13.442  18.831  0.00  0.00    +0.000 NA
ATOM      9  C   UNL     1      -1.856  14.178  20.090  0.00  0.00    +0.000 C 
ATOM     10  C   UNL     1      -3.219  14.466  20.623  0.00  0.00    +0.000 C 
ATOM     11  C   UNL     1      -4.245  13.420  20.315  0.00  0.00    +0.000 A 
ATOM     12  C   UNL     1      -5.370  13.519  21.147  0.00  0.00    +0.000 A 
ATOM     13  C   UNL     1      -6.302  12.538  21.068  0.00  0.00    +0.000 A 
ATOM     14  C   UNL     1      -6.154  11.498  20.164  0.00  0.00    +0.000 A 
ATOM     15  C   UNL     1      -5.085  11.395  19.282  0.00  0.00    +0.000 A 
ATOM     16  C   UNL     1      -4.066  12.374  19.344  0.00  0.00    +0.000 A 
ATOM     17  C   UNL     1      -2.623  12.176  18.794  0.00  0.00    +0.000 C 
ATOM     18  C   UNL     1      -1.953  11.128  17.686  0.00  0.00    +0.000 C 
ATOM     19  O   UNL     1      -7.178  10.600  20.353  0.00  0.00    +0.000 OA
ATOM     20  C   UNL     1      -7.861  11.152  21.515  0.00  0.00    +0.000 C 
ATOM     21  O   UNL     1      -7.364  12.436  21.904  0.00  0.00    +0.000 OA
ENDROOT
BRANCH   1  23
ATOM     22  C   UNL     1       1.090   7.783  21.420  0.00  0.00    +0.000 C 
ATOM     23  O   UNL     1       0.909   9.192  21.587  0.00  0.00    +0.000 OA
ENDBRANCH   1  23
BRANCH   6  24
ATOM     24  O   UNL     1      -0.875  11.242  21.460  0.00  0.00    +0.000 OA
BRANCH  24  25
ATOM     25  C   UNL     1      -0.564  12.344  22.303  0.00  0.00    +0.000 C 
ATOM     26  O   UNL     1       0.504  12.948  22.339  0.00  0.00    +0.000 OA
BRANCH  25  27
ATOM     27  C   UNL     1      -1.666  12.738  23.224  0.00  0.00    +0.000 A 
ATOM     28  C   UNL     1      -2.784  11.933  23.433  0.00  0.00    +0.000 A 
ATOM     29  C   UNL     1      -3.867  12.419  24.175  0.00  0.00    +0.000 A 
ATOM     30  C   UNL     1      -3.839  13.707  24.716  0.00  0.00    +0.000 A 
ATOM     31  C   UNL     1      -2.707  14.499  24.561  0.00  0.00    +0.000 A 
ATOM     32  C   UNL     1      -1.619  14.015  23.826  0.00  0.00    +0.000 A 
ENDBRANCH  25  27
ENDBRANCH  24  25
ENDBRANCH   6  24
TORSDOF 4
ENDMDL
MODEL 6
REMARK VINA RESULT:      -6.3      9.018     11.174
REMARK  Name = 
REMARK  5 active torsions:
REMARK  status: ('A' for Active; 'I' for Inactive)
REMARK    1  A    between atoms: C_1  and  O_2
REMARK    2  A    between atoms: O_2  and  C_3
REMARK    3  A    between atoms: C_8  and  O_9
REMARK    4  A    between atoms: O_9  and  C_10
REMARK    5  A    between atoms: C_10  and  C_12
REMARK                            x       y       z     vdW  Elec       q    Type
REMARK                         _______ _______ _______ _____ _____    ______ ____
ROOT
ATOM      1  C   UNL     1       4.105  15.208  20.096  0.00  0.00    +0.000 A 
ATOM      2  C   UNL     1       3.315  14.486  20.988  0.00  0.00    +0.000 A 
ATOM      3  C   UNL     1       3.974  13.812  22.036  0.00  0.00    +0.000 A 
ATOM      4  C   UNL     1       5.295  14.154  22.288  0.00  0.00    +0.000 A 
ATOM      5  C   UNL     1       5.643  15.422  21.883  0.00  0.00    +0.000 A 
ATOM      6  C   UNL     1       5.354  15.629  20.541  0.00  0.00    +0.000 A 
ATOM      7  C   UNL     1       6.606  16.034  22.850  0.00  0.00    +0.000 C 
ATOM      8  N   UNL     1       7.961  15.486  22.728  0.00  0.00    +0.000 NA
ATOM      9  C   UNL     1       8.649  16.498  21.932  0.00  0.00    +0.000 C 
ATOM     10  C   UNL     1       9.992  16.124  21.402  0.00  0.00    +0.000 C 
ATOM     11  C   UNL     1      10.152  14.674  21.068  0.00  0.00    +0.000 A 
ATOM     12  C   UNL     1      11.246  14.440  20.222  0.00  0.00    +0.000 A 
ATOM     13  C   UNL     1      11.406  13.188  19.729  0.00  0.00    +0.000 A 
ATOM     14  C   UNL     1      10.533  12.173  20.087  0.00  0.00    +0.000 A 
ATOM     15  C   UNL     1       9.473  12.349  20.969  0.00  0.00    +0.000 A 
ATOM     16  C   UNL     1       9.239  13.643  21.488  0.00  0.00    +0.000 A 
ATOM     17  C   UNL     1       7.882  14.119  22.085  0.00  0.00    +0.000 C 
ATOM     18  C   UNL     1       6.554  13.316  22.692  0.00  0.00    +0.000 C 
ATOM     19  O   UNL     1      10.861  11.039  19.381  0.00  0.00    +0.000 OA
ATOM     20  C   UNL     1      11.920  11.518  18.504  0.00  0.00    +0.000 C 
ATOM     21  O   UNL     1      12.333  12.857  18.797  0.00  0.00    +0.000 OA
ENDROOT
BRANCH   1  23
ATOM     22  C   UNL     1       3.369  14.152  18.155  0.00  0.00    +0.000 C 
ATOM     23  O   UNL     1       3.804  15.369  18.770  0.00  0.00    +0.000 OA
ENDBRANCH   1  23
BRANCH   6  24
ATOM     24  O   UNL     1       6.394  15.664  19.549  0.00  0.00    +0.000 OA
BRANCH  24  25
ATOM     25  C   UNL     1       6.757  16.982  19.157  0.00  0.00    +0.000 C 
ATOM     26  O   UNL     1       6.085  17.996  19.321  0.00  0.00    +0.000 OA
BRANCH  25  27
ATOM     27  C   UNL     1       8.073  17.073  18.465  0.00  0.00    +0.000 A 
ATOM     28  C   UNL     1       8.650  15.981  17.820  0.00  0.00    +0.000 A 
ATOM     29  C   UNL     1       9.959  16.070  17.330  0.00  0.00    +0.000 A 
ATOM     30  C   UNL     1      10.696  17.247  17.478  0.00  0.00    +0.000 A 
ATOM     31  C   UNL     1      10.112  18.361  18.071  0.00  0.00    +0.000 A 
ATOM     32  C   UNL     1       8.802  18.279  18.556  0.00  0.00    +0.000 A 
ENDBRANCH  25  27
ENDBRANCH  24  25
ENDBRANCH   6  24
TORSDOF 4
ENDMDL
MODEL 7
REMARK VINA RESULT:      -6.2      2.342      6.237
REMARK  Name = 
REMARK  5 active torsions:
REMARK  status: ('A' for Active; 'I' for Inactive)
REMARK    1  A    between atoms: C_1  and  O_2
REMARK    2  A    between atoms: O_2  and  C_3
REMARK    3  A    between atoms: C_8  and  O_9
REMARK    4  A    between atoms: O_9  and  C_10
REMARK    5  A    between atoms: C_10  and  C_12
REMARK                            x       y       z     vdW  Elec       q    Type
REMARK                         _______ _______ _______ _____ _____    ______ ____
ROOT
ATOM      1  C   UNL     1       1.201  13.233  20.109  0.00  0.00    +0.000 A 
ATOM      2  C   UNL     1       2.020  14.146  20.772  0.00  0.00    +0.000 A 
ATOM      3  C   UNL     1       1.398  15.042  21.664  0.00  0.00    +0.000 A 
ATOM      4  C   UNL     1       0.095  14.765  22.049  0.00  0.00    +0.000 A 
ATOM      5  C   UNL     1      -0.254  13.436  21.966  0.00  0.00    +0.000 A 
ATOM      6  C   UNL     1      -0.022  12.924  20.695  0.00  0.00    +0.000 A 
ATOM      7  C   UNL     1      -1.166  13.063  23.091  0.00  0.00    +0.000 C 
ATOM      8  N   UNL     1      -2.532  13.563  22.908  0.00  0.00    +0.000 NA
ATOM      9  C   UNL     1      -3.241  12.393  22.401  0.00  0.00    +0.000 C 
ATOM     10  C   UNL     1      -4.611  12.630  21.860  0.00  0.00    +0.000 C 
ATOM     11  C   UNL     1      -4.804  13.963  21.208  0.00  0.00    +0.000 A 
ATOM     12  C   UNL     1      -5.937  13.991  20.381  0.00  0.00    +0.000 A 
ATOM     13  C   UNL     1      -6.136  15.094  19.619  0.00  0.00    +0.000 A 
ATOM     14  C   UNL     1      -5.261  16.167  19.692  0.00  0.00    +0.000 A 
ATOM     15  C   UNL     1      -4.162  16.203  20.541  0.00  0.00    +0.000 A 
ATOM     16  C   UNL     1      -3.888  15.065  21.335  0.00  0.00    +0.000 A 
ATOM     17  C   UNL     1      -2.499  14.745  21.963  0.00  0.00    +0.000 C 
ATOM     18  C   UNL     1      -1.156  15.669  22.306  0.00  0.00    +0.000 C 
ATOM     19  O   UNL     1      -5.635  17.105  18.759  0.00  0.00    +0.000 OA
ATOM     20  C   UNL     1      -6.725  16.433  18.066  0.00  0.00    +0.000 C 
ATOM     21  O   UNL     1      -7.108  15.198  18.680  0.00  0.00    +0.000 OA
ENDROOT
BRANCH   1  23
ATOM     22  C   UNL     1       2.385  13.582  18.134  0.00  0.00    +0.000 C 
ATOM     23  O   UNL     1       1.445  12.771  18.843  0.00  0.00    +0.000 OA
ENDBRANCH   1  23
BRANCH   6  24
ATOM     24  O   UNL     1      -1.105  12.657  19.788  0.00  0.00    +0.000 OA
BRANCH  24  25
ATOM     25  C   UNL     1      -1.307  11.271  19.541  0.00  0.00    +0.000 C 
ATOM     26  O   UNL     1      -0.790  10.344  20.158  0.00  0.00    +0.000 OA
BRANCH  25  27
ATOM     27  C   UNL     1      -2.221  10.981  18.401  0.00  0.00    +0.000 A 
ATOM     28  C   UNL     1      -1.831  10.198  17.318  0.00  0.00    +0.000 A 
ATOM     29  C   UNL     1      -2.663  10.091  16.196  0.00  0.00    +0.000 A 
ATOM     30  C   UNL     1      -3.888  10.761  16.153  0.00  0.00    +0.000 A 
ATOM     31  C   UNL     1      -4.313  11.501  17.250  0.00  0.00    +0.000 A 
ATOM     32  C   UNL     1      -3.487  11.605  18.376  0.00  0.00    +0.000 A 
ENDBRANCH  25  27
ENDBRANCH  24  25
ENDBRANCH   6  24
TORSDOF 4
ENDMDL
MODEL 8
REMARK VINA RESULT:      -6.2      8.862     12.670
REMARK  Name = 
REMARK  5 active torsions:
REMARK  status: ('A' for Active; 'I' for Inactive)
REMARK    1  A    between atoms: C_1  and  O_2
REMARK    2  A    between atoms: O_2  and  C_3
REMARK    3  A    between atoms: C_8  and  O_9
REMARK    4  A    between atoms: O_9  and  C_10
REMARK    5  A    between atoms: C_10  and  C_12
REMARK                            x       y       z     vdW  Elec       q    Type
REMARK                         _______ _______ _______ _____ _____    ______ ____
ROOT
ATOM      1  C   UNL     1       9.947  11.672  19.094  0.00  0.00    +0.000 A 
ATOM      2  C   UNL     1      10.646  11.758  17.892  0.00  0.00    +0.000 A 
ATOM      3  C   UNL     1      10.766  13.033  17.304  0.00  0.00    +0.000 A 
ATOM      4  C   UNL     1      10.458  14.134  18.089  0.00  0.00    +0.000 A 
ATOM      5  C   UNL     1      10.590  13.924  19.443  0.00  0.00    +0.000 A 
ATOM      6  C   UNL     1       9.852  12.826  19.865  0.00  0.00    +0.000 A 
ATOM      7  C   UNL     1      11.107  15.155  20.115  0.00  0.00    +0.000 C 
ATOM      8  N   UNL     1      10.089  16.202  20.249  0.00  0.00    +0.000 NA
ATOM      9  C   UNL     1       9.647  16.049  21.632  0.00  0.00    +0.000 C 
ATOM     10  C   UNL     1       8.419  16.801  22.022  0.00  0.00    +0.000 C 
ATOM     11  C   UNL     1       7.411  16.964  20.927  0.00  0.00    +0.000 A 
ATOM     12  C   UNL     1       6.142  17.304  21.420  0.00  0.00    +0.000 A 
ATOM     13  C   UNL     1       5.111  17.334  20.540  0.00  0.00    +0.000 A 
ATOM     14  C   UNL     1       5.325  17.072  19.196  0.00  0.00    +0.000 A 
ATOM     15  C   UNL     1       6.575  16.791  18.659  0.00  0.00    +0.000 A 
ATOM     16  C   UNL     1       7.681  16.715  19.536  0.00  0.00    +0.000 A 
ATOM     17  C   UNL     1       9.013  15.976  19.209  0.00  0.00    +0.000 C 
ATOM     18  C   UNL     1       9.734  15.488  17.788  0.00  0.00    +0.000 C 
ATOM     19  O   UNL     1       4.112  17.075  18.548  0.00  0.00    +0.000 OA
ATOM     20  C   UNL     1       3.174  17.246  19.650  0.00  0.00    +0.000 C 
ATOM     21  O   UNL     1       3.817  17.511  20.901  0.00  0.00    +0.000 OA
ENDROOT
BRANCH   1  23
ATOM     22  C   UNL     1       8.683   9.865  18.346  0.00  0.00    +0.000 C 
ATOM     23  O   UNL     1       9.204  10.584  19.467  0.00  0.00    +0.000 OA
ENDBRANCH   1  23
BRANCH   6  24
ATOM     24  O   UNL     1       8.631  12.987  20.607  0.00  0.00    +0.000 OA
BRANCH  24  25
ATOM     25  C   UNL     1       8.767  12.691  21.991  0.00  0.00    +0.000 C 
ATOM     26  O   UNL     1       9.632  11.984  22.498  0.00  0.00    +0.000 OA
BRANCH  25  27
ATOM     27  C   UNL     1       7.717  13.305  22.852  0.00  0.00    +0.000 A 
ATOM     28  C   UNL     1       6.434  13.575  22.382  0.00  0.00    +0.000 A 
ATOM     29  C   UNL     1       5.538  14.302  23.174  0.00  0.00    +0.000 A 
ATOM     30  C   UNL     1       5.914  14.759  24.440  0.00  0.00    +0.000 A 
ATOM     31  C   UNL     1       7.173  14.448  24.943  0.00  0.00    +0.000 A 
ATOM     32  C   UNL     1       8.070  13.716  24.157  0.00  0.00    +0.000 A 
ENDBRANCH  25  27
ENDBRANCH  24  25
ENDBRANCH   6  24
TORSDOF 4
ENDMDL
MODEL 9
REMARK VINA RESULT:      -6.1      9.037     11.185
REMARK  Name = 
REMARK  5 active torsions:
REMARK  status: ('A' for Active; 'I' for Inactive)
REMARK    1  A    between atoms: C_1  and  O_2
REMARK    2  A    between atoms: O_2  and  C_3
REMARK    3  A    between atoms: C_8  and  O_9
REMARK    4  A    between atoms: O_9  and  C_10
REMARK    5  A    between atoms: C_10  and  C_12
REMARK                            x       y       z     vdW  Elec       q    Type
REMARK                         _______ _______ _______ _____ _____    ______ ____
ROOT
ATOM      1  C   UNL     1       4.083  15.577  19.761  0.00  0.00    +0.000 A 
ATOM      2  C   UNL     1       3.171  14.845  20.519  0.00  0.00    +0.000 A 
ATOM      3  C   UNL     1       3.684  14.086  21.590  0.00  0.00    +0.000 A 
ATOM      4  C   UNL     1       4.981  14.353  22.003  0.00  0.00    +0.000 A 
ATOM      5  C   UNL     1       5.422  15.624  21.712  0.00  0.00    +0.000 A 
ATOM      6  C   UNL     1       5.291  15.916  20.361  0.00  0.00    +0.000 A 
ATOM      7  C   UNL     1       6.297  16.137  22.811  0.00  0.00    +0.000 C 
ATOM      8  N   UNL     1       7.634  15.535  22.804  0.00  0.00    +0.000 NA
ATOM      9  C   UNL     1       8.445  16.556  22.147  0.00  0.00    +0.000 C 
ATOM     10  C   UNL     1       9.823  16.149  21.743  0.00  0.00    +0.000 C 
ATOM     11  C   UNL     1       9.960  14.713  21.345  0.00  0.00    +0.000 A 
ATOM     12  C   UNL     1      11.130  14.475  20.609  0.00  0.00    +0.000 A 
ATOM     13  C   UNL     1      11.293  13.244  20.064  0.00  0.00    +0.000 A 
ATOM     14  C   UNL     1      10.346  12.253  20.266  0.00  0.00    +0.000 A 
ATOM     15  C   UNL     1       9.204  12.430  21.037  0.00  0.00    +0.000 A 
ATOM     16  C   UNL     1       8.966  13.704  21.603  0.00  0.00    +0.000 A 
ATOM     17  C   UNL     1       7.571  14.209  22.077  0.00  0.00    +0.000 C 
ATOM     18  C   UNL     1       6.153  13.438  22.490  0.00  0.00    +0.000 C 
ATOM     19  O   UNL     1      10.704  11.145  19.535  0.00  0.00    +0.000 OA
ATOM     20  C   UNL     1      11.872  11.621  18.806  0.00  0.00    +0.000 C 
ATOM     21  O   UNL     1      12.304  12.921  19.220  0.00  0.00    +0.000 OA
ENDROOT
BRANCH   1  23
ATOM     22  C   UNL     1       2.714  16.500  18.118  0.00  0.00    +0.000 C 
ATOM     23  O   UNL     1       3.937  15.822  18.421  0.00  0.00    +0.000 OA
ENDBRANCH   1  23
BRANCH   6  24
ATOM     24  O   UNL     1       6.435  15.956  19.491  0.00  0.00    +0.000 OA
BRANCH  24  25
ATOM     25  C   UNL     1       6.924  17.271  19.261  0.00  0.00    +0.000 C 
ATOM     26  O   UNL     1       6.323  18.317  19.487  0.00  0.00    +0.000 OA
BRANCH  25  27
ATOM     27  C   UNL     1       8.289  17.319  18.666  0.00  0.00    +0.000 A 
ATOM     28  C   UNL     1       9.036  18.494  18.615  0.00  0.00    +0.000 A 
ATOM     29  C   UNL     1      10.239  18.527  17.900  0.00  0.00    +0.000 A 
ATOM     30  C   UNL     1      10.705  17.389  17.237  0.00  0.00    +0.000 A 
ATOM     31  C   UNL     1       9.996  16.196  17.326  0.00  0.00    +0.000 A 
ATOM     32  C   UNL     1       8.796  16.157  18.045  0.00  0.00    +0.000 A 
ENDBRANCH  25  27
ENDBRANCH  24  25
ENDBRANCH   6  24
TORSDOF 4
ENDMDL
