MODEL 1
REMARK VINA RESULT:      -8.5      0.000      0.000
REMARK  Name = 
REMARK  7 active torsions:
REMARK  status: ('A' for Active; 'I' for Inactive)
REMARK    1  A    between atoms: C_1  and  C_2
REMARK    2  A    between atoms: C_6  and  N_7
REMARK    3  A    between atoms: C_8  and  C_10
REMARK    4  A    between atoms: C_10  and  C_11
REMARK    5  A    between atoms: C_11  and  C_12
REMARK    6  A    between atoms: C_12  and  N_13
REMARK    7  A    between atoms: C_25  and  C_26
REMARK                            x       y       z     vdW  Elec       q    Type
REMARK                         _______ _______ _______ _____ _____    ______ ____
ROOT
ATOM      1  C   UNL     1       7.514   7.197  17.540  0.00  0.00    +0.000 C 
ENDROOT
BRANCH   1   2
ATOM      2  C   UNL     1       8.501   7.759  18.554  0.00  0.00    +0.000 C 
BRANCH   2   4
ATOM      3  N   UNL     1       9.272   9.873  19.467  0.00  0.00    +0.000 N 
ATOM      4  C   UNL     1       8.466   9.269  18.526  0.00  0.00    +0.000 C 
ATOM      5  O   UNL     1       7.799   9.885  17.701  0.00  0.00    +0.000 OA
ATOM      6  H   UNL     1       9.915   9.299  20.000  0.00  0.00    +0.000 HD
BRANCH   3  12
ATOM      7  C   UNL     1       9.147  14.068  18.015  0.00  0.00    +0.000 C 
ATOM      8  C   UNL     1      10.463  13.383  18.415  0.00  0.00    +0.000 C 
ATOM      9  C   UNL     1      10.930  13.858  19.801  0.00  0.00    +0.000 C 
ATOM     10  C   UNL     1      10.086  13.301  20.946  0.00  0.00    +0.000 C 
ATOM     11  C   UNL     1       9.932  11.783  20.880  0.00  0.00    +0.000 C 
ATOM     12  C   UNL     1       9.437  11.320  19.505  0.00  0.00    +0.000 C 
ATOM     13  C   UNL     1      10.340  11.839  18.357  0.00  0.00    +0.000 C 
ATOM     14  C   UNL     1      11.733  11.186  18.358  0.00  0.00    +0.000 C 
ENDBRANCH   3  12
ENDBRANCH   2   4
ENDBRANCH   1   2
BRANCH   1  15
ATOM     15  C   UNL     1       7.460   5.670  17.594  0.00  0.00    +0.000 C 
BRANCH  15  16
ATOM     16  N   UNL     1       6.074   5.179  17.508  0.00  0.00    +0.000 N 
ATOM     17  C   UNL     1       5.541   4.684  16.320  0.00  0.00    +0.000 A 
ATOM     18  S   UNL     1       6.295   4.614  14.822  0.00  0.00    +0.000 S 
ATOM     19  N   UNL     1       4.261   4.199  16.370  0.00  0.00    +0.000 N 
ATOM     20  C   UNL     1       3.477   4.178  17.519  0.00  0.00    +0.000 A 
ATOM     21  C   UNL     1       2.183   3.656  17.474  0.00  0.00    +0.000 A 
ATOM     22  C   UNL     1       1.403   3.642  18.631  0.00  0.00    +0.000 A 
ATOM     23  C   UNL     1       1.906   4.164  19.825  0.00  0.00    +0.000 A 
ATOM     24  C   UNL     1       3.202   4.682  19.866  0.00  0.00    +0.000 A 
ATOM     25  C   UNL     1       3.989   4.676  18.710  0.00  0.00    +0.000 A 
ATOM     26  C   UNL     1       5.377   5.169  18.728  0.00  0.00    +0.000 A 
ATOM     27  O   UNL     1       5.867   5.516  19.801  0.00  0.00    +0.000 OA
ATOM     28  H   UNL     1       3.884   3.839  15.500  0.00  0.00    +0.000 HD
ENDBRANCH  15  16
ENDBRANCH   1  15
TORSDOF 5
ENDMDL
MODEL 2
REMARK VINA RESULT:      -8.0      0.878      1.579
REMARK  Name = 
REMARK  7 active torsions:
REMARK  status: ('A' for Active; 'I' for Inactive)
REMARK    1  A    between atoms: C_1  and  C_2
REMARK    2  A    between atoms: C_6  and  N_7
REMARK    3  A    between atoms: C_8  and  C_10
REMARK    4  A    between atoms: C_10  and  C_11
REMARK    5  A    between atoms: C_11  and  C_12
REMARK    6  A    between atoms: C_12  and  N_13
REMARK    7  A    between atoms: C_25  and  C_26
REMARK                            x       y       z     vdW  Elec       q    Type
REMARK                         _______ _______ _______ _____ _____    ______ ____
ROOT
ATOM      1  C   UNL     1       7.342   6.910  17.537  0.00  0.00    +0.000 C 
ENDROOT
BRANCH   1   2
ATOM      2  C   UNL     1       8.130   7.522  18.688  0.00  0.00    +0.000 C 
BRANCH   2   4
ATOM      3  N   UNL     1       9.272   9.570  19.320  0.00  0.00    +0.000 N 
ATOM      4  C   UNL     1       8.550   8.930  18.335  0.00  0.00    +0.000 C 
ATOM      5  O   UNL     1       8.292   9.427  17.244  0.00  0.00    +0.000 OA
ATOM      6  H   UNL     1       9.583   9.036  20.122  0.00  0.00    +0.000 HD
BRANCH   3  12
ATOM      7  C   UNL     1      12.291  12.824  19.465  0.00  0.00    +0.000 C 
ATOM      8  C   UNL     1      10.918  12.955  20.141  0.00  0.00    +0.000 C 
ATOM      9  C   UNL     1       9.978  13.841  19.306  0.00  0.00    +0.000 C 
ATOM     10  C   UNL     1       9.482  13.161  18.031  0.00  0.00    +0.000 C 
ATOM     11  C   UNL     1       8.888  11.778  18.294  0.00  0.00    +0.000 C 
ATOM     12  C   UNL     1       9.844  10.892  19.099  0.00  0.00    +0.000 C 
ATOM     13  C   UNL     1      10.288  11.567  20.422  0.00  0.00    +0.000 C 
ATOM     14  C   UNL     1       9.139  11.692  21.439  0.00  0.00    +0.000 C 
ENDBRANCH   3  12
ENDBRANCH   2   4
ENDBRANCH   1   2
BRANCH   1  15
ATOM     15  C   UNL     1       7.444   5.385  17.533  0.00  0.00    +0.000 C 
BRANCH  15  16
ATOM     16  N   UNL     1       6.113   4.759  17.467  0.00  0.00    +0.000 N 
ATOM     17  C   UNL     1       5.542   4.368  16.258  0.00  0.00    +0.000 A 
ATOM     18  S   UNL     1       6.182   4.579  14.720  0.00  0.00    +0.000 S 
ATOM     19  N   UNL     1       4.326   3.742  16.320  0.00  0.00    +0.000 N 
ATOM     20  C   UNL     1       3.638   3.483  17.501  0.00  0.00    +0.000 A 
ATOM     21  C   UNL     1       2.405   2.831  17.465  0.00  0.00    +0.000 A 
ATOM     22  C   UNL     1       1.722   2.579  18.656  0.00  0.00    +0.000 A 
ATOM     23  C   UNL     1       2.260   2.992  19.877  0.00  0.00    +0.000 A 
ATOM     24  C   UNL     1       3.495   3.641  19.908  0.00  0.00    +0.000 A 
ATOM     25  C   UNL     1       4.188   3.874  18.715  0.00  0.00    +0.000 A 
ATOM     26  C   UNL     1       5.516   4.511  18.715  0.00  0.00    +0.000 A 
ATOM     27  O   UNL     1       6.050   4.766  19.793  0.00  0.00    +0.000 OA
ATOM     28  H   UNL     1       3.921   3.459  15.434  0.00  0.00    +0.000 HD
ENDBRANCH  15  16
ENDBRANCH   1  15
TORSDOF 5
ENDMDL
MODEL 3
REMARK VINA RESULT:      -7.9      1.390      1.979
REMARK  Name = 
REMARK  7 active torsions:
REMARK  status: ('A' for Active; 'I' for Inactive)
REMARK    1  A    between atoms: C_1  and  C_2
REMARK    2  A    between atoms: C_6  and  N_7
REMARK    3  A    between atoms: C_8  and  C_10
REMARK    4  A    between atoms: C_10  and  C_11
REMARK    5  A    between atoms: C_11  and  C_12
REMARK    6  A    between atoms: C_12  and  N_13
REMARK    7  A    between atoms: C_25  and  C_26
REMARK                            x       y       z     vdW  Elec       q    Type
REMARK                         _______ _______ _______ _____ _____    ______ ____
ROOT
ATOM      1  C   UNL     1       6.805   7.187  17.675  0.00  0.00    +0.000 C 
ENDROOT
BRANCH   1   2
ATOM      2  C   UNL     1       7.671   8.315  17.130  0.00  0.00    +0.000 C 
BRANCH   2   4
ATOM      3  N   UNL     1       8.834  10.236  18.055  0.00  0.00    +0.000 N 
ATOM      4  C   UNL     1       8.500   8.912  18.244  0.00  0.00    +0.000 C 
ATOM      5  O   UNL     1       8.808   8.264  19.239  0.00  0.00    +0.000 OA
ATOM      6  H   UNL     1       8.406  10.743  17.290  0.00  0.00    +0.000 HD
BRANCH   3  12
ATOM      7  C   UNL     1       9.413  12.489  21.838  0.00  0.00    +0.000 C 
ATOM      8  C   UNL     1       9.651  13.131  20.463  0.00  0.00    +0.000 C 
ATOM      9  C   UNL     1      11.155  13.227  20.155  0.00  0.00    +0.000 C 
ATOM     10  C   UNL     1      11.792  11.877  19.832  0.00  0.00    +0.000 C 
ATOM     11  C   UNL     1      11.032  11.109  18.752  0.00  0.00    +0.000 C 
ATOM     12  C   UNL     1       9.540  10.991  19.082  0.00  0.00    +0.000 C 
ATOM     13  C   UNL     1       8.890  12.374  19.344  0.00  0.00    +0.000 C 
ATOM     14  C   UNL     1       8.802  13.237  18.073  0.00  0.00    +0.000 C 
ENDBRANCH   3  12
ENDBRANCH   2   4
ENDBRANCH   1   2
BRANCH   1  15
ATOM     15  C   UNL     1       5.514   7.029  16.870  0.00  0.00    +0.000 C 
BRANCH  15  16
ATOM     16  N   UNL     1       4.887   5.720  17.113  0.00  0.00    +0.000 N 
ATOM     17  C   UNL     1       5.467   4.532  16.671  0.00  0.00    +0.000 A 
ATOM     18  S   UNL     1       6.871   4.366  15.766  0.00  0.00    +0.000 S 
ATOM     19  N   UNL     1       4.827   3.369  17.005  0.00  0.00    +0.000 N 
ATOM     20  C   UNL     1       3.650   3.307  17.744  0.00  0.00    +0.000 A 
ATOM     21  C   UNL     1       3.075   2.070  18.043  0.00  0.00    +0.000 A 
ATOM     22  C   UNL     1       1.893   2.020  18.784  0.00  0.00    +0.000 A 
ATOM     23  C   UNL     1       1.278   3.199  19.209  0.00  0.00    +0.000 A 
ATOM     24  C   UNL     1       1.859   4.433  18.910  0.00  0.00    +0.000 A 
ATOM     25  C   UNL     1       3.055   4.481  18.186  0.00  0.00    +0.000 A 
ATOM     26  C   UNL     1       3.721   5.762  17.897  0.00  0.00    +0.000 A 
ATOM     27  O   UNL     1       3.251   6.794  18.372  0.00  0.00    +0.000 OA
ATOM     28  H   UNL     1       5.259   2.510  16.680  0.00  0.00    +0.000 HD
ENDBRANCH  15  16
ENDBRANCH   1  15
TORSDOF 5
ENDMDL
MODEL 4
REMARK VINA RESULT:      -7.7      1.615      2.160
REMARK  Name = 
REMARK  7 active torsions:
REMARK  status: ('A' for Active; 'I' for Inactive)
REMARK    1  A    between atoms: C_1  and  C_2
REMARK    2  A    between atoms: C_6  and  N_7
REMARK    3  A    between atoms: C_8  and  C_10
REMARK    4  A    between atoms: C_10  and  C_11
REMARK    5  A    between atoms: C_11  and  C_12
REMARK    6  A    between atoms: C_12  and  N_13
REMARK    7  A    between atoms: C_25  and  C_26
REMARK                            x       y       z     vdW  Elec       q    Type
REMARK                         _______ _______ _______ _____ _____    ______ ____
ROOT
ATOM      1  C   UNL     1       7.315   7.507  17.693  0.00  0.00    +0.000 C 
ENDROOT
BRANCH   1   2
ATOM      2  C   UNL     1       7.633   8.953  17.335  0.00  0.00    +0.000 C 
BRANCH   2   4
ATOM      3  N   UNL     1       8.890  10.867  18.144  0.00  0.00    +0.000 N 
ATOM      4  C   UNL     1       8.585   9.538  18.352  0.00  0.00    +0.000 C 
ATOM      5  O   UNL     1       9.009   8.879  19.295  0.00  0.00    +0.000 OA
ATOM      6  H   UNL     1       8.373  11.382  17.442  0.00  0.00    +0.000 HD
BRANCH   3  12
ATOM      7  C   UNL     1       9.832  13.359  21.698  0.00  0.00    +0.000 C 
ATOM      8  C   UNL     1      10.127  13.834  20.267  0.00  0.00    +0.000 C 
ATOM      9  C   UNL     1      11.625  13.700  19.943  0.00  0.00    +0.000 C 
ATOM     10  C   UNL     1      12.071  12.253  19.743  0.00  0.00    +0.000 C 
ATOM     11  C   UNL     1      11.196  11.499  18.744  0.00  0.00    +0.000 C 
ATOM     12  C   UNL     1       9.708  11.611  19.093  0.00  0.00    +0.000 C 
ATOM     13  C   UNL     1       9.252  13.087  19.228  0.00  0.00    +0.000 C 
ATOM     14  C   UNL     1       9.256  13.834  17.883  0.00  0.00    +0.000 C 
ENDBRANCH   3  12
ENDBRANCH   2   4
ENDBRANCH   1   2
BRANCH   1  15
ATOM     15  C   UNL     1       6.016   7.038  17.037  0.00  0.00    +0.000 C 
BRANCH  15  16
ATOM     16  N   UNL     1       5.420   5.911  17.774  0.00  0.00    +0.000 N 
ATOM     17  C   UNL     1       6.147   4.762  18.076  0.00  0.00    +0.000 A 
ATOM     18  S   UNL     1       7.729   4.417  17.631  0.00  0.00    +0.000 S 
ATOM     19  N   UNL     1       5.511   3.803  18.818  0.00  0.00    +0.000 N 
ATOM     20  C   UNL     1       4.200   3.907  19.273  0.00  0.00    +0.000 A 
ATOM     21  C   UNL     1       3.638   2.878  20.031  0.00  0.00    +0.000 A 
ATOM     22  C   UNL     1       2.322   2.992  20.481  0.00  0.00    +0.000 A 
ATOM     23  C   UNL     1       1.564   4.121  20.161  0.00  0.00    +0.000 A 
ATOM     24  C   UNL     1       2.132   5.148  19.406  0.00  0.00    +0.000 A 
ATOM     25  C   UNL     1       3.458   5.042  18.974  0.00  0.00    +0.000 A 
ATOM     26  C   UNL     1       4.104   6.128  18.218  0.00  0.00    +0.000 A 
ATOM     27  O   UNL     1       3.484   7.174  18.039  0.00  0.00    +0.000 OA
ATOM     28  H   UNL     1       6.051   2.971  19.034  0.00  0.00    +0.000 HD
ENDBRANCH  15  16
ENDBRANCH   1  15
TORSDOF 5
ENDMDL
MODEL 5
REMARK VINA RESULT:      -7.7      1.108      1.674
REMARK  Name = 
REMARK  7 active torsions:
REMARK  status: ('A' for Active; 'I' for Inactive)
REMARK    1  A    between atoms: C_1  and  C_2
REMARK    2  A    between atoms: C_6  and  N_7
REMARK    3  A    between atoms: C_8  and  C_10
REMARK    4  A    between atoms: C_10  and  C_11
REMARK    5  A    between atoms: C_11  and  C_12
REMARK    6  A    between atoms: C_12  and  N_13
REMARK    7  A    between atoms: C_25  and  C_26
REMARK                            x       y       z     vdW  Elec       q    Type
REMARK                         _______ _______ _______ _____ _____    ______ ____
ROOT
ATOM      1  C   UNL     1       6.795   7.467  17.762  0.00  0.00    +0.000 C 
ENDROOT
BRANCH   1   2
ATOM      2  C   UNL     1       7.849   8.401  17.183  0.00  0.00    +0.000 C 
BRANCH   2   4
ATOM      3  N   UNL     1       8.989  10.357  18.060  0.00  0.00    +0.000 N 
ATOM      4  C   UNL     1       8.637   9.046  18.299  0.00  0.00    +0.000 C 
ATOM      5  O   UNL     1       8.896   8.447  19.338  0.00  0.00    +0.000 OA
ATOM      6  H   UNL     1       8.598  10.829  17.254  0.00  0.00    +0.000 HD
BRANCH   3  12
ATOM      7  C   UNL     1       9.431  12.781  21.756  0.00  0.00    +0.000 C 
ATOM      8  C   UNL     1       9.723  13.358  20.362  0.00  0.00    +0.000 C 
ATOM      9  C   UNL     1      11.238  13.438  20.108  0.00  0.00    +0.000 C 
ATOM     10  C   UNL     1      11.883  12.073  19.873  0.00  0.00    +0.000 C 
ATOM     11  C   UNL     1      11.161  11.258  18.801  0.00  0.00    +0.000 C 
ATOM     12  C   UNL     1       9.658  11.158  19.078  0.00  0.00    +0.000 C 
ATOM     13  C   UNL     1       9.003  12.553  19.251  0.00  0.00    +0.000 C 
ATOM     14  C   UNL     1       8.967  13.356  17.939  0.00  0.00    +0.000 C 
ENDBRANCH   3  12
ENDBRANCH   2   4
ENDBRANCH   1   2
BRANCH   1  15
ATOM     15  C   UNL     1       7.185   5.999  17.586  0.00  0.00    +0.000 C 
BRANCH  15  16
ATOM     16  N   UNL     1       5.997   5.131  17.537  0.00  0.00    +0.000 N 
ATOM     17  C   UNL     1       5.449   4.701  16.330  0.00  0.00    +0.000 A 
ATOM     18  S   UNL     1       5.954   5.114  14.783  0.00  0.00    +0.000 S 
ATOM     19  N   UNL     1       4.381   3.848  16.404  0.00  0.00    +0.000 N 
ATOM     20  C   UNL     1       3.819   3.399  17.595  0.00  0.00    +0.000 A 
ATOM     21  C   UNL     1       2.733   2.522  17.569  0.00  0.00    +0.000 A 
ATOM     22  C   UNL     1       2.175   2.079  18.770  0.00  0.00    +0.000 A 
ATOM     23  C   UNL     1       2.688   2.524  19.991  0.00  0.00    +0.000 A 
ATOM     24  C   UNL     1       3.776   3.398  20.010  0.00  0.00    +0.000 A 
ATOM     25  C   UNL     1       4.347   3.824  18.806  0.00  0.00    +0.000 A 
ATOM     26  C   UNL     1       5.525   4.706  18.791  0.00  0.00    +0.000 A 
ATOM     27  O   UNL     1       6.057   5.003  19.859  0.00  0.00    +0.000 OA
ATOM     28  H   UNL     1       3.991   3.539  15.519  0.00  0.00    +0.000 HD
ENDBRANCH  15  16
ENDBRANCH   1  15
TORSDOF 5
ENDMDL
MODEL 6
REMARK VINA RESULT:      -7.6      7.508     10.562
REMARK  Name = 
REMARK  7 active torsions:
REMARK  status: ('A' for Active; 'I' for Inactive)
REMARK    1  A    between atoms: C_1  and  C_2
REMARK    2  A    between atoms: C_6  and  N_7
REMARK    3  A    between atoms: C_8  and  C_10
REMARK    4  A    between atoms: C_10  and  C_11
REMARK    5  A    between atoms: C_11  and  C_12
REMARK    6  A    between atoms: C_12  and  N_13
REMARK    7  A    between atoms: C_25  and  C_26
REMARK                            x       y       z     vdW  Elec       q    Type
REMARK                         _______ _______ _______ _____ _____    ______ ____
ROOT
ATOM      1  C   UNL     1       0.722   9.871  20.153  0.00  0.00    +0.000 C 
ENDROOT
BRANCH   1   2
ATOM      2  C   UNL     1       1.300   8.696  20.930  0.00  0.00    +0.000 C 
BRANCH   2   4
ATOM      3  N   UNL     1       2.121   6.448  20.518  0.00  0.00    +0.000 N 
ATOM      4  C   UNL     1       1.913   7.698  19.975  0.00  0.00    +0.000 C 
ATOM      5  O   UNL     1       2.162   7.987  18.809  0.00  0.00    +0.000 OA
ATOM      6  H   UNL     1       1.739   6.243  21.433  0.00  0.00    +0.000 HD
BRANCH   3  12
ATOM      7  C   UNL     1       1.919   2.970  17.762  0.00  0.00    +0.000 C 
ATOM      8  C   UNL     1       2.472   2.848  19.190  0.00  0.00    +0.000 C 
ATOM      9  C   UNL     1       4.009   2.788  19.181  0.00  0.00    +0.000 C 
ATOM     10  C   UNL     1       4.662   4.130  18.853  0.00  0.00    +0.000 C 
ATOM     11  C   UNL     1       4.136   5.269  19.723  0.00  0.00    +0.000 C 
ATOM     12  C   UNL     1       2.605   5.341  19.703  0.00  0.00    +0.000 C 
ATOM     13  C   UNL     1       1.954   3.991  20.100  0.00  0.00    +0.000 C 
ATOM     14  C   UNL     1       2.172   3.642  21.582  0.00  0.00    +0.000 C 
ENDBRANCH   3  12
ENDBRANCH   2   4
ENDBRANCH   1   2
BRANCH   1  15
ATOM     15  C   UNL     1       0.862  11.181  20.928  0.00  0.00    +0.000 C 
BRANCH  15  16
ATOM     16  N   UNL     1      -0.442  11.842  21.105  0.00  0.00    +0.000 N 
ATOM     17  C   UNL     1      -1.055  12.550  20.073  0.00  0.00    +0.000 A 
ATOM     18  S   UNL     1      -0.440  12.839  18.538  0.00  0.00    +0.000 S 
ATOM     19  N   UNL     1      -2.294  13.073  20.331  0.00  0.00    +0.000 N 
ATOM     20  C   UNL     1      -2.961  12.942  21.545  0.00  0.00    +0.000 A 
ATOM     21  C   UNL     1      -4.228  13.504  21.711  0.00  0.00    +0.000 A 
ATOM     22  C   UNL     1      -4.889  13.369  22.934  0.00  0.00    +0.000 A 
ATOM     23  C   UNL     1      -4.279  12.690  23.992  0.00  0.00    +0.000 A 
ATOM     24  C   UNL     1      -3.013  12.128  23.819  0.00  0.00    +0.000 A 
ATOM     25  C   UNL     1      -2.362  12.246  22.586  0.00  0.00    +0.000 A 
ATOM     26  C   UNL     1      -1.049  11.622  22.354  0.00  0.00    +0.000 A 
ATOM     27  O   UNL     1      -0.561  10.921  23.238  0.00  0.00    +0.000 OA
ATOM     28  H   UNL     1      -2.732  13.585  19.573  0.00  0.00    +0.000 HD
ENDBRANCH  15  16
ENDBRANCH   1  15
TORSDOF 5
ENDMDL
MODEL 7
REMARK VINA RESULT:      -7.6      1.971      2.653
REMARK  Name = 
REMARK  7 active torsions:
REMARK  status: ('A' for Active; 'I' for Inactive)
REMARK    1  A    between atoms: C_1  and  C_2
REMARK    2  A    between atoms: C_6  and  N_7
REMARK    3  A    between atoms: C_8  and  C_10
REMARK    4  A    between atoms: C_10  and  C_11
REMARK    5  A    between atoms: C_11  and  C_12
REMARK    6  A    between atoms: C_12  and  N_13
REMARK    7  A    between atoms: C_25  and  C_26
REMARK                            x       y       z     vdW  Elec       q    Type
REMARK                         _______ _______ _______ _____ _____    ______ ____
ROOT
ATOM      1  C   UNL     1       6.659   6.892  17.742  0.00  0.00    +0.000 C 
ENDROOT
BRANCH   1   2
ATOM      2  C   UNL     1       7.227   8.178  17.154  0.00  0.00    +0.000 C 
BRANCH   2   4
ATOM      3  N   UNL     1       8.515  10.102  17.885  0.00  0.00    +0.000 N 
ATOM      4  C   UNL     1       8.254   8.765  18.094  0.00  0.00    +0.000 C 
ATOM      5  O   UNL     1       8.771   8.098  18.984  0.00  0.00    +0.000 OA
ATOM      6  H   UNL     1       7.929  10.619  17.241  0.00  0.00    +0.000 HD
BRANCH   3  12
ATOM      7  C   UNL     1       9.768  12.375  21.490  0.00  0.00    +0.000 C 
ATOM      8  C   UNL     1       9.793  12.996  20.085  0.00  0.00    +0.000 C 
ATOM      9  C   UNL     1      11.228  13.047  19.532  0.00  0.00    +0.000 C 
ATOM     10  C   UNL     1      11.767  11.675  19.128  0.00  0.00    +0.000 C 
ATOM     11  C   UNL     1      10.819  10.919  18.199  0.00  0.00    +0.000 C 
ATOM     12  C   UNL     1       9.400  10.847  18.772  0.00  0.00    +0.000 C 
ATOM     13  C   UNL     1       8.839  12.250  19.117  0.00  0.00    +0.000 C 
ATOM     14  C   UNL     1       8.565  13.103  17.866  0.00  0.00    +0.000 C 
ENDBRANCH   3  12
ENDBRANCH   2   4
ENDBRANCH   1   2
BRANCH   1  15
ATOM     15  C   UNL     1       5.352   6.490  17.057  0.00  0.00    +0.000 C 
BRANCH  15  16
ATOM     16  N   UNL     1       4.354   6.028  18.036  0.00  0.00    +0.000 N 
ATOM     17  C   UNL     1       3.218   6.776  18.337  0.00  0.00    +0.000 A 
ATOM     18  S   UNL     1       2.814   8.292  17.739  0.00  0.00    +0.000 S 
ATOM     19  N   UNL     1       2.327   6.223  19.217  0.00  0.00    +0.000 N 
ATOM     20  C   UNL     1       2.493   4.980  19.821  0.00  0.00    +0.000 A 
ATOM     21  C   UNL     1       1.524   4.495  20.702  0.00  0.00    +0.000 A 
ATOM     22  C   UNL     1       1.701   3.248  21.303  0.00  0.00    +0.000 A 
ATOM     23  C   UNL     1       2.849   2.496  21.040  0.00  0.00    +0.000 A 
ATOM     24  C   UNL     1       3.813   2.984  20.157  0.00  0.00    +0.000 A 
ATOM     25  C   UNL     1       3.623   4.225  19.538  0.00  0.00    +0.000 A 
ATOM     26  C   UNL     1       4.595   4.748  18.563  0.00  0.00    +0.000 A 
ATOM     27  O   UNL     1       5.544   4.039  18.235  0.00  0.00    +0.000 OA
ATOM     28  H   UNL     1       1.502   6.775  19.428  0.00  0.00    +0.000 HD
ENDBRANCH  15  16
ENDBRANCH   1  15
TORSDOF 5
ENDMDL
MODEL 8
REMARK VINA RESULT:      -7.5      5.388      7.334
REMARK  Name = 
REMARK  7 active torsions:
REMARK  status: ('A' for Active; 'I' for Inactive)
REMARK    1  A    between atoms: C_1  and  C_2
REMARK    2  A    between atoms: C_6  and  N_7
REMARK    3  A    between atoms: C_8  and  C_10
REMARK    4  A    between atoms: C_10  and  C_11
REMARK    5  A    between atoms: C_11  and  C_12
REMARK    6  A    between atoms: C_12  and  N_13
REMARK    7  A    between atoms: C_25  and  C_26
REMARK                            x       y       z     vdW  Elec       q    Type
REMARK                         _______ _______ _______ _____ _____    ______ ____
ROOT
ATOM      1  C   UNL     1       1.966   5.730  20.396  0.00  0.00    +0.000 C 
ENDROOT
BRANCH   1   2
ATOM      2  C   UNL     1       2.375   6.913  19.530  0.00  0.00    +0.000 C 
BRANCH   2   4
ATOM      3  N   UNL     1       1.546   9.154  19.099  0.00  0.00    +0.000 N 
ATOM      4  C   UNL     1       1.742   8.181  20.054  0.00  0.00    +0.000 C 
ATOM      5  O   UNL     1       1.404   8.297  21.228  0.00  0.00    +0.000 OA
ATOM      6  H   UNL     1       1.699   8.921  18.125  0.00  0.00    +0.000 HD
BRANCH   3  12
ATOM      7  C   UNL     1      -1.409  11.831  21.057  0.00  0.00    +0.000 C 
ATOM      8  C   UNL     1      -1.382  11.621  19.536  0.00  0.00    +0.000 C 
ATOM      9  C   UNL     1      -0.737  12.823  18.827  0.00  0.00    +0.000 C 
ATOM     10  C   UNL     1       0.777  12.896  19.021  0.00  0.00    +0.000 C 
ATOM     11  C   UNL     1       1.479  11.583  18.681  0.00  0.00    +0.000 C 
ATOM     12  C   UNL     1       0.849  10.395  19.415  0.00  0.00    +0.000 C 
ATOM     13  C   UNL     1      -0.676  10.293  19.158  0.00  0.00    +0.000 C 
ATOM     14  C   UNL     1      -1.007   9.900  17.707  0.00  0.00    +0.000 C 
ENDBRANCH   3  12
ENDBRANCH   2   4
ENDBRANCH   1   2
BRANCH   1  15
ATOM     15  C   UNL     1       3.068   4.672  20.461  0.00  0.00    +0.000 C 
BRANCH  15  16
ATOM     16  N   UNL     1       3.616   4.386  19.125  0.00  0.00    +0.000 N 
ATOM     17  C   UNL     1       2.867   3.738  18.145  0.00  0.00    +0.000 A 
ATOM     18  S   UNL     1       1.312   3.125  18.299  0.00  0.00    +0.000 S 
ATOM     19  N   UNL     1       3.456   3.578  16.919  0.00  0.00    +0.000 N 
ATOM     20  C   UNL     1       4.739   4.014  16.604  0.00  0.00    +0.000 A 
ATOM     21  C   UNL     1       5.252   3.811  15.322  0.00  0.00    +0.000 A 
ATOM     22  C   UNL     1       6.542   4.251  15.017  0.00  0.00    +0.000 A 
ATOM     23  C   UNL     1       7.322   4.874  15.994  0.00  0.00    +0.000 A 
ATOM     24  C   UNL     1       6.803   5.076  17.274  0.00  0.00    +0.000 A 
ATOM     25  C   UNL     1       5.503   4.654  17.571  0.00  0.00    +0.000 A 
ATOM     26  C   UNL     1       4.906   4.896  18.895  0.00  0.00    +0.000 A 
ATOM     27  O   UNL     1       5.541   5.551  19.720  0.00  0.00    +0.000 OA
ATOM     28  H   UNL     1       2.901   3.106  16.213  0.00  0.00    +0.000 HD
ENDBRANCH  15  16
ENDBRANCH   1  15
TORSDOF 5
ENDMDL
MODEL 9
REMARK VINA RESULT:      -7.5      5.159      7.489
REMARK  Name = 
REMARK  7 active torsions:
REMARK  status: ('A' for Active; 'I' for Inactive)
REMARK    1  A    between atoms: C_1  and  C_2
REMARK    2  A    between atoms: C_6  and  N_7
REMARK    3  A    between atoms: C_8  and  C_10
REMARK    4  A    between atoms: C_10  and  C_11
REMARK    5  A    between atoms: C_11  and  C_12
REMARK    6  A    between atoms: C_12  and  N_13
REMARK    7  A    between atoms: C_25  and  C_26
REMARK                            x       y       z     vdW  Elec       q    Type
REMARK                         _______ _______ _______ _____ _____    ______ ____
ROOT
ATOM      1  C   UNL     1       3.430   5.841  17.922  0.00  0.00    +0.000 C 
ENDROOT
BRANCH   1   2
ATOM      2  C   UNL     1       2.919   6.434  19.228  0.00  0.00    +0.000 C 
BRANCH   2   4
ATOM      3  N   UNL     1       1.535   8.273  20.002  0.00  0.00    +0.000 N 
ATOM      4  C   UNL     1       2.325   7.801  18.976  0.00  0.00    +0.000 C 
ATOM      5  O   UNL     1       2.569   8.433  17.954  0.00  0.00    +0.000 OA
ATOM      6  H   UNL     1       1.516   7.765  20.878  0.00  0.00    +0.000 HD
BRANCH   3  12
ATOM      7  C   UNL     1       1.283  12.650  20.717  0.00  0.00    +0.000 C 
ATOM      8  C   UNL     1       0.253  11.669  21.296  0.00  0.00    +0.000 C 
ATOM      9  C   UNL     1      -1.056  11.708  20.490  0.00  0.00    +0.000 C 
ATOM     10  C   UNL     1      -0.938  11.048  19.116  0.00  0.00    +0.000 C 
ATOM     11  C   UNL     1      -0.347   9.642  19.187  0.00  0.00    +0.000 C 
ATOM     12  C   UNL     1       0.973   9.617  19.965  0.00  0.00    +0.000 C 
ATOM     13  C   UNL     1       0.824  10.230  21.382  0.00  0.00    +0.000 C 
ATOM     14  C   UNL     1      -0.038   9.362  22.315  0.00  0.00    +0.000 C 
ENDBRANCH   3  12
ENDBRANCH   2   4
ENDBRANCH   1   2
BRANCH   1  15
ATOM     15  C   UNL     1       4.806   5.196  18.097  0.00  0.00    +0.000 C 
BRANCH  15  16
ATOM     16  N   UNL     1       5.566   5.205  16.837  0.00  0.00    +0.000 N 
ATOM     17  C   UNL     1       6.740   5.942  16.690  0.00  0.00    +0.000 A 
ATOM     18  S   UNL     1       7.444   6.962  17.821  0.00  0.00    +0.000 S 
ATOM     19  N   UNL     1       7.397   5.829  15.494  0.00  0.00    +0.000 N 
ATOM     20  C   UNL     1       6.963   5.038  14.435  0.00  0.00    +0.000 A 
ATOM     21  C   UNL     1       7.706   4.981  13.254  0.00  0.00    +0.000 A 
ATOM     22  C   UNL     1       7.262   4.185  12.197  0.00  0.00    +0.000 A 
ATOM     23  C   UNL     1       6.071   3.463  12.311  0.00  0.00    +0.000 A 
ATOM     24  C   UNL     1       5.334   3.522  13.495  0.00  0.00    +0.000 A 
ATOM     25  C   UNL     1       5.792   4.303  14.561  0.00  0.00    +0.000 A 
ATOM     26  C   UNL     1       5.066   4.348  15.841  0.00  0.00    +0.000 A 
ATOM     27  O   UNL     1       4.085   3.622  15.992  0.00  0.00    +0.000 OA
ATOM     28  H   UNL     1       8.251   6.369  15.398  0.00  0.00    +0.000 HD
ENDBRANCH  15  16
ENDBRANCH   1  15
TORSDOF 5
ENDMDL
