MODEL 1
REMARK VINA RESULT:      -8.7      0.000      0.000
REMARK  Name = 
REMARK  4 active torsions:
REMARK  status: ('A' for Active; 'I' for Inactive)
REMARK    1  A    between atoms: C_2  and  C_4
REMARK    2  A    between atoms: C_7  and  C_8
REMARK    3  A    between atoms: C_14  and  S_15
REMARK    4  A    between atoms: S_15  and  C_16
REMARK                            x       y       z     vdW  Elec       q    Type
REMARK                         _______ _______ _______ _____ _____    ______ ____
ROOT
ATOM      1  C   UNL     1       3.024   5.881  19.142  0.00  0.00    +0.000 A 
ATOM      2  N   UNL     1       2.821   5.004  20.155  0.00  0.00    +0.000 NA
ATOM      3  N   UNL     1       1.990   5.565  21.026  0.00  0.00    +0.000 NA
ATOM      4  C   UNL     1       1.707   6.787  20.546  0.00  0.00    +0.000 A 
ATOM      5  C   UNL     1       0.887   7.736  21.148  0.00  0.00    +0.000 A 
ATOM      6  C   UNL     1       0.748   8.975  20.506  0.00  0.00    +0.000 A 
ATOM      7  C   UNL     1       1.425   9.228  19.296  0.00  0.00    +0.000 A 
ATOM      8  C   UNL     1       2.236   8.228  18.740  0.00  0.00    +0.000 A 
ATOM      9  N   UNL     1       2.338   7.026  19.384  0.00  0.00    +0.000 N 
ENDROOT
BRANCH   1  13
ATOM     10  C   UNL     1       5.585   4.965  15.768  0.00  0.00    +0.000 A 
ATOM     11  C   UNL     1       4.724   3.987  16.295  0.00  0.00    +0.000 A 
ATOM     12  C   UNL     1       3.893   4.272  17.377  0.00  0.00    +0.000 A 
ATOM     13  C   UNL     1       3.883   5.544  17.970  0.00  0.00    +0.000 A 
ATOM     14  C   UNL     1       4.752   6.523  17.455  0.00  0.00    +0.000 A 
ATOM     15  C   UNL     1       5.584   6.242  16.365  0.00  0.00    +0.000 A 
BRANCH  10  17
ATOM     16  N   UNL     1       6.285   3.675  13.737  0.00  0.00    +0.000 N 
ATOM     17  C   UNL     1       6.505   4.684  14.619  0.00  0.00    +0.000 C 
ATOM     18  O   UNL     1       7.498   5.381  14.470  0.00  0.00    +0.000 OA
ATOM     19  H   UNL     1       6.948   3.512  12.966  0.00  0.00    +0.000 HD
ATOM     20  H   UNL     1       5.477   3.045  13.797  0.00  0.00    +0.000 HD
ENDBRANCH  10  17
ENDBRANCH   1  13
BRANCH   7  21
ATOM     21  S   UNL     1       1.311  10.840  18.505  0.00  0.00    +0.000 S 
BRANCH  21  22
ATOM     22  C   UNL     1      -0.482  10.866  18.322  0.00  0.00    +0.000 A 
ATOM     23  C   UNL     1      -1.118   9.910  17.520  0.00  0.00    +0.000 A 
ATOM     24  C   UNL     1      -2.514   9.899  17.407  0.00  0.00    +0.000 A 
ATOM     25  C   UNL     1      -3.279  10.841  18.100  0.00  0.00    +0.000 A 
ATOM     26  F   UNL     1      -4.631  10.820  17.997  0.00  0.00    +0.000 F 
ATOM     27  C   UNL     1      -2.652  11.796  18.904  0.00  0.00    +0.000 A 
ATOM     28  C   UNL     1      -1.254  11.813  19.017  0.00  0.00    +0.000 A 
ATOM     29  F   UNL     1      -0.662  12.738  19.813  0.00  0.00    +0.000 F 
ENDBRANCH  21  22
ENDBRANCH   7  21
TORSDOF 4
ENDMDL
MODEL 2
REMARK VINA RESULT:      -8.6      0.901      1.322
REMARK  Name = 
REMARK  4 active torsions:
REMARK  status: ('A' for Active; 'I' for Inactive)
REMARK    1  A    between atoms: C_2  and  C_4
REMARK    2  A    between atoms: C_7  and  C_8
REMARK    3  A    between atoms: C_14  and  S_15
REMARK    4  A    between atoms: S_15  and  C_16
REMARK                            x       y       z     vdW  Elec       q    Type
REMARK                         _______ _______ _______ _____ _____    ______ ____
ROOT
ATOM      1  C   UNL     1       2.992   5.900  19.126  0.00  0.00    +0.000 A 
ATOM      2  N   UNL     1       2.762   5.021  20.131  0.00  0.00    +0.000 NA
ATOM      3  N   UNL     1       1.930   5.591  20.996  0.00  0.00    +0.000 NA
ATOM      4  C   UNL     1       1.676   6.821  20.521  0.00  0.00    +0.000 A 
ATOM      5  C   UNL     1       0.866   7.781  21.120  0.00  0.00    +0.000 A 
ATOM      6  C   UNL     1       0.757   9.026  20.484  0.00  0.00    +0.000 A 
ATOM      7  C   UNL     1       1.452   9.274  19.284  0.00  0.00    +0.000 A 
ATOM      8  C   UNL     1       2.251   8.263  18.731  0.00  0.00    +0.000 A 
ATOM      9  N   UNL     1       2.324   7.056  19.368  0.00  0.00    +0.000 N 
ENDROOT
BRANCH   1  13
ATOM     10  C   UNL     1       5.573   4.960  15.774  0.00  0.00    +0.000 A 
ATOM     11  C   UNL     1       4.713   3.984  16.308  0.00  0.00    +0.000 A 
ATOM     12  C   UNL     1       3.875   4.276  17.382  0.00  0.00    +0.000 A 
ATOM     13  C   UNL     1       3.857   5.555  17.962  0.00  0.00    +0.000 A 
ATOM     14  C   UNL     1       4.724   6.532  17.441  0.00  0.00    +0.000 A 
ATOM     15  C   UNL     1       5.562   6.243  16.358  0.00  0.00    +0.000 A 
BRANCH  10  17
ATOM     16  N   UNL     1       6.294   3.642  13.768  0.00  0.00    +0.000 N 
ATOM     17  C   UNL     1       6.499   4.670  14.633  0.00  0.00    +0.000 C 
ATOM     18  O   UNL     1       7.482   5.379  14.473  0.00  0.00    +0.000 OA
ATOM     19  H   UNL     1       6.962   3.475  13.002  0.00  0.00    +0.000 HD
ATOM     20  H   UNL     1       5.495   3.002  13.839  0.00  0.00    +0.000 HD
ENDBRANCH  10  17
ENDBRANCH   1  13
BRANCH   7  21
ATOM     21  S   UNL     1       1.376  10.893  18.501  0.00  0.00    +0.000 S 
BRANCH  21  22
ATOM     22  C   UNL     1      -0.406  11.121  18.646  0.00  0.00    +0.000 A 
ATOM     23  C   UNL     1      -0.920  12.101  19.505  0.00  0.00    +0.000 A 
ATOM     24  C   UNL     1      -2.301  12.311  19.590  0.00  0.00    +0.000 A 
ATOM     25  C   UNL     1      -3.174  11.547  18.812  0.00  0.00    +0.000 A 
ATOM     26  F   UNL     1      -4.512  11.760  18.889  0.00  0.00    +0.000 F 
ATOM     27  C   UNL     1      -2.669  10.569  17.951  0.00  0.00    +0.000 A 
ATOM     28  C   UNL     1      -1.287  10.353  17.865  0.00  0.00    +0.000 A 
ATOM     29  F   UNL     1      -0.812   9.409  17.013  0.00  0.00    +0.000 F 
ENDBRANCH  21  22
ENDBRANCH   7  21
TORSDOF 4
ENDMDL
MODEL 3
REMARK VINA RESULT:      -8.5      4.547      7.973
REMARK  Name = 
REMARK  4 active torsions:
REMARK  status: ('A' for Active; 'I' for Inactive)
REMARK    1  A    between atoms: C_2  and  C_4
REMARK    2  A    between atoms: C_7  and  C_8
REMARK    3  A    between atoms: C_14  and  S_15
REMARK    4  A    between atoms: S_15  and  C_16
REMARK                            x       y       z     vdW  Elec       q    Type
REMARK                         _______ _______ _______ _____ _____    ______ ____
ROOT
ATOM      1  C   UNL     1       1.767   4.933  19.996  0.00  0.00    +0.000 A 
ATOM      2  N   UNL     1       1.071   4.090  20.796  0.00  0.00    +0.000 NA
ATOM      3  N   UNL     1       1.447   2.848  20.513  0.00  0.00    +0.000 NA
ATOM      4  C   UNL     1       2.355   2.943  19.528  0.00  0.00    +0.000 A 
ATOM      5  C   UNL     1       3.003   1.882  18.903  0.00  0.00    +0.000 A 
ATOM      6  C   UNL     1       3.893   2.186  17.864  0.00  0.00    +0.000 A 
ATOM      7  C   UNL     1       4.107   3.525  17.481  0.00  0.00    +0.000 A 
ATOM      8  C   UNL     1       3.423   4.550  18.151  0.00  0.00    +0.000 A 
ATOM      9  N   UNL     1       2.574   4.220  19.171  0.00  0.00    +0.000 N 
ENDROOT
BRANCH   1  13
ATOM     10  C   UNL     1       1.298   9.238  20.167  0.00  0.00    +0.000 A 
ATOM     11  C   UNL     1       0.919   8.436  21.258  0.00  0.00    +0.000 A 
ATOM     12  C   UNL     1       1.070   7.051  21.216  0.00  0.00    +0.000 A 
ATOM     13  C   UNL     1       1.610   6.413  20.087  0.00  0.00    +0.000 A 
ATOM     14  C   UNL     1       1.978   7.210  18.988  0.00  0.00    +0.000 A 
ATOM     15  C   UNL     1       1.833   8.601  19.030  0.00  0.00    +0.000 A 
BRANCH  10  17
ATOM     16  N   UNL     1       0.950  11.448  19.039  0.00  0.00    +0.000 N 
ATOM     17  C   UNL     1       1.129  10.727  20.175  0.00  0.00    +0.000 C 
ATOM     18  O   UNL     1       1.160  11.321  21.243  0.00  0.00    +0.000 OA
ATOM     19  H   UNL     1       0.846  12.472  19.090  0.00  0.00    +0.000 HD
ATOM     20  H   UNL     1       0.917  11.023  18.105  0.00  0.00    +0.000 HD
ENDBRANCH  10  17
ENDBRANCH   1  13
BRANCH   7  21
ATOM     21  S   UNL     1       5.190   3.919  16.099  0.00  0.00    +0.000 S 
BRANCH  21  22
ATOM     22  C   UNL     1       6.207   5.134  16.959  0.00  0.00    +0.000 A 
ATOM     23  C   UNL     1       7.137   4.715  17.919  0.00  0.00    +0.000 A 
ATOM     24  C   UNL     1       7.959   5.650  18.560  0.00  0.00    +0.000 A 
ATOM     25  C   UNL     1       7.858   7.006  18.240  0.00  0.00    +0.000 A 
ATOM     26  F   UNL     1       8.663   7.908  18.855  0.00  0.00    +0.000 F 
ATOM     27  C   UNL     1       6.934   7.431  17.282  0.00  0.00    +0.000 A 
ATOM     28  C   UNL     1       6.107   6.499  16.640  0.00  0.00    +0.000 A 
ATOM     29  F   UNL     1       5.225   6.927  15.702  0.00  0.00    +0.000 F 
ENDBRANCH  21  22
ENDBRANCH   7  21
TORSDOF 4
ENDMDL
MODEL 4
REMARK VINA RESULT:      -7.8      4.830      8.023
REMARK  Name = 
REMARK  4 active torsions:
REMARK  status: ('A' for Active; 'I' for Inactive)
REMARK    1  A    between atoms: C_2  and  C_4
REMARK    2  A    between atoms: C_7  and  C_8
REMARK    3  A    between atoms: C_14  and  S_15
REMARK    4  A    between atoms: S_15  and  C_16
REMARK                            x       y       z     vdW  Elec       q    Type
REMARK                         _______ _______ _______ _____ _____    ______ ____
ROOT
ATOM      1  C   UNL     1       2.109   6.123  19.924  0.00  0.00    +0.000 A 
ATOM      2  N   UNL     1       1.403   5.455  20.868  0.00  0.00    +0.000 NA
ATOM      3  N   UNL     1       1.896   4.226  20.961  0.00  0.00    +0.000 NA
ATOM      4  C   UNL     1       2.888   4.148  20.058  0.00  0.00    +0.000 A 
ATOM      5  C   UNL     1       3.672   3.029  19.794  0.00  0.00    +0.000 A 
ATOM      6  C   UNL     1       4.635   3.136  18.781  0.00  0.00    +0.000 A 
ATOM      7  C   UNL     1       4.785   4.342  18.067  0.00  0.00    +0.000 A 
ATOM      8  C   UNL     1       3.963   5.434  18.382  0.00  0.00    +0.000 A 
ATOM      9  N   UNL     1       3.045   5.301  19.386  0.00  0.00    +0.000 N 
ENDROOT
BRANCH   1  13
ATOM     10  C   UNL     1       1.322  10.299  19.073  0.00  0.00    +0.000 A 
ATOM     11  C   UNL     1       1.871   9.461  18.086  0.00  0.00    +0.000 A 
ATOM     12  C   UNL     1       2.124   8.116  18.347  0.00  0.00    +0.000 A 
ATOM     13  C   UNL     1       1.833   7.552  19.600  0.00  0.00    +0.000 A 
ATOM     14  C   UNL     1       1.296   8.389  20.595  0.00  0.00    +0.000 A 
ATOM     15  C   UNL     1       1.036   9.739  20.334  0.00  0.00    +0.000 A 
BRANCH  10  17
ATOM     16  N   UNL     1       1.694  12.458  17.857  0.00  0.00    +0.000 N 
ATOM     17  C   UNL     1       1.059  11.753  18.829  0.00  0.00    +0.000 C 
ATOM     18  O   UNL     1       0.247  12.335  19.533  0.00  0.00    +0.000 OA
ATOM     19  H   UNL     1       1.488  13.459  17.730  0.00  0.00    +0.000 HD
ATOM     20  H   UNL     1       2.391  12.043  17.228  0.00  0.00    +0.000 HD
ENDBRANCH  10  17
ENDBRANCH   1  13
BRANCH   7  21
ATOM     21  S   UNL     1       5.967   4.463  16.716  0.00  0.00    +0.000 S 
BRANCH  21  22
ATOM     22  C   UNL     1       6.880   5.880  17.353  0.00  0.00    +0.000 A 
ATOM     23  C   UNL     1       6.718   7.141  16.764  0.00  0.00    +0.000 A 
ATOM     24  C   UNL     1       7.392   8.254  17.280  0.00  0.00    +0.000 A 
ATOM     25  C   UNL     1       8.228   8.112  18.392  0.00  0.00    +0.000 A 
ATOM     26  F   UNL     1       8.871   9.194  18.896  0.00  0.00    +0.000 F 
ATOM     27  C   UNL     1       8.394   6.858  18.986  0.00  0.00    +0.000 A 
ATOM     28  C   UNL     1       7.722   5.740  18.470  0.00  0.00    +0.000 A 
ATOM     29  F   UNL     1       7.883   4.533  19.067  0.00  0.00    +0.000 F 
ENDBRANCH  21  22
ENDBRANCH   7  21
TORSDOF 4
ENDMDL
MODEL 5
REMARK VINA RESULT:      -7.8      4.760      8.041
REMARK  Name = 
REMARK  4 active torsions:
REMARK  status: ('A' for Active; 'I' for Inactive)
REMARK    1  A    between atoms: C_2  and  C_4
REMARK    2  A    between atoms: C_7  and  C_8
REMARK    3  A    between atoms: C_14  and  S_15
REMARK    4  A    between atoms: S_15  and  C_16
REMARK                            x       y       z     vdW  Elec       q    Type
REMARK                         _______ _______ _______ _____ _____    ______ ____
ROOT
ATOM      1  C   UNL     1       1.985   6.017  19.906  0.00  0.00    +0.000 A 
ATOM      2  N   UNL     1       1.291   5.294  20.817  0.00  0.00    +0.000 NA
ATOM      3  N   UNL     1       1.747   4.047  20.790  0.00  0.00    +0.000 NA
ATOM      4  C   UNL     1       2.703   4.015  19.847  0.00  0.00    +0.000 A 
ATOM      5  C   UNL     1       3.441   2.900  19.463  0.00  0.00    +0.000 A 
ATOM      6  C   UNL     1       4.371   3.063  18.427  0.00  0.00    +0.000 A 
ATOM      7  C   UNL     1       4.535   4.319  17.809  0.00  0.00    +0.000 A 
ATOM      8  C   UNL     1       3.760   5.404  18.244  0.00  0.00    +0.000 A 
ATOM      9  N   UNL     1       2.874   5.216  19.267  0.00  0.00    +0.000 N 
ENDROOT
BRANCH   1  13
ATOM     10  C   UNL     1       1.269  10.241  19.247  0.00  0.00    +0.000 A 
ATOM     11  C   UNL     1       0.994   9.657  20.496  0.00  0.00    +0.000 A 
ATOM     12  C   UNL     1       1.225   8.301  20.721  0.00  0.00    +0.000 A 
ATOM     13  C   UNL     1       1.745   7.476  19.711  0.00  0.00    +0.000 A 
ATOM     14  C   UNL     1       2.009   8.051  18.455  0.00  0.00    +0.000 A 
ATOM     15  C   UNL     1       1.784   9.414  18.228  0.00  0.00    +0.000 A 
BRANCH  10  17
ATOM     16  N   UNL     1      -0.046  12.117  18.233  0.00  0.00    +0.000 N 
ATOM     17  C   UNL     1       1.013  11.690  18.969  0.00  0.00    +0.000 C 
ATOM     18  O   UNL     1       1.787  12.525  19.414  0.00  0.00    +0.000 OA
ATOM     19  H   UNL     1      -0.179  13.124  18.061  0.00  0.00    +0.000 HD
ATOM     20  H   UNL     1      -0.737  11.479  17.823  0.00  0.00    +0.000 HD
ENDBRANCH  10  17
ENDBRANCH   1  13
BRANCH   7  21
ATOM     21  S   UNL     1       5.672   4.518  16.429  0.00  0.00    +0.000 S 
BRANCH  21  22
ATOM     22  C   UNL     1       6.695   5.801  17.174  0.00  0.00    +0.000 A 
ATOM     23  C   UNL     1       6.614   7.120  16.708  0.00  0.00    +0.000 A 
ATOM     24  C   UNL     1       7.376   8.129  17.309  0.00  0.00    +0.000 A 
ATOM     25  C   UNL     1       8.216   7.825  18.384  0.00  0.00    +0.000 A 
ATOM     26  F   UNL     1       8.944   8.807  18.972  0.00  0.00    +0.000 F 
ATOM     27  C   UNL     1       8.301   6.512  18.856  0.00  0.00    +0.000 A 
ATOM     28  C   UNL     1       7.542   5.498  18.254  0.00  0.00    +0.000 A 
ATOM     29  F   UNL     1       7.625   4.231  18.733  0.00  0.00    +0.000 F 
ENDBRANCH  21  22
ENDBRANCH   7  21
TORSDOF 4
ENDMDL
MODEL 6
REMARK VINA RESULT:      -7.8      1.319      2.099
REMARK  Name = 
REMARK  4 active torsions:
REMARK  status: ('A' for Active; 'I' for Inactive)
REMARK    1  A    between atoms: C_2  and  C_4
REMARK    2  A    between atoms: C_7  and  C_8
REMARK    3  A    between atoms: C_14  and  S_15
REMARK    4  A    between atoms: S_15  and  C_16
REMARK                            x       y       z     vdW  Elec       q    Type
REMARK                         _______ _______ _______ _____ _____    ______ ____
ROOT
ATOM      1  C   UNL     1       3.082   5.851  19.063  0.00  0.00    +0.000 A 
ATOM      2  N   UNL     1       2.880   4.977  20.078  0.00  0.00    +0.000 NA
ATOM      3  N   UNL     1       2.054   5.542  20.952  0.00  0.00    +0.000 NA
ATOM      4  C   UNL     1       1.775   6.765  20.472  0.00  0.00    +0.000 A 
ATOM      5  C   UNL     1       0.962   7.718  21.076  0.00  0.00    +0.000 A 
ATOM      6  C   UNL     1       0.826   8.956  20.433  0.00  0.00    +0.000 A 
ATOM      7  C   UNL     1       1.498   9.205  19.220  0.00  0.00    +0.000 A 
ATOM      8  C   UNL     1       2.303   8.201  18.662  0.00  0.00    +0.000 A 
ATOM      9  N   UNL     1       2.402   7.000  19.306  0.00  0.00    +0.000 N 
ENDROOT
BRANCH   1  13
ATOM     10  C   UNL     1       5.623   4.922  15.677  0.00  0.00    +0.000 A 
ATOM     11  C   UNL     1       4.795   3.935  16.239  0.00  0.00    +0.000 A 
ATOM     12  C   UNL     1       3.970   4.223  17.325  0.00  0.00    +0.000 A 
ATOM     13  C   UNL     1       3.934   5.509  17.888  0.00  0.00    +0.000 A 
ATOM     14  C   UNL     1       4.770   6.498  17.338  0.00  0.00    +0.000 A 
ATOM     15  C   UNL     1       5.595   6.212  16.244  0.00  0.00    +0.000 A 
BRANCH  10  17
ATOM     16  N   UNL     1       6.306   3.628  13.643  0.00  0.00    +0.000 N 
ATOM     17  C   UNL     1       6.534   4.637  14.523  0.00  0.00    +0.000 C 
ATOM     18  O   UNL     1       7.528   5.332  14.367  0.00  0.00    +0.000 OA
ATOM     19  H   UNL     1       6.964   3.463  12.868  0.00  0.00    +0.000 HD
ATOM     20  H   UNL     1       5.497   3.000  13.709  0.00  0.00    +0.000 HD
ENDBRANCH  10  17
ENDBRANCH   1  13
BRANCH   7  21
ATOM     21  S   UNL     1       1.388  10.817  18.427  0.00  0.00    +0.000 S 
BRANCH  21  22
ATOM     22  C   UNL     1       0.312  11.588  19.651  0.00  0.00    +0.000 A 
ATOM     23  C   UNL     1       0.864  12.355  20.685  0.00  0.00    +0.000 A 
ATOM     24  C   UNL     1       0.032  12.991  21.614  0.00  0.00    +0.000 A 
ATOM     25  C   UNL     1      -1.356  12.867  21.509  0.00  0.00    +0.000 A 
ATOM     26  F   UNL     1      -2.160  13.493  22.405  0.00  0.00    +0.000 F 
ATOM     27  C   UNL     1      -1.914  12.104  20.480  0.00  0.00    +0.000 A 
ATOM     28  C   UNL     1      -1.084  11.464  19.549  0.00  0.00    +0.000 A 
ATOM     29  F   UNL     1      -1.643  10.740  18.547  0.00  0.00    +0.000 F 
ENDBRANCH  21  22
ENDBRANCH   7  21
TORSDOF 4
ENDMDL
MODEL 7
REMARK VINA RESULT:      -7.8      1.109      1.628
REMARK  Name = 
REMARK  4 active torsions:
REMARK  status: ('A' for Active; 'I' for Inactive)
REMARK    1  A    between atoms: C_2  and  C_4
REMARK    2  A    between atoms: C_7  and  C_8
REMARK    3  A    between atoms: C_14  and  S_15
REMARK    4  A    between atoms: S_15  and  C_16
REMARK                            x       y       z     vdW  Elec       q    Type
REMARK                         _______ _______ _______ _____ _____    ______ ____
ROOT
ATOM      1  C   UNL     1       3.208   5.940  18.728  0.00  0.00    +0.000 A 
ATOM      2  N   UNL     1       2.966   5.040  19.712  0.00  0.00    +0.000 NA
ATOM      3  N   UNL     1       2.146   5.601  20.593  0.00  0.00    +0.000 NA
ATOM      4  C   UNL     1       1.911   6.847  20.150  0.00  0.00    +0.000 A 
ATOM      5  C   UNL     1       1.119   7.805  20.776  0.00  0.00    +0.000 A 
ATOM      6  C   UNL     1       1.029   9.067  20.172  0.00  0.00    +0.000 A 
ATOM      7  C   UNL     1       1.724   9.334  18.976  0.00  0.00    +0.000 A 
ATOM      8  C   UNL     1       2.505   8.324  18.395  0.00  0.00    +0.000 A 
ATOM      9  N   UNL     1       2.560   7.100  19.001  0.00  0.00    +0.000 N 
ENDROOT
BRANCH   1  13
ATOM     10  C   UNL     1       5.644   4.906  15.296  0.00  0.00    +0.000 A 
ATOM     11  C   UNL     1       5.498   6.248  15.689  0.00  0.00    +0.000 A 
ATOM     12  C   UNL     1       4.721   6.592  16.794  0.00  0.00    +0.000 A 
ATOM     13  C   UNL     1       4.065   5.610  17.554  0.00  0.00    +0.000 A 
ATOM     14  C   UNL     1       4.197   4.267  17.158  0.00  0.00    +0.000 A 
ATOM     15  C   UNL     1       4.981   3.918  16.052  0.00  0.00    +0.000 A 
BRANCH  10  17
ATOM     16  N   UNL     1       6.227   3.360  13.413  0.00  0.00    +0.000 N 
ATOM     17  C   UNL     1       6.456   4.507  14.102  0.00  0.00    +0.000 C 
ATOM     18  O   UNL     1       7.366   5.236  13.734  0.00  0.00    +0.000 OA
ATOM     19  H   UNL     1       6.816   3.121  12.602  0.00  0.00    +0.000 HD
ATOM     20  H   UNL     1       5.486   2.694  13.662  0.00  0.00    +0.000 HD
ENDBRANCH  10  17
ENDBRANCH   1  13
BRANCH   7  21
ATOM     21  S   UNL     1       1.674  10.973  18.235  0.00  0.00    +0.000 S 
BRANCH  21  22
ATOM     22  C   UNL     1       0.126  11.505  18.991  0.00  0.00    +0.000 A 
ATOM     23  C   UNL     1      -1.091  11.258  18.343  0.00  0.00    +0.000 A 
ATOM     24  C   UNL     1      -2.299  11.632  18.943  0.00  0.00    +0.000 A 
ATOM     25  C   UNL     1      -2.296  12.248  20.198  0.00  0.00    +0.000 A 
ATOM     26  F   UNL     1      -3.468  12.598  20.782  0.00  0.00    +0.000 F 
ATOM     27  C   UNL     1      -1.086  12.495  20.852  0.00  0.00    +0.000 A 
ATOM     28  C   UNL     1       0.126  12.126  20.252  0.00  0.00    +0.000 A 
ATOM     29  F   UNL     1       1.292  12.360  20.907  0.00  0.00    +0.000 F 
ENDBRANCH  21  22
ENDBRANCH   7  21
TORSDOF 4
ENDMDL
MODEL 8
REMARK VINA RESULT:      -7.8      2.199      3.280
REMARK  Name = 
REMARK  4 active torsions:
REMARK  status: ('A' for Active; 'I' for Inactive)
REMARK    1  A    between atoms: C_2  and  C_4
REMARK    2  A    between atoms: C_7  and  C_8
REMARK    3  A    between atoms: C_14  and  S_15
REMARK    4  A    between atoms: S_15  and  C_16
REMARK                            x       y       z     vdW  Elec       q    Type
REMARK                         _______ _______ _______ _____ _____    ______ ____
ROOT
ATOM      1  C   UNL     1       4.504   4.435  18.126  0.00  0.00    +0.000 A 
ATOM      2  N   UNL     1       4.543   3.337  18.918  0.00  0.00    +0.000 NA
ATOM      3  N   UNL     1       3.672   3.508  19.906  0.00  0.00    +0.000 NA
ATOM      4  C   UNL     1       3.123   4.720  19.720  0.00  0.00    +0.000 A 
ATOM      5  C   UNL     1       2.170   5.323  20.534  0.00  0.00    +0.000 A 
ATOM      6  C   UNL     1       1.746   6.615  20.190  0.00  0.00    +0.000 A 
ATOM      7  C   UNL     1       2.282   7.260  19.058  0.00  0.00    +0.000 A 
ATOM      8  C   UNL     1       3.240   6.597  18.277  0.00  0.00    +0.000 A 
ATOM      9  N   UNL     1       3.619   5.332  18.631  0.00  0.00    +0.000 N 
ENDROOT
BRANCH   1  13
ATOM     10  C   UNL     1       6.851   4.793  14.500  0.00  0.00    +0.000 A 
ATOM     11  C   UNL     1       7.454   4.958  15.760  0.00  0.00    +0.000 A 
ATOM     12  C   UNL     1       6.710   4.840  16.932  0.00  0.00    +0.000 A 
ATOM     13  C   UNL     1       5.337   4.548  16.895  0.00  0.00    +0.000 A 
ATOM     14  C   UNL     1       4.726   4.395  15.638  0.00  0.00    +0.000 A 
ATOM     15  C   UNL     1       5.471   4.507  14.459  0.00  0.00    +0.000 A 
BRANCH  10  17
ATOM     16  N   UNL     1       8.642   5.817  13.078  0.00  0.00    +0.000 N 
ATOM     17  C   UNL     1       7.620   4.934  13.223  0.00  0.00    +0.000 C 
ATOM     18  O   UNL     1       7.315   4.235  12.267  0.00  0.00    +0.000 OA
ATOM     19  H   UNL     1       9.138   5.885  12.178  0.00  0.00    +0.000 HD
ATOM     20  H   UNL     1       8.954   6.440  13.831  0.00  0.00    +0.000 HD
ENDBRANCH  10  17
ENDBRANCH   1  13
BRANCH   7  21
ATOM     21  S   UNL     1       1.800   8.946  18.653  0.00  0.00    +0.000 S 
BRANCH  21  22
ATOM     22  C   UNL     1       0.937   9.302  20.195  0.00  0.00    +0.000 A 
ATOM     23  C   UNL     1       1.554   9.026  21.422  0.00  0.00    +0.000 A 
ATOM     24  C   UNL     1       0.906   9.338  22.623  0.00  0.00    +0.000 A 
ATOM     25  C   UNL     1      -0.358   9.933  22.602  0.00  0.00    +0.000 A 
ATOM     26  F   UNL     1      -0.979  10.245  23.767  0.00  0.00    +0.000 F 
ATOM     27  C   UNL     1      -0.979  10.213  21.381  0.00  0.00    +0.000 A 
ATOM     28  C   UNL     1      -0.335   9.899  20.176  0.00  0.00    +0.000 A 
ATOM     29  F   UNL     1      -0.945  10.191  19.000  0.00  0.00    +0.000 F 
ENDBRANCH  21  22
ENDBRANCH   7  21
TORSDOF 4
ENDMDL
MODEL 9
REMARK VINA RESULT:      -7.7      2.778      4.111
REMARK  Name = 
REMARK  4 active torsions:
REMARK  status: ('A' for Active; 'I' for Inactive)
REMARK    1  A    between atoms: C_2  and  C_4
REMARK    2  A    between atoms: C_7  and  C_8
REMARK    3  A    between atoms: C_14  and  S_15
REMARK    4  A    between atoms: S_15  and  C_16
REMARK                            x       y       z     vdW  Elec       q    Type
REMARK                         _______ _______ _______ _____ _____    ______ ____
ROOT
ATOM      1  C   UNL     1       1.214   8.696  21.019  0.00  0.00    +0.000 A 
ATOM      2  N   UNL     1       1.577   8.784  22.322  0.00  0.00    +0.000 NA
ATOM      3  N   UNL     1       0.968   9.839  22.851  0.00  0.00    +0.000 NA
ATOM      4  C   UNL     1       0.254  10.399  21.860  0.00  0.00    +0.000 A 
ATOM      5  C   UNL     1      -0.528  11.545  21.959  0.00  0.00    +0.000 A 
ATOM      6  C   UNL     1      -1.170  11.995  20.796  0.00  0.00    +0.000 A 
ATOM      7  C   UNL     1      -1.013  11.296  19.582  0.00  0.00    +0.000 A 
ATOM      8  C   UNL     1      -0.211  10.146  19.550  0.00  0.00    +0.000 A 
ATOM      9  N   UNL     1       0.388   9.726  20.705  0.00  0.00    +0.000 N 
ENDROOT
BRANCH   1  13
ATOM     10  C   UNL     1       2.543   5.427  18.504  0.00  0.00    +0.000 A 
ATOM     11  C   UNL     1       2.690   6.759  18.079  0.00  0.00    +0.000 A 
ATOM     12  C   UNL     1       2.271   7.818  18.882  0.00  0.00    +0.000 A 
ATOM     13  C   UNL     1       1.694   7.591  20.142  0.00  0.00    +0.000 A 
ATOM     14  C   UNL     1       1.533   6.260  20.567  0.00  0.00    +0.000 A 
ATOM     15  C   UNL     1       1.958   5.194  19.765  0.00  0.00    +0.000 A 
BRANCH  10  17
ATOM     16  N   UNL     1       4.265   4.015  17.357  0.00  0.00    +0.000 N 
ATOM     17  C   UNL     1       2.965   4.267  17.655  0.00  0.00    +0.000 C 
ATOM     18  O   UNL     1       2.108   3.519  17.205  0.00  0.00    +0.000 OA
ATOM     19  H   UNL     1       4.509   3.210  16.762  0.00  0.00    +0.000 HD
ATOM     20  H   UNL     1       5.040   4.598  17.693  0.00  0.00    +0.000 HD
ENDBRANCH  10  17
ENDBRANCH   1  13
BRANCH   7  21
ATOM     21  S   UNL     1      -1.772  11.908  18.070  0.00  0.00    +0.000 S 
BRANCH  21  22
ATOM     22  C   UNL     1      -3.485  11.666  18.573  0.00  0.00    +0.000 A 
ATOM     23  C   UNL     1      -4.048  12.485  19.560  0.00  0.00    +0.000 A 
ATOM     24  C   UNL     1      -5.390  12.329  19.926  0.00  0.00    +0.000 A 
ATOM     25  C   UNL     1      -6.177  11.358  19.301  0.00  0.00    +0.000 A 
ATOM     26  F   UNL     1      -7.481  11.217  19.650  0.00  0.00    +0.000 F 
ATOM     27  C   UNL     1      -5.624  10.538  18.314  0.00  0.00    +0.000 A 
ATOM     28  C   UNL     1      -4.279  10.689  17.947  0.00  0.00    +0.000 A 
ATOM     29  F   UNL     1      -3.761   9.895  16.976  0.00  0.00    +0.000 F 
ENDBRANCH  21  22
ENDBRANCH   7  21
TORSDOF 4
ENDMDL
