MODEL 1
REMARK VINA RESULT:      -7.3      0.000      0.000
REMARK  Name = 
REMARK  8 active torsions:
REMARK  status: ('A' for Active; 'I' for Inactive)
REMARK    1  A    between atoms: C_1  and  S_2
REMARK    2  A    between atoms: S_2  and  C_3
REMARK    3  A    between atoms: N_9  and  C_10
REMARK    4  A    between atoms: C_10  and  C_11
REMARK    5  A    between atoms: C_11  and  C_12
REMARK    6  A    between atoms: C_12  and  C_13
REMARK    7  A    between atoms: C_13  and  N_14
REMARK    8  A    between atoms: C_17  and  C_18
REMARK                            x       y       z     vdW  Elec       q    Type
REMARK                         _______ _______ _______ _____ _____    ______ ____
ROOT
ATOM      1  C   UNL     1       6.178   6.313  16.987  0.00  0.00    +0.000 A 
ATOM      2  C   UNL     1       6.012   5.323  16.017  0.00  0.00    +0.000 A 
ATOM      3  C   UNL     1       4.936   4.440  16.091  0.00  0.00    +0.000 A 
ATOM      4  C   UNL     1       4.010   4.544  17.133  0.00  0.00    +0.000 A 
ATOM      5  C   UNL     1       4.111   5.585  18.079  0.00  0.00    +0.000 A 
ATOM      6  C   UNL     1       5.221   6.453  17.997  0.00  0.00    +0.000 A 
ATOM      7  N   UNL     1       3.163   5.725  19.109  0.00  0.00    +0.000 N 
ATOM      8  C   UNL     1       2.482   4.621  19.672  0.00  0.00    +0.000 A 
ATOM      9  C   UNL     1       2.141   4.610  21.036  0.00  0.00    +0.000 A 
ATOM     10  C   UNL     1       1.579   3.478  21.632  0.00  0.00    +0.000 A 
ATOM     11  C   UNL     1       1.324   2.344  20.869  0.00  0.00    +0.000 A 
ATOM     12  C   UNL     1       1.640   2.336  19.511  0.00  0.00    +0.000 A 
ATOM     13  C   UNL     1       2.238   3.455  18.917  0.00  0.00    +0.000 A 
ATOM     14  S   UNL     1       2.678   3.351  17.188  0.00  0.00    +0.000 S 
ENDROOT
BRANCH   1  16
ATOM     15  C   UNL     1       8.207   7.183  18.634  0.00  0.00    +0.000 C 
ATOM     16  S   UNL     1       7.574   7.423  16.950  0.00  0.00    +0.000 S 
ENDBRANCH   1  16
BRANCH   7  17
ATOM     17  C   UNL     1       2.570   7.060  19.347  0.00  0.00    +0.000 C 
BRANCH  17  18
ATOM     18  C   UNL     1       1.923   7.713  18.111  0.00  0.00    +0.000 C 
BRANCH  18  19
ATOM     19  C   UNL     1       1.775   9.242  18.133  0.00  0.00    +0.000 C 
BRANCH  19  20
ATOM     20  C   UNL     1       1.297   9.775  19.485  0.00  0.00    +0.000 C 
BRANCH  20  21
ATOM     21  N   UNL     1      -0.117   9.490  19.779  0.00  0.00    +0.000 NA
ATOM     22  C   UNL     1      -1.053  10.550  19.381  0.00  0.00    +0.000 C 
ATOM     23  C   UNL     1      -0.905  11.832  20.201  0.00  0.00    +0.000 C 
ATOM     24  C   UNL     1      -1.042  11.546  21.702  0.00  0.00    +0.000 C 
ATOM     25  C   UNL     1      -0.743  12.800  22.519  0.00  0.00    +0.000 C 
ATOM     26  C   UNL     1      -0.133  10.384  22.127  0.00  0.00    +0.000 C 
ATOM     27  C   UNL     1      -0.304   9.172  21.205  0.00  0.00    +0.000 C 
ENDBRANCH  20  21
ENDBRANCH  19  20
ENDBRANCH  18  19
ENDBRANCH  17  18
ENDBRANCH   7  17
TORSDOF 6
ENDMDL
MODEL 2
REMARK VINA RESULT:      -7.1      3.547      8.184
REMARK  Name = 
REMARK  8 active torsions:
REMARK  status: ('A' for Active; 'I' for Inactive)
REMARK    1  A    between atoms: C_1  and  S_2
REMARK    2  A    between atoms: S_2  and  C_3
REMARK    3  A    between atoms: N_9  and  C_10
REMARK    4  A    between atoms: C_10  and  C_11
REMARK    5  A    between atoms: C_11  and  C_12
REMARK    6  A    between atoms: C_12  and  C_13
REMARK    7  A    between atoms: C_13  and  N_14
REMARK    8  A    between atoms: C_17  and  C_18
REMARK                            x       y       z     vdW  Elec       q    Type
REMARK                         _______ _______ _______ _____ _____    ______ ____
ROOT
ATOM      1  C   UNL     1       2.455  14.049  19.169  0.00  0.00    +0.000 A 
ATOM      2  C   UNL     1       1.641  14.901  19.916  0.00  0.00    +0.000 A 
ATOM      3  C   UNL     1       0.333  14.531  20.225  0.00  0.00    +0.000 A 
ATOM      4  C   UNL     1      -0.171  13.299  19.797  0.00  0.00    +0.000 A 
ATOM      5  C   UNL     1       0.658  12.388  19.111  0.00  0.00    +0.000 A 
ATOM      6  C   UNL     1       1.971  12.793  18.789  0.00  0.00    +0.000 A 
ATOM      7  N   UNL     1       0.176  11.128  18.710  0.00  0.00    +0.000 N 
ATOM      8  C   UNL     1      -1.179  10.904  18.371  0.00  0.00    +0.000 A 
ATOM      9  C   UNL     1      -1.522   9.986  17.363  0.00  0.00    +0.000 A 
ATOM     10  C   UNL     1      -2.844   9.844  16.933  0.00  0.00    +0.000 A 
ATOM     11  C   UNL     1      -3.852  10.601  17.521  0.00  0.00    +0.000 A 
ATOM     12  C   UNL     1      -3.538  11.508  18.532  0.00  0.00    +0.000 A 
ATOM     13  C   UNL     1      -2.209  11.681  18.941  0.00  0.00    +0.000 A 
ATOM     14  S   UNL     1      -1.870  12.909  20.194  0.00  0.00    +0.000 S 
ENDROOT
BRANCH   1  16
ATOM     15  C   UNL     1       3.748  15.742  17.422  0.00  0.00    +0.000 C 
ATOM     16  S   UNL     1       4.114  14.517  18.711  0.00  0.00    +0.000 S 
ENDBRANCH   1  16
BRANCH   7  17
ATOM     17  C   UNL     1       0.988   9.930  19.017  0.00  0.00    +0.000 C 
BRANCH  17  18
ATOM     18  C   UNL     1       1.903   9.455  17.873  0.00  0.00    +0.000 C 
BRANCH  18  19
ATOM     19  C   UNL     1       2.078   7.938  17.708  0.00  0.00    +0.000 C 
BRANCH  19  20
ATOM     20  C   UNL     1       2.383   7.227  19.028  0.00  0.00    +0.000 C 
BRANCH  20  21
ATOM     21  N   UNL     1       3.390   6.159  18.919  0.00  0.00    +0.000 NA
ATOM     22  C   UNL     1       3.288   5.340  17.705  0.00  0.00    +0.000 C 
ATOM     23  C   UNL     1       2.031   4.470  17.663  0.00  0.00    +0.000 C 
ATOM     24  C   UNL     1       1.934   3.579  18.909  0.00  0.00    +0.000 C 
ATOM     25  C   UNL     1       0.605   2.828  18.931  0.00  0.00    +0.000 C 
ATOM     26  C   UNL     1       2.122   4.402  20.190  0.00  0.00    +0.000 C 
ATOM     27  C   UNL     1       3.368   5.291  20.110  0.00  0.00    +0.000 C 
ENDBRANCH  20  21
ENDBRANCH  19  20
ENDBRANCH  18  19
ENDBRANCH  17  18
ENDBRANCH   7  17
TORSDOF 6
ENDMDL
MODEL 3
REMARK VINA RESULT:      -7.1      1.358      1.560
REMARK  Name = 
REMARK  8 active torsions:
REMARK  status: ('A' for Active; 'I' for Inactive)
REMARK    1  A    between atoms: C_1  and  S_2
REMARK    2  A    between atoms: S_2  and  C_3
REMARK    3  A    between atoms: N_9  and  C_10
REMARK    4  A    between atoms: C_10  and  C_11
REMARK    5  A    between atoms: C_11  and  C_12
REMARK    6  A    between atoms: C_12  and  C_13
REMARK    7  A    between atoms: C_13  and  N_14
REMARK    8  A    between atoms: C_17  and  C_18
REMARK                            x       y       z     vdW  Elec       q    Type
REMARK                         _______ _______ _______ _____ _____    ______ ____
ROOT
ATOM      1  C   UNL     1       6.808   6.074  17.993  0.00  0.00    +0.000 A 
ATOM      2  C   UNL     1       6.890   5.187  16.918  0.00  0.00    +0.000 A 
ATOM      3  C   UNL     1       5.792   4.402  16.570  0.00  0.00    +0.000 A 
ATOM      4  C   UNL     1       4.598   4.501  17.288  0.00  0.00    +0.000 A 
ATOM      5  C   UNL     1       4.465   5.448  18.326  0.00  0.00    +0.000 A 
ATOM      6  C   UNL     1       5.595   6.216  18.675  0.00  0.00    +0.000 A 
ATOM      7  N   UNL     1       3.255   5.588  19.030  0.00  0.00    +0.000 N 
ATOM      8  C   UNL     1       2.367   4.506  19.240  0.00  0.00    +0.000 A 
ATOM      9  C   UNL     1       1.622   4.414  20.429  0.00  0.00    +0.000 A 
ATOM     10  C   UNL     1       0.836   3.292  20.704  0.00  0.00    +0.000 A 
ATOM     11  C   UNL     1       0.760   2.252  19.783  0.00  0.00    +0.000 A 
ATOM     12  C   UNL     1       1.480   2.328  18.592  0.00  0.00    +0.000 A 
ATOM     13  C   UNL     1       2.299   3.433  18.328  0.00  0.00    +0.000 A 
ATOM     14  S   UNL     1       3.245   3.433  16.812  0.00  0.00    +0.000 S 
ENDROOT
BRANCH   1  16
ATOM     15  C   UNL     1       7.820   8.614  17.656  0.00  0.00    +0.000 C 
ATOM     16  S   UNL     1       8.211   7.053  18.497  0.00  0.00    +0.000 S 
ENDBRANCH   1  16
BRANCH   7  17
ATOM     17  C   UNL     1       2.699   6.945  19.219  0.00  0.00    +0.000 C 
BRANCH  17  18
ATOM     18  C   UNL     1       2.288   7.666  17.920  0.00  0.00    +0.000 C 
BRANCH  18  19
ATOM     19  C   UNL     1       2.170   9.196  17.983  0.00  0.00    +0.000 C 
BRANCH  19  20
ATOM     20  C   UNL     1       0.723   9.685  17.890  0.00  0.00    +0.000 C 
BRANCH  20  21
ATOM     21  N   UNL     1       0.094   9.960  19.192  0.00  0.00    +0.000 NA
ATOM     22  C   UNL     1      -1.246  10.555  19.114  0.00  0.00    +0.000 C 
ATOM     23  C   UNL     1      -1.247  11.979  18.558  0.00  0.00    +0.000 C 
ATOM     24  C   UNL     1      -0.314  12.889  19.368  0.00  0.00    +0.000 C 
ATOM     25  C   UNL     1      -0.204  14.265  18.717  0.00  0.00    +0.000 C 
ATOM     26  C   UNL     1       1.071  12.248  19.536  0.00  0.00    +0.000 C 
ATOM     27  C   UNL     1       0.965  10.802  20.031  0.00  0.00    +0.000 C 
ENDBRANCH  20  21
ENDBRANCH  19  20
ENDBRANCH  18  19
ENDBRANCH  17  18
ENDBRANCH   7  17
TORSDOF 6
ENDMDL
MODEL 4
REMARK VINA RESULT:      -7.0      1.142      1.420
REMARK  Name = 
REMARK  8 active torsions:
REMARK  status: ('A' for Active; 'I' for Inactive)
REMARK    1  A    between atoms: C_1  and  S_2
REMARK    2  A    between atoms: S_2  and  C_3
REMARK    3  A    between atoms: N_9  and  C_10
REMARK    4  A    between atoms: C_10  and  C_11
REMARK    5  A    between atoms: C_11  and  C_12
REMARK    6  A    between atoms: C_12  and  C_13
REMARK    7  A    between atoms: C_13  and  N_14
REMARK    8  A    between atoms: C_17  and  C_18
REMARK                            x       y       z     vdW  Elec       q    Type
REMARK                         _______ _______ _______ _____ _____    ______ ____
ROOT
ATOM      1  C   UNL     1       6.841   6.070  18.016  0.00  0.00    +0.000 A 
ATOM      2  C   UNL     1       6.951   5.161  16.963  0.00  0.00    +0.000 A 
ATOM      3  C   UNL     1       5.861   4.371  16.601  0.00  0.00    +0.000 A 
ATOM      4  C   UNL     1       4.646   4.489  17.282  0.00  0.00    +0.000 A 
ATOM      5  C   UNL     1       4.487   5.458  18.295  0.00  0.00    +0.000 A 
ATOM      6  C   UNL     1       5.610   6.231  18.660  0.00  0.00    +0.000 A 
ATOM      7  N   UNL     1       3.258   5.617  18.961  0.00  0.00    +0.000 N 
ATOM      8  C   UNL     1       2.361   4.543  19.169  0.00  0.00    +0.000 A 
ATOM      9  C   UNL     1       1.582   4.478  20.338  0.00  0.00    +0.000 A 
ATOM     10  C   UNL     1       0.784   3.365  20.614  0.00  0.00    +0.000 A 
ATOM     11  C   UNL     1       0.732   2.305  19.714  0.00  0.00    +0.000 A 
ATOM     12  C   UNL     1       1.485   2.354  18.542  0.00  0.00    +0.000 A 
ATOM     13  C   UNL     1       2.315   3.450  18.278  0.00  0.00    +0.000 A 
ATOM     14  S   UNL     1       3.304   3.415  16.790  0.00  0.00    +0.000 S 
ENDROOT
BRANCH   1  16
ATOM     15  C   UNL     1       7.873   8.599  17.652  0.00  0.00    +0.000 C 
ATOM     16  S   UNL     1       8.233   7.056  18.539  0.00  0.00    +0.000 S 
ENDBRANCH   1  16
BRANCH   7  17
ATOM     17  C   UNL     1       2.702   6.980  19.104  0.00  0.00    +0.000 C 
BRANCH  17  18
ATOM     18  C   UNL     1       2.626   7.791  17.797  0.00  0.00    +0.000 C 
BRANCH  18  19
ATOM     19  C   UNL     1       1.519   8.853  17.702  0.00  0.00    +0.000 C 
BRANCH  19  20
ATOM     20  C   UNL     1       1.839  10.119  18.499  0.00  0.00    +0.000 C 
BRANCH  20  21
ATOM     21  N   UNL     1       0.747  11.106  18.527  0.00  0.00    +0.000 NA
ATOM     22  C   UNL     1       0.938  12.207  19.480  0.00  0.00    +0.000 C 
ATOM     23  C   UNL     1       0.880  11.762  20.942  0.00  0.00    +0.000 C 
ATOM     24  C   UNL     1      -0.433  11.027  21.245  0.00  0.00    +0.000 C 
ATOM     25  C   UNL     1      -0.417  10.457  22.660  0.00  0.00    +0.000 C 
ATOM     26  C   UNL     1      -0.697   9.925  20.210  0.00  0.00    +0.000 C 
ATOM     27  C   UNL     1      -0.549  10.450  18.778  0.00  0.00    +0.000 C 
ENDBRANCH  20  21
ENDBRANCH  19  20
ENDBRANCH  18  19
ENDBRANCH  17  18
ENDBRANCH   7  17
TORSDOF 6
ENDMDL
MODEL 5
REMARK VINA RESULT:      -7.0      1.165      1.712
REMARK  Name = 
REMARK  8 active torsions:
REMARK  status: ('A' for Active; 'I' for Inactive)
REMARK    1  A    between atoms: C_1  and  S_2
REMARK    2  A    between atoms: S_2  and  C_3
REMARK    3  A    between atoms: N_9  and  C_10
REMARK    4  A    between atoms: C_10  and  C_11
REMARK    5  A    between atoms: C_11  and  C_12
REMARK    6  A    between atoms: C_12  and  C_13
REMARK    7  A    between atoms: C_13  and  N_14
REMARK    8  A    between atoms: C_17  and  C_18
REMARK                            x       y       z     vdW  Elec       q    Type
REMARK                         _______ _______ _______ _____ _____    ______ ____
ROOT
ATOM      1  C   UNL     1       6.203   6.322  17.040  0.00  0.00    +0.000 A 
ATOM      2  C   UNL     1       6.083   5.319  16.076  0.00  0.00    +0.000 A 
ATOM      3  C   UNL     1       5.028   4.410  16.137  0.00  0.00    +0.000 A 
ATOM      4  C   UNL     1       4.077   4.501  17.158  0.00  0.00    +0.000 A 
ATOM      5  C   UNL     1       4.132   5.553  18.095  0.00  0.00    +0.000 A 
ATOM      6  C   UNL     1       5.221   6.448  18.028  0.00  0.00    +0.000 A 
ATOM      7  N   UNL     1       3.158   5.680  19.102  0.00  0.00    +0.000 N 
ATOM      8  C   UNL     1       2.493   4.565  19.662  0.00  0.00    +0.000 A 
ATOM      9  C   UNL     1       2.124   4.559  21.019  0.00  0.00    +0.000 A 
ATOM     10  C   UNL     1       1.577   3.420  21.615  0.00  0.00    +0.000 A 
ATOM     11  C   UNL     1       1.366   2.271  20.858  0.00  0.00    +0.000 A 
ATOM     12  C   UNL     1       1.712   2.258  19.508  0.00  0.00    +0.000 A 
ATOM     13  C   UNL     1       2.294   3.385  18.914  0.00  0.00    +0.000 A 
ATOM     14  S   UNL     1       2.775   3.276  17.197  0.00  0.00    +0.000 S 
ENDROOT
BRANCH   1  16
ATOM     15  C   UNL     1       8.234   7.188  18.688  0.00  0.00    +0.000 C 
ATOM     16  S   UNL     1       7.572   7.466  17.021  0.00  0.00    +0.000 S 
ENDBRANCH   1  16
BRANCH   7  17
ATOM     17  C   UNL     1       2.528   7.002  19.314  0.00  0.00    +0.000 C 
BRANCH  17  18
ATOM     18  C   UNL     1       2.701   7.997  18.151  0.00  0.00    +0.000 C 
BRANCH  18  19
ATOM     19  C   UNL     1       1.478   8.850  17.780  0.00  0.00    +0.000 C 
BRANCH  19  20
ATOM     20  C   UNL     1       1.686  10.341  18.052  0.00  0.00    +0.000 C 
BRANCH  20  21
ATOM     21  N   UNL     1       1.170  10.794  19.354  0.00  0.00    +0.000 NA
ATOM     22  C   UNL     1       0.058   9.995  19.886  0.00  0.00    +0.000 C 
ATOM     23  C   UNL     1      -1.230  10.129  19.073  0.00  0.00    +0.000 C 
ATOM     24  C   UNL     1      -1.653  11.598  18.944  0.00  0.00    +0.000 C 
ATOM     25  C   UNL     1      -2.849  11.735  18.008  0.00  0.00    +0.000 C 
ATOM     26  C   UNL     1      -0.481  12.469  18.470  0.00  0.00    +0.000 C 
ATOM     27  C   UNL     1       0.781  12.214  19.301  0.00  0.00    +0.000 C 
ENDBRANCH  20  21
ENDBRANCH  19  20
ENDBRANCH  18  19
ENDBRANCH  17  18
ENDBRANCH   7  17
TORSDOF 6
ENDMDL
MODEL 6
REMARK VINA RESULT:      -6.9      5.920     10.598
REMARK  Name = 
REMARK  8 active torsions:
REMARK  status: ('A' for Active; 'I' for Inactive)
REMARK    1  A    between atoms: C_1  and  S_2
REMARK    2  A    between atoms: S_2  and  C_3
REMARK    3  A    between atoms: N_9  and  C_10
REMARK    4  A    between atoms: C_10  and  C_11
REMARK    5  A    between atoms: C_11  and  C_12
REMARK    6  A    between atoms: C_12  and  C_13
REMARK    7  A    between atoms: C_13  and  N_14
REMARK    8  A    between atoms: C_17  and  C_18
REMARK                            x       y       z     vdW  Elec       q    Type
REMARK                         _______ _______ _______ _____ _____    ______ ____
ROOT
ATOM      1  C   UNL     1       8.115  12.766  23.102  0.00  0.00    +0.000 A 
ATOM      2  C   UNL     1       7.369  13.879  22.712  0.00  0.00    +0.000 A 
ATOM      3  C   UNL     1       7.394  14.313  21.388  0.00  0.00    +0.000 A 
ATOM      4  C   UNL     1       8.160  13.632  20.437  0.00  0.00    +0.000 A 
ATOM      5  C   UNL     1       8.857  12.458  20.789  0.00  0.00    +0.000 A 
ATOM      6  C   UNL     1       8.836  12.051  22.140  0.00  0.00    +0.000 A 
ATOM      7  N   UNL     1       9.598  11.739  19.833  0.00  0.00    +0.000 N 
ATOM      8  C   UNL     1      10.222  12.364  18.728  0.00  0.00    +0.000 A 
ATOM      9  C   UNL     1      11.448  11.883  18.234  0.00  0.00    +0.000 A 
ATOM     10  C   UNL     1      12.136  12.561  17.224  0.00  0.00    +0.000 A 
ATOM     11  C   UNL     1      11.599  13.720  16.672  0.00  0.00    +0.000 A 
ATOM     12  C   UNL     1      10.378  14.207  17.137  0.00  0.00    +0.000 A 
ATOM     13  C   UNL     1       9.703  13.552  18.174  0.00  0.00    +0.000 A 
ATOM     14  S   UNL     1       8.177  14.270  18.767  0.00  0.00    +0.000 S 
ENDROOT
BRANCH   1  16
ATOM     15  C   UNL     1       7.626  13.746  25.629  0.00  0.00    +0.000 C 
ATOM     16  S   UNL     1       8.147  12.218  24.799  0.00  0.00    +0.000 S 
ENDBRANCH   1  16
BRANCH   7  17
ATOM     17  C   UNL     1       9.406  10.275  19.745  0.00  0.00    +0.000 C 
BRANCH  17  18
ATOM     18  C   UNL     1       8.657   9.793  18.488  0.00  0.00    +0.000 C 
BRANCH  18  19
ATOM     19  C   UNL     1       8.489   8.275  18.320  0.00  0.00    +0.000 C 
BRANCH  19  20
ATOM     20  C   UNL     1       7.331   7.903  17.393  0.00  0.00    +0.000 C 
BRANCH  20  21
ATOM     21  N   UNL     1       6.411   6.898  17.950  0.00  0.00    +0.000 NA
ATOM     22  C   UNL     1       6.986   5.555  18.100  0.00  0.00    +0.000 C 
ATOM     23  C   UNL     1       7.289   4.871  16.767  0.00  0.00    +0.000 C 
ATOM     24  C   UNL     1       6.039   4.810  15.880  0.00  0.00    +0.000 C 
ATOM     25  C   UNL     1       6.385   4.264  14.498  0.00  0.00    +0.000 C 
ATOM     26  C   UNL     1       5.370   6.188  15.776  0.00  0.00    +0.000 C 
ATOM     27  C   UNL     1       5.171   6.822  17.157  0.00  0.00    +0.000 C 
ENDBRANCH  20  21
ENDBRANCH  19  20
ENDBRANCH  18  19
ENDBRANCH  17  18
ENDBRANCH   7  17
TORSDOF 6
ENDMDL
MODEL 7
REMARK VINA RESULT:      -6.9      3.397      8.512
REMARK  Name = 
REMARK  8 active torsions:
REMARK  status: ('A' for Active; 'I' for Inactive)
REMARK    1  A    between atoms: C_1  and  S_2
REMARK    2  A    between atoms: S_2  and  C_3
REMARK    3  A    between atoms: N_9  and  C_10
REMARK    4  A    between atoms: C_10  and  C_11
REMARK    5  A    between atoms: C_11  and  C_12
REMARK    6  A    between atoms: C_12  and  C_13
REMARK    7  A    between atoms: C_13  and  N_14
REMARK    8  A    between atoms: C_17  and  C_18
REMARK                            x       y       z     vdW  Elec       q    Type
REMARK                         _______ _______ _______ _____ _____    ______ ____
ROOT
ATOM      1  C   UNL     1      -2.509  10.283  16.382  0.00  0.00    +0.000 A 
ATOM      2  C   UNL     1      -3.296  11.331  16.863  0.00  0.00    +0.000 A 
ATOM      3  C   UNL     1      -3.024  11.900  18.106  0.00  0.00    +0.000 A 
ATOM      4  C   UNL     1      -1.956  11.432  18.877  0.00  0.00    +0.000 A 
ATOM      5  C   UNL     1      -1.098  10.431  18.377  0.00  0.00    +0.000 A 
ATOM      6  C   UNL     1      -1.406   9.854  17.127  0.00  0.00    +0.000 A 
ATOM      7  N   UNL     1       0.005   9.980  19.124  0.00  0.00    +0.000 N 
ATOM      8  C   UNL     1       0.010   9.964  20.539  0.00  0.00    +0.000 A 
ATOM      9  C   UNL     1       0.685   8.949  21.240  0.00  0.00    +0.000 A 
ATOM     10  C   UNL     1       0.597   8.849  22.631  0.00  0.00    +0.000 A 
ATOM     11  C   UNL     1      -0.147   9.779  23.350  0.00  0.00    +0.000 A 
ATOM     12  C   UNL     1      -0.813  10.802  22.677  0.00  0.00    +0.000 A 
ATOM     13  C   UNL     1      -0.759  10.885  21.280  0.00  0.00    +0.000 A 
ATOM     14  S   UNL     1      -1.692  12.181  20.479  0.00  0.00    +0.000 S 
ENDROOT
BRANCH   1  16
ATOM     15  C   UNL     1      -4.264  10.516  14.271  0.00  0.00    +0.000 C 
ATOM     16  S   UNL     1      -2.865   9.498  14.820  0.00  0.00    +0.000 S 
ENDBRANCH   1  16
BRANCH   7  17
ATOM     17  C   UNL     1       1.322   9.890  18.457  0.00  0.00    +0.000 C 
BRANCH  17  18
ATOM     18  C   UNL     1       1.632   8.524  17.814  0.00  0.00    +0.000 C 
BRANCH  18  19
ATOM     19  C   UNL     1       3.082   8.027  17.907  0.00  0.00    +0.000 C 
BRANCH  19  20
ATOM     20  C   UNL     1       3.194   6.502  17.839  0.00  0.00    +0.000 C 
BRANCH  20  21
ATOM     21  N   UNL     1       4.514   5.976  18.223  0.00  0.00    +0.000 NA
ATOM     22  C   UNL     1       5.644   6.556  17.486  0.00  0.00    +0.000 C 
ATOM     23  C   UNL     1       5.668   6.167  16.007  0.00  0.00    +0.000 C 
ATOM     24  C   UNL     1       5.655   4.643  15.836  0.00  0.00    +0.000 C 
ATOM     25  C   UNL     1       5.526   4.268  14.362  0.00  0.00    +0.000 C 
ATOM     26  C   UNL     1       4.532   4.006  16.666  0.00  0.00    +0.000 C 
ATOM     27  C   UNL     1       4.548   4.508  18.113  0.00  0.00    +0.000 C 
ENDBRANCH  20  21
ENDBRANCH  19  20
ENDBRANCH  18  19
ENDBRANCH  17  18
ENDBRANCH   7  17
TORSDOF 6
ENDMDL
MODEL 8
REMARK VINA RESULT:      -6.9      3.665      8.459
REMARK  Name = 
REMARK  8 active torsions:
REMARK  status: ('A' for Active; 'I' for Inactive)
REMARK    1  A    between atoms: C_1  and  S_2
REMARK    2  A    between atoms: S_2  and  C_3
REMARK    3  A    between atoms: N_9  and  C_10
REMARK    4  A    between atoms: C_10  and  C_11
REMARK    5  A    between atoms: C_11  and  C_12
REMARK    6  A    between atoms: C_12  and  C_13
REMARK    7  A    between atoms: C_13  and  N_14
REMARK    8  A    between atoms: C_17  and  C_18
REMARK                            x       y       z     vdW  Elec       q    Type
REMARK                         _______ _______ _______ _____ _____    ______ ____
ROOT
ATOM      1  C   UNL     1       2.721  14.182  18.757  0.00  0.00    +0.000 A 
ATOM      2  C   UNL     1       1.949  15.102  19.468  0.00  0.00    +0.000 A 
ATOM      3  C   UNL     1       0.654  14.773  19.865  0.00  0.00    +0.000 A 
ATOM      4  C   UNL     1       0.121  13.516  19.563  0.00  0.00    +0.000 A 
ATOM      5  C   UNL     1       0.910  12.542  18.917  0.00  0.00    +0.000 A 
ATOM      6  C   UNL     1       2.210  12.905  18.504  0.00  0.00    +0.000 A 
ATOM      7  N   UNL     1       0.401  11.259  18.643  0.00  0.00    +0.000 N 
ATOM      8  C   UNL     1      -0.970  11.024  18.386  0.00  0.00    +0.000 A 
ATOM      9  C   UNL     1      -1.366  10.031  17.473  0.00  0.00    +0.000 A 
ATOM     10  C   UNL     1      -2.708   9.870  17.117  0.00  0.00    +0.000 A 
ATOM     11  C   UNL     1      -3.682  10.683  17.686  0.00  0.00    +0.000 A 
ATOM     12  C   UNL     1      -3.314  11.666  18.603  0.00  0.00    +0.000 A 
ATOM     13  C   UNL     1      -1.967  11.857  18.936  0.00  0.00    +0.000 A 
ATOM     14  S   UNL     1      -1.561  13.179  20.067  0.00  0.00    +0.000 S 
ENDROOT
BRANCH   1  16
ATOM     15  C   UNL     1       4.430  16.340  18.670  0.00  0.00    +0.000 C 
ATOM     16  S   UNL     1       4.361  14.592  18.187  0.00  0.00    +0.000 S 
ENDBRANCH   1  16
BRANCH   7  17
ATOM     17  C   UNL     1       1.216  10.081  19.011  0.00  0.00    +0.000 C 
BRANCH  17  18
ATOM     18  C   UNL     1       2.103   9.527  17.879  0.00  0.00    +0.000 C 
BRANCH  18  19
ATOM     19  C   UNL     1       2.060   8.009  17.645  0.00  0.00    +0.000 C 
BRANCH  19  20
ATOM     20  C   UNL     1       3.216   7.270  18.322  0.00  0.00    +0.000 C 
BRANCH  20  21
ATOM     21  N   UNL     1       3.611   6.022  17.648  0.00  0.00    +0.000 NA
ATOM     22  C   UNL     1       4.024   4.940  18.551  0.00  0.00    +0.000 C 
ATOM     23  C   UNL     1       5.336   5.227  19.282  0.00  0.00    +0.000 C 
ATOM     24  C   UNL     1       6.463   5.544  18.292  0.00  0.00    +0.000 C 
ATOM     25  C   UNL     1       7.726   5.976  19.032  0.00  0.00    +0.000 C 
ATOM     26  C   UNL     1       6.025   6.614  17.283  0.00  0.00    +0.000 C 
ATOM     27  C   UNL     1       4.670   6.273  16.654  0.00  0.00    +0.000 C 
ENDBRANCH  20  21
ENDBRANCH  19  20
ENDBRANCH  18  19
ENDBRANCH  17  18
ENDBRANCH   7  17
TORSDOF 6
ENDMDL
MODEL 9
REMARK VINA RESULT:      -6.8      3.227      8.117
REMARK  Name = 
REMARK  8 active torsions:
REMARK  status: ('A' for Active; 'I' for Inactive)
REMARK    1  A    between atoms: C_1  and  S_2
REMARK    2  A    between atoms: S_2  and  C_3
REMARK    3  A    between atoms: N_9  and  C_10
REMARK    4  A    between atoms: C_10  and  C_11
REMARK    5  A    between atoms: C_11  and  C_12
REMARK    6  A    between atoms: C_12  and  C_13
REMARK    7  A    between atoms: C_13  and  N_14
REMARK    8  A    between atoms: C_17  and  C_18
REMARK                            x       y       z     vdW  Elec       q    Type
REMARK                         _______ _______ _______ _____ _____    ______ ____
ROOT
ATOM      1  C   UNL     1      -2.539  10.231  16.346  0.00  0.00    +0.000 A 
ATOM      2  C   UNL     1      -3.347  11.266  16.820  0.00  0.00    +0.000 A 
ATOM      3  C   UNL     1      -3.091  11.844  18.063  0.00  0.00    +0.000 A 
ATOM      4  C   UNL     1      -2.018  11.398  18.840  0.00  0.00    +0.000 A 
ATOM      5  C   UNL     1      -1.140  10.411  18.347  0.00  0.00    +0.000 A 
ATOM      6  C   UNL     1      -1.432   9.825  17.097  0.00  0.00    +0.000 A 
ATOM      7  N   UNL     1      -0.032   9.983  19.101  0.00  0.00    +0.000 N 
ATOM      8  C   UNL     1      -0.033   9.972  20.515  0.00  0.00    +0.000 A 
ATOM      9  C   UNL     1       0.657   8.971  21.223  0.00  0.00    +0.000 A 
ATOM     10  C   UNL     1       0.565   8.874  22.613  0.00  0.00    +0.000 A 
ATOM     11  C   UNL     1      -0.200   9.793  23.326  0.00  0.00    +0.000 A 
ATOM     12  C   UNL     1      -0.881  10.802  22.647  0.00  0.00    +0.000 A 
ATOM     13  C   UNL     1      -0.822  10.881  21.250  0.00  0.00    +0.000 A 
ATOM     14  S   UNL     1      -1.775  12.158  20.441  0.00  0.00    +0.000 S 
ENDROOT
BRANCH   1  16
ATOM     15  C   UNL     1      -4.319  10.393  14.250  0.00  0.00    +0.000 C 
ATOM     16  S   UNL     1      -2.873   9.435  14.785  0.00  0.00    +0.000 S 
ENDBRANCH   1  16
BRANCH   7  17
ATOM     17  C   UNL     1       1.289   9.914  18.439  0.00  0.00    +0.000 C 
BRANCH  17  18
ATOM     18  C   UNL     1       1.663   8.530  17.877  0.00  0.00    +0.000 C 
BRANCH  18  19
ATOM     19  C   UNL     1       3.137   8.110  17.987  0.00  0.00    +0.000 C 
BRANCH  19  20
ATOM     20  C   UNL     1       3.407   6.725  17.397  0.00  0.00    +0.000 C 
BRANCH  20  21
ATOM     21  N   UNL     1       4.119   5.811  18.305  0.00  0.00    +0.000 NA
ATOM     22  C   UNL     1       4.373   4.473  17.755  0.00  0.00    +0.000 C 
ATOM     23  C   UNL     1       3.102   3.647  17.554  0.00  0.00    +0.000 C 
ATOM     24  C   UNL     1       2.302   3.536  18.858  0.00  0.00    +0.000 C 
ATOM     25  C   UNL     1       0.965   2.843  18.613  0.00  0.00    +0.000 C 
ATOM     26  C   UNL     1       2.096   4.917  19.497  0.00  0.00    +0.000 C 
ATOM     27  C   UNL     1       3.414   5.694  19.593  0.00  0.00    +0.000 C 
ENDBRANCH  20  21
ENDBRANCH  19  20
ENDBRANCH  18  19
ENDBRANCH  17  18
ENDBRANCH   7  17
TORSDOF 6
ENDMDL
