MODEL 1
REMARK VINA RESULT:      -7.1      0.000      0.000
REMARK  Name = 
REMARK  6 active torsions:
REMARK  status: ('A' for Active; 'I' for Inactive)
REMARK    1  A    between atoms: C_1  and  C_2
REMARK    2  A    between atoms: C_6  and  C_7
REMARK    3  A    between atoms: C_7  and  N_8
REMARK    4  A    between atoms: C_11  and  N_12
REMARK    5  A    between atoms: C_16  and  C_17
REMARK    6  A    between atoms: C_17  and  O_18
REMARK                            x       y       z     vdW  Elec       q    Type
REMARK                         _______ _______ _______ _____ _____    ______ ____
ROOT
ATOM      1  N   UNL     1       3.147   6.428  17.963  0.00  0.00    +0.000 N 
ATOM      2  C   UNL     1       2.445   7.328  18.774  0.00  0.00    +0.000 A 
ATOM      3  C   UNL     1       2.053   8.530  18.209  0.00  0.00    +0.000 A 
ATOM      4  C   UNL     1       1.375   9.437  18.999  0.00  0.00    +0.000 A 
ATOM      5  N   UNL     1       1.041   9.105  20.256  0.00  0.00    +0.000 NA
ATOM      6  C   UNL     1       1.457   7.918  20.720  0.00  0.00    +0.000 A 
ATOM      7  N   UNL     1       2.162   7.012  20.041  0.00  0.00    +0.000 NA
ATOM      8  H   UNL     1       2.505   6.023  17.283  0.00  0.00    +0.000 HD
ENDROOT
BRANCH   4   9
ATOM      9  N   UNL     1       0.929  10.648  18.498  0.00  0.00    +0.000 N 
ATOM     10  C   UNL     1       1.813  11.813  18.449  0.00  0.00    +0.000 C 
ATOM     11  C   UNL     1       1.013  12.927  19.112  0.00  0.00    +0.000 C 
ATOM     12  C   UNL     1      -0.426  12.597  18.758  0.00  0.00    +0.000 C 
ATOM     13  C   UNL     1      -0.474  11.061  18.733  0.00  0.00    +0.000 C 
BRANCH  13  14
ATOM     14  C   UNL     1      -1.374  10.578  17.577  0.00  0.00    +0.000 C 
BRANCH  14  15
ATOM     15  O   UNL     1      -1.896  11.647  16.793  0.00  0.00    +0.000 OA
ATOM     16  H   UNL     1      -2.522  11.229  16.169  0.00  0.00    +0.000 HD
ENDBRANCH  14  15
ENDBRANCH  13  14
ENDBRANCH   4   9
BRANCH   1  17
ATOM     17  C   UNL     1       3.880   5.385  18.681  0.00  0.00    +0.000 C 
BRANCH  17  23
ATOM     18  C   UNL     1       6.272   4.161  14.590  0.00  0.00    +0.000 C 
ATOM     19  C   UNL     1       6.307   4.547  16.034  0.00  0.00    +0.000 A 
ATOM     20  N   UNL     1       7.517   4.627  16.627  0.00  0.00    +0.000 NA
ATOM     21  C   UNL     1       7.518   4.969  17.931  0.00  0.00    +0.000 A 
ATOM     22  C   UNL     1       6.380   5.220  18.650  0.00  0.00    +0.000 A 
ATOM     23  C   UNL     1       5.186   5.122  17.957  0.00  0.00    +0.000 A 
ATOM     24  N   UNL     1       5.131   4.783  16.651  0.00  0.00    +0.000 NA
ENDBRANCH  17  23
ENDBRANCH   1  17
TORSDOF 5
ENDMDL
MODEL 2
REMARK VINA RESULT:      -7.1      4.978      8.361
REMARK  Name = 
REMARK  6 active torsions:
REMARK  status: ('A' for Active; 'I' for Inactive)
REMARK    1  A    between atoms: C_1  and  C_2
REMARK    2  A    between atoms: C_6  and  C_7
REMARK    3  A    between atoms: C_7  and  N_8
REMARK    4  A    between atoms: C_11  and  N_12
REMARK    5  A    between atoms: C_16  and  C_17
REMARK    6  A    between atoms: C_17  and  O_18
REMARK                            x       y       z     vdW  Elec       q    Type
REMARK                         _______ _______ _______ _____ _____    ______ ____
ROOT
ATOM      1  N   UNL     1       4.004   6.117  17.620  0.00  0.00    +0.000 N 
ATOM      2  C   UNL     1       5.099   5.490  17.012  0.00  0.00    +0.000 A 
ATOM      3  C   UNL     1       5.079   5.360  15.633  0.00  0.00    +0.000 A 
ATOM      4  C   UNL     1       6.141   4.730  15.017  0.00  0.00    +0.000 A 
ATOM      5  N   UNL     1       7.196   4.337  15.748  0.00  0.00    +0.000 NA
ATOM      6  C   UNL     1       7.134   4.507  17.076  0.00  0.00    +0.000 A 
ATOM      7  N   UNL     1       6.122   5.055  17.752  0.00  0.00    +0.000 NA
ATOM      8  H   UNL     1       4.037   7.115  17.417  0.00  0.00    +0.000 HD
ENDROOT
BRANCH   4   9
ATOM      9  N   UNL     1       6.203   4.584  13.642  0.00  0.00    +0.000 N 
ATOM     10  C   UNL     1       5.156   3.870  12.912  0.00  0.00    +0.000 C 
ATOM     11  C   UNL     1       5.909   2.861  12.054  0.00  0.00    +0.000 C 
ATOM     12  C   UNL     1       7.216   3.565  11.734  0.00  0.00    +0.000 C 
ATOM     13  C   UNL     1       7.520   4.400  12.988  0.00  0.00    +0.000 C 
BRANCH  13  14
ATOM     14  C   UNL     1       8.112   5.765  12.583  0.00  0.00    +0.000 C 
BRANCH  14  15
ATOM     15  O   UNL     1       9.251   6.131  13.356  0.00  0.00    +0.000 OA
ATOM     16  H   UNL     1       9.391   7.083  13.180  0.00  0.00    +0.000 HD
ENDBRANCH  14  15
ENDBRANCH  13  14
ENDBRANCH   4   9
BRANCH   1  17
ATOM     17  C   UNL     1       3.870   5.876  19.057  0.00  0.00    +0.000 C 
BRANCH  17  23
ATOM     18  C   UNL     1       1.712   2.600  21.984  0.00  0.00    +0.000 C 
ATOM     19  C   UNL     1       1.797   3.277  20.653  0.00  0.00    +0.000 A 
ATOM     20  N   UNL     1       0.922   2.891  19.701  0.00  0.00    +0.000 NA
ATOM     21  C   UNL     1       1.027   3.512  18.510  0.00  0.00    +0.000 A 
ATOM     22  C   UNL     1       1.959   4.478  18.238  0.00  0.00    +0.000 A 
ATOM     23  C   UNL     1       2.809   4.816  19.276  0.00  0.00    +0.000 A 
ATOM     24  N   UNL     1       2.745   4.223  20.488  0.00  0.00    +0.000 NA
ENDBRANCH  17  23
ENDBRANCH   1  17
TORSDOF 5
ENDMDL
MODEL 3
REMARK VINA RESULT:      -7.0      2.955      8.028
REMARK  Name = 
REMARK  6 active torsions:
REMARK  status: ('A' for Active; 'I' for Inactive)
REMARK    1  A    between atoms: C_1  and  C_2
REMARK    2  A    between atoms: C_6  and  C_7
REMARK    3  A    between atoms: C_7  and  N_8
REMARK    4  A    between atoms: C_11  and  N_12
REMARK    5  A    between atoms: C_16  and  C_17
REMARK    6  A    between atoms: C_17  and  O_18
REMARK                            x       y       z     vdW  Elec       q    Type
REMARK                         _______ _______ _______ _____ _____    ______ ____
ROOT
ATOM      1  N   UNL     1       1.947   9.225  17.792  0.00  0.00    +0.000 N 
ATOM      2  C   UNL     1       2.590   8.030  18.140  0.00  0.00    +0.000 A 
ATOM      3  C   UNL     1       3.699   7.657  17.398  0.00  0.00    +0.000 A 
ATOM      4  C   UNL     1       4.334   6.474  17.715  0.00  0.00    +0.000 A 
ATOM      5  N   UNL     1       3.922   5.760  18.774  0.00  0.00    +0.000 NA
ATOM      6  C   UNL     1       2.843   6.197  19.440  0.00  0.00    +0.000 A 
ATOM      7  N   UNL     1       2.141   7.297  19.163  0.00  0.00    +0.000 NA
ATOM      8  H   UNL     1       2.533  10.010  18.072  0.00  0.00    +0.000 HD
ENDROOT
BRANCH   4   9
ATOM      9  N   UNL     1       5.463   6.049  17.035  0.00  0.00    +0.000 N 
ATOM     10  C   UNL     1       5.524   6.098  15.575  0.00  0.00    +0.000 C 
ATOM     11  C   UNL     1       5.967   4.699  15.164  0.00  0.00    +0.000 C 
ATOM     12  C   UNL     1       6.861   4.254  16.308  0.00  0.00    +0.000 C 
ATOM     13  C   UNL     1       6.236   4.898  17.557  0.00  0.00    +0.000 C 
BRANCH  13  14
ATOM     14  C   UNL     1       7.345   5.388  18.510  0.00  0.00    +0.000 C 
BRANCH  14  15
ATOM     15  O   UNL     1       6.940   5.404  19.876  0.00  0.00    +0.000 OA
ATOM     16  H   UNL     1       7.450   6.128  20.290  0.00  0.00    +0.000 HD
ENDBRANCH  14  15
ENDBRANCH  13  14
ENDBRANCH   4   9
BRANCH   1  17
ATOM     17  C   UNL     1       0.586   9.372  18.309  0.00  0.00    +0.000 C 
BRANCH  17  23
ATOM     18  C   UNL     1      -0.660  10.377  22.934  0.00  0.00    +0.000 C 
ATOM     19  C   UNL     1       0.030  10.782  21.671  0.00  0.00    +0.000 A 
ATOM     20  N   UNL     1       0.639  11.986  21.653  0.00  0.00    +0.000 NA
ATOM     21  C   UNL     1       1.246  12.328  20.499  0.00  0.00    +0.000 A 
ATOM     22  C   UNL     1       1.260  11.532  19.385  0.00  0.00    +0.000 A 
ATOM     23  C   UNL     1       0.617  10.312  19.498  0.00  0.00    +0.000 A 
ATOM     24  N   UNL     1      -0.006   9.922  20.631  0.00  0.00    +0.000 NA
ENDBRANCH  17  23
ENDBRANCH   1  17
TORSDOF 5
ENDMDL
MODEL 4
REMARK VINA RESULT:      -6.9      3.375      4.424
REMARK  Name = 
REMARK  6 active torsions:
REMARK  status: ('A' for Active; 'I' for Inactive)
REMARK    1  A    between atoms: C_1  and  C_2
REMARK    2  A    between atoms: C_6  and  C_7
REMARK    3  A    between atoms: C_7  and  N_8
REMARK    4  A    between atoms: C_11  and  N_12
REMARK    5  A    between atoms: C_16  and  C_17
REMARK    6  A    between atoms: C_17  and  O_18
REMARK                            x       y       z     vdW  Elec       q    Type
REMARK                         _______ _______ _______ _____ _____    ______ ____
ROOT
ATOM      1  N   UNL     1       2.559   7.022  20.001  0.00  0.00    +0.000 N 
ATOM      2  C   UNL     1       1.912   8.151  19.483  0.00  0.00    +0.000 A 
ATOM      3  C   UNL     1       0.998   8.798  20.299  0.00  0.00    +0.000 A 
ATOM      4  C   UNL     1       0.338   9.902  19.800  0.00  0.00    +0.000 A 
ATOM      5  N   UNL     1       0.652  10.370  18.581  0.00  0.00    +0.000 NA
ATOM      6  C   UNL     1       1.551   9.685  17.862  0.00  0.00    +0.000 A 
ATOM      7  N   UNL     1       2.191   8.580  18.249  0.00  0.00    +0.000 NA
ATOM      8  H   UNL     1       3.234   7.320  20.704  0.00  0.00    +0.000 HD
ENDROOT
BRANCH   4   9
ATOM      9  N   UNL     1      -0.570  10.615  20.564  0.00  0.00    +0.000 N 
ATOM     10  C   UNL     1      -1.489  11.570  19.944  0.00  0.00    +0.000 C 
ATOM     11  C   UNL     1      -1.316  12.847  20.756  0.00  0.00    +0.000 C 
ATOM     12  C   UNL     1      -0.997  12.345  22.153  0.00  0.00    +0.000 C 
ATOM     13  C   UNL     1      -0.187  11.059  21.924  0.00  0.00    +0.000 C 
BRANCH  13  14
ATOM     14  C   UNL     1      -0.583   9.992  22.966  0.00  0.00    +0.000 C 
BRANCH  14  15
ATOM     15  O   UNL     1       0.481   9.655  23.851  0.00  0.00    +0.000 OA
ATOM     16  H   UNL     1       0.152   9.871  24.746  0.00  0.00    +0.000 HD
ENDBRANCH  14  15
ENDBRANCH  13  14
ENDBRANCH   4   9
BRANCH   1  17
ATOM     17  C   UNL     1       3.185   6.153  19.005  0.00  0.00    +0.000 C 
BRANCH  17  23
ATOM     18  C   UNL     1       1.534   2.454  21.752  0.00  0.00    +0.000 C 
ATOM     19  C   UNL     1       1.791   3.037  20.399  0.00  0.00    +0.000 A 
ATOM     20  N   UNL     1       1.468   2.284  19.326  0.00  0.00    +0.000 NA
ATOM     21  C   UNL     1       1.719   2.830  18.120  0.00  0.00    +0.000 A 
ATOM     22  C   UNL     1       2.276   4.070  17.950  0.00  0.00    +0.000 A 
ATOM     23  C   UNL     1       2.567   4.772  19.106  0.00  0.00    +0.000 A 
ATOM     24  N   UNL     1       2.335   4.270  20.338  0.00  0.00    +0.000 NA
ENDBRANCH  17  23
ENDBRANCH   1  17
TORSDOF 5
ENDMDL
MODEL 5
REMARK VINA RESULT:      -6.9      3.314      4.242
REMARK  Name = 
REMARK  6 active torsions:
REMARK  status: ('A' for Active; 'I' for Inactive)
REMARK    1  A    between atoms: C_1  and  C_2
REMARK    2  A    between atoms: C_6  and  C_7
REMARK    3  A    between atoms: C_7  and  N_8
REMARK    4  A    between atoms: C_11  and  N_12
REMARK    5  A    between atoms: C_16  and  C_17
REMARK    6  A    between atoms: C_17  and  O_18
REMARK                            x       y       z     vdW  Elec       q    Type
REMARK                         _______ _______ _______ _____ _____    ______ ____
ROOT
ATOM      1  N   UNL     1       2.229   7.179  20.277  0.00  0.00    +0.000 N 
ATOM      2  C   UNL     1       1.663   8.346  19.750  0.00  0.00    +0.000 A 
ATOM      3  C   UNL     1       0.731   9.016  20.527  0.00  0.00    +0.000 A 
ATOM      4  C   UNL     1       0.150  10.159  20.016  0.00  0.00    +0.000 A 
ATOM      5  N   UNL     1       0.554  10.637  18.828  0.00  0.00    +0.000 NA
ATOM      6  C   UNL     1       1.463   9.928  18.146  0.00  0.00    +0.000 A 
ATOM      7  N   UNL     1       2.031   8.788  18.544  0.00  0.00    +0.000 NA
ATOM      8  H   UNL     1       2.874   7.432  21.025  0.00  0.00    +0.000 HD
ENDROOT
BRANCH   4   9
ATOM      9  N   UNL     1      -0.770  10.896  20.743  0.00  0.00    +0.000 N 
ATOM     10  C   UNL     1      -1.660  11.849  20.082  0.00  0.00    +0.000 C 
ATOM     11  C   UNL     1      -1.494  13.139  20.876  0.00  0.00    +0.000 C 
ATOM     12  C   UNL     1      -1.218  12.659  22.290  0.00  0.00    +0.000 C 
ATOM     13  C   UNL     1      -0.418  11.359  22.105  0.00  0.00    +0.000 C 
BRANCH  13  14
ATOM     14  C   UNL     1      -0.853  10.316  23.154  0.00  0.00    +0.000 C 
BRANCH  14  15
ATOM     15  O   UNL     1       0.245   9.728  23.846  0.00  0.00    +0.000 OA
ATOM     16  H   UNL     1       0.437   8.896  23.369  0.00  0.00    +0.000 HD
ENDBRANCH  14  15
ENDBRANCH  13  14
ENDBRANCH   4   9
BRANCH   1  17
ATOM     17  C   UNL     1       2.874   6.304  19.298  0.00  0.00    +0.000 C 
BRANCH  17  23
ATOM     18  C   UNL     1       3.415   1.510  18.470  0.00  0.00    +0.000 C 
ATOM     19  C   UNL     1       2.719   2.621  19.189  0.00  0.00    +0.000 A 
ATOM     20  N   UNL     1       1.737   2.284  20.052  0.00  0.00    +0.000 NA
ATOM     21  C   UNL     1       1.121   3.305  20.679  0.00  0.00    +0.000 A 
ATOM     22  C   UNL     1       1.437   4.622  20.476  0.00  0.00    +0.000 A 
ATOM     23  C   UNL     1       2.462   4.872  19.581  0.00  0.00    +0.000 A 
ATOM     24  N   UNL     1       3.111   3.885  18.926  0.00  0.00    +0.000 NA
ENDBRANCH  17  23
ENDBRANCH   1  17
TORSDOF 5
ENDMDL
MODEL 6
REMARK VINA RESULT:      -6.9      4.912      8.207
REMARK  Name = 
REMARK  6 active torsions:
REMARK  status: ('A' for Active; 'I' for Inactive)
REMARK    1  A    between atoms: C_1  and  C_2
REMARK    2  A    between atoms: C_6  and  C_7
REMARK    3  A    between atoms: C_7  and  N_8
REMARK    4  A    between atoms: C_11  and  N_12
REMARK    5  A    between atoms: C_16  and  C_17
REMARK    6  A    between atoms: C_17  and  O_18
REMARK                            x       y       z     vdW  Elec       q    Type
REMARK                         _______ _______ _______ _____ _____    ______ ____
ROOT
ATOM      1  N   UNL     1       4.223   6.185  17.731  0.00  0.00    +0.000 N 
ATOM      2  C   UNL     1       5.289   5.562  17.070  0.00  0.00    +0.000 A 
ATOM      3  C   UNL     1       5.187   5.400  15.698  0.00  0.00    +0.000 A 
ATOM      4  C   UNL     1       6.220   4.772  15.032  0.00  0.00    +0.000 A 
ATOM      5  N   UNL     1       7.324   4.411  15.706  0.00  0.00    +0.000 NA
ATOM      6  C   UNL     1       7.339   4.609  17.031  0.00  0.00    +0.000 A 
ATOM      7  N   UNL     1       6.362   5.157  17.755  0.00  0.00    +0.000 NA
ATOM      8  H   UNL     1       4.228   7.179  17.505  0.00  0.00    +0.000 HD
ENDROOT
BRANCH   4   9
ATOM      9  N   UNL     1       6.202   4.597  13.659  0.00  0.00    +0.000 N 
ATOM     10  C   UNL     1       5.079   3.930  13.001  0.00  0.00    +0.000 C 
ATOM     11  C   UNL     1       5.727   2.864  12.127  0.00  0.00    +0.000 C 
ATOM     12  C   UNL     1       7.053   3.485  11.724  0.00  0.00    +0.000 C 
ATOM     13  C   UNL     1       7.469   4.325  12.943  0.00  0.00    +0.000 C 
BRANCH  13  14
ATOM     14  C   UNL     1       8.115   5.646  12.478  0.00  0.00    +0.000 C 
BRANCH  14  15
ATOM     15  O   UNL     1       9.087   6.145  13.392  0.00  0.00    +0.000 OA
ATOM     16  H   UNL     1       8.580   6.631  14.071  0.00  0.00    +0.000 HD
ENDBRANCH  14  15
ENDBRANCH  13  14
ENDBRANCH   4   9
BRANCH   1  17
ATOM     17  C   UNL     1       4.181   5.975  19.178  0.00  0.00    +0.000 C 
BRANCH  17  23
ATOM     18  C   UNL     1       1.913   1.694  18.478  0.00  0.00    +0.000 C 
ATOM     19  C   UNL     1       1.975   3.019  19.168  0.00  0.00    +0.000 A 
ATOM     20  N   UNL     1       0.988   3.314  20.040  0.00  0.00    +0.000 NA
ATOM     21  C   UNL     1       1.064   4.518  20.640  0.00  0.00    +0.000 A 
ATOM     22  C   UNL     1       2.065   5.422  20.401  0.00  0.00    +0.000 A 
ATOM     23  C   UNL     1       3.038   5.031  19.499  0.00  0.00    +0.000 A 
ATOM     24  N   UNL     1       3.007   3.836  18.870  0.00  0.00    +0.000 NA
ENDBRANCH  17  23
ENDBRANCH   1  17
TORSDOF 5
ENDMDL
MODEL 7
REMARK VINA RESULT:      -6.9      2.115      3.223
REMARK  Name = 
REMARK  6 active torsions:
REMARK  status: ('A' for Active; 'I' for Inactive)
REMARK    1  A    between atoms: C_1  and  C_2
REMARK    2  A    between atoms: C_6  and  C_7
REMARK    3  A    between atoms: C_7  and  N_8
REMARK    4  A    between atoms: C_11  and  N_12
REMARK    5  A    between atoms: C_16  and  C_17
REMARK    6  A    between atoms: C_17  and  O_18
REMARK                            x       y       z     vdW  Elec       q    Type
REMARK                         _______ _______ _______ _____ _____    ______ ____
ROOT
ATOM      1  N   UNL     1       3.017   6.769  17.946  0.00  0.00    +0.000 N 
ATOM      2  C   UNL     1       2.320   7.639  18.793  0.00  0.00    +0.000 A 
ATOM      3  C   UNL     1       1.792   8.793  18.236  0.00  0.00    +0.000 A 
ATOM      4  C   UNL     1       1.116   9.670  19.060  0.00  0.00    +0.000 A 
ATOM      5  N   UNL     1       0.916   9.352  20.349  0.00  0.00    +0.000 NA
ATOM      6  C   UNL     1       1.458   8.214  20.803  0.00  0.00    +0.000 A 
ATOM      7  N   UNL     1       2.169   7.342  20.087  0.00  0.00    +0.000 NA
ATOM      8  H   UNL     1       2.352   6.299  17.334  0.00  0.00    +0.000 HD
ENDROOT
BRANCH   4   9
ATOM      9  N   UNL     1       0.540  10.830  18.572  0.00  0.00    +0.000 N 
ATOM     10  C   UNL     1       1.248  12.108  18.640  0.00  0.00    +0.000 C 
ATOM     11  C   UNL     1       0.248  13.064  19.277  0.00  0.00    +0.000 C 
ATOM     12  C   UNL     1      -1.098  12.554  18.793  0.00  0.00    +0.000 C 
ATOM     13  C   UNL     1      -0.922  11.029  18.706  0.00  0.00    +0.000 C 
BRANCH  13  14
ATOM     14  C   UNL     1      -1.652  10.483  17.462  0.00  0.00    +0.000 C 
BRANCH  14  15
ATOM     15  O   UNL     1      -2.044  11.505  16.551  0.00  0.00    +0.000 OA
ATOM     16  H   UNL     1      -2.587  12.127  17.075  0.00  0.00    +0.000 HD
ENDBRANCH  14  15
ENDBRANCH  13  14
ENDBRANCH   4   9
BRANCH   1  17
ATOM     17  C   UNL     1       3.885   5.805  18.622  0.00  0.00    +0.000 C 
BRANCH  17  23
ATOM     18  C   UNL     1       1.651   2.508  21.468  0.00  0.00    +0.000 C 
ATOM     19  C   UNL     1       2.085   2.948  20.106  0.00  0.00    +0.000 A 
ATOM     20  N   UNL     1       1.796   2.136  19.068  0.00  0.00    +0.000 NA
ATOM     21  C   UNL     1       2.207   2.553  17.854  0.00  0.00    +0.000 A 
ATOM     22  C   UNL     1       2.889   3.722  17.646  0.00  0.00    +0.000 A 
ATOM     23  C   UNL     1       3.134   4.495  18.767  0.00  0.00    +0.000 A 
ATOM     24  N   UNL     1       2.744   4.121  20.005  0.00  0.00    +0.000 NA
ENDBRANCH  17  23
ENDBRANCH   1  17
TORSDOF 5
ENDMDL
MODEL 8
REMARK VINA RESULT:      -6.8      3.041      4.301
REMARK  Name = 
REMARK  6 active torsions:
REMARK  status: ('A' for Active; 'I' for Inactive)
REMARK    1  A    between atoms: C_1  and  C_2
REMARK    2  A    between atoms: C_6  and  C_7
REMARK    3  A    between atoms: C_7  and  N_8
REMARK    4  A    between atoms: C_11  and  N_12
REMARK    5  A    between atoms: C_16  and  C_17
REMARK    6  A    between atoms: C_17  and  O_18
REMARK                            x       y       z     vdW  Elec       q    Type
REMARK                         _______ _______ _______ _____ _____    ______ ____
ROOT
ATOM      1  N   UNL     1       2.854   6.729  19.265  0.00  0.00    +0.000 N 
ATOM      2  C   UNL     1       2.095   7.903  19.184  0.00  0.00    +0.000 A 
ATOM      3  C   UNL     1       1.733   8.517  20.372  0.00  0.00    +0.000 A 
ATOM      4  C   UNL     1       0.970   9.665  20.312  0.00  0.00    +0.000 A 
ATOM      5  N   UNL     1       0.669  10.203  19.119  0.00  0.00    +0.000 NA
ATOM      6  C   UNL     1       1.064   9.545  18.020  0.00  0.00    +0.000 A 
ATOM      7  N   UNL     1       1.754   8.403  17.993  0.00  0.00    +0.000 NA
ATOM      8  H   UNL     1       3.802   6.966  19.556  0.00  0.00    +0.000 HD
ENDROOT
BRANCH   4   9
ATOM      9  N   UNL     1       0.591  10.348  21.455  0.00  0.00    +0.000 N 
ATOM     10  C   UNL     1       0.409   9.647  22.725  0.00  0.00    +0.000 C 
ATOM     11  C   UNL     1      -0.968  10.086  23.209  0.00  0.00    +0.000 C 
ATOM     12  C   UNL     1      -1.098  11.505  22.685  0.00  0.00    +0.000 C 
ATOM     13  C   UNL     1      -0.346  11.490  21.344  0.00  0.00    +0.000 C 
BRANCH  13  14
ATOM     14  C   UNL     1       0.435  12.807  21.160  0.00  0.00    +0.000 C 
BRANCH  14  15
ATOM     15  O   UNL     1       1.841  12.611  21.047  0.00  0.00    +0.000 OA
ATOM     16  H   UNL     1       2.159  13.337  20.474  0.00  0.00    +0.000 HD
ENDBRANCH  14  15
ENDBRANCH  13  14
ENDBRANCH   4   9
BRANCH   1  17
ATOM     17  C   UNL     1       2.866   5.911  18.052  0.00  0.00    +0.000 C 
BRANCH  17  23
ATOM     18  C   UNL     1       1.366   2.664  21.393  0.00  0.00    +0.000 C 
ATOM     19  C   UNL     1       1.807   2.961  19.995  0.00  0.00    +0.000 A 
ATOM     20  N   UNL     1       1.881   1.926  19.132  0.00  0.00    +0.000 NA
ATOM     21  C   UNL     1       2.289   2.222  17.882  0.00  0.00    +0.000 A 
ATOM     22  C   UNL     1       2.626   3.485  17.474  0.00  0.00    +0.000 A 
ATOM     23  C   UNL     1       2.512   4.484  18.424  0.00  0.00    +0.000 A 
ATOM     24  N   UNL     1       2.108   4.241  19.689  0.00  0.00    +0.000 NA
ENDBRANCH  17  23
ENDBRANCH   1  17
TORSDOF 5
ENDMDL
MODEL 9
REMARK VINA RESULT:      -6.8      1.866      2.931
REMARK  Name = 
REMARK  6 active torsions:
REMARK  status: ('A' for Active; 'I' for Inactive)
REMARK    1  A    between atoms: C_1  and  C_2
REMARK    2  A    between atoms: C_6  and  C_7
REMARK    3  A    between atoms: C_7  and  N_8
REMARK    4  A    between atoms: C_11  and  N_12
REMARK    5  A    between atoms: C_16  and  C_17
REMARK    6  A    between atoms: C_17  and  O_18
REMARK                            x       y       z     vdW  Elec       q    Type
REMARK                         _______ _______ _______ _____ _____    ______ ____
ROOT
ATOM      1  N   UNL     1       2.896   5.989  19.337  0.00  0.00    +0.000 N 
ATOM      2  C   UNL     1       2.312   7.251  19.173  0.00  0.00    +0.000 A 
ATOM      3  C   UNL     1       1.891   7.917  20.313  0.00  0.00    +0.000 A 
ATOM      4  C   UNL     1       1.298   9.155  20.170  0.00  0.00    +0.000 A 
ATOM      5  N   UNL     1       1.217   9.717  18.953  0.00  0.00    +0.000 NA
ATOM      6  C   UNL     1       1.653   9.004  17.905  0.00  0.00    +0.000 A 
ATOM      7  N   UNL     1       2.187   7.782  17.954  0.00  0.00    +0.000 NA
ATOM      8  H   UNL     1       3.823   6.103  19.743  0.00  0.00    +0.000 HD
ENDROOT
BRANCH   4   9
ATOM      9  N   UNL     1       0.875   9.891  21.263  0.00  0.00    +0.000 N 
ATOM     10  C   UNL     1       0.819   9.293  22.597  0.00  0.00    +0.000 C 
ATOM     11  C   UNL     1      -0.584   9.609  23.098  0.00  0.00    +0.000 C 
ATOM     12  C   UNL     1      -0.903  10.948  22.457  0.00  0.00    +0.000 C 
ATOM     13  C   UNL     1      -0.197  10.898  21.092  0.00  0.00    +0.000 C 
BRANCH  13  14
ATOM     14  C   UNL     1       0.412  12.276  20.761  0.00  0.00    +0.000 C 
BRANCH  14  15
ATOM     15  O   UNL     1       0.410  12.567  19.366  0.00  0.00    +0.000 OA
ATOM     16  H   UNL     1       0.577  11.712  18.922  0.00  0.00    +0.000 HD
ENDBRANCH  14  15
ENDBRANCH  13  14
ENDBRANCH   4   9
BRANCH   1  17
ATOM     17  C   UNL     1       2.948   5.167  18.128  0.00  0.00    +0.000 C 
BRANCH  17  23
ATOM     18  C   UNL     1       7.706   5.703  19.146  0.00  0.00    +0.000 C 
ATOM     19  C   UNL     1       6.634   5.209  18.227  0.00  0.00    +0.000 A 
ATOM     20  N   UNL     1       7.024   4.607  17.083  0.00  0.00    +0.000 NA
ATOM     21  C   UNL     1       6.038   4.180  16.270  0.00  0.00    +0.000 A 
ATOM     22  C   UNL     1       4.706   4.335  16.548  0.00  0.00    +0.000 A 
ATOM     23  C   UNL     1       4.400   4.956  17.746  0.00  0.00    +0.000 A 
ATOM     24  N   UNL     1       5.351   5.402  18.595  0.00  0.00    +0.000 NA
ENDBRANCH  17  23
ENDBRANCH   1  17
TORSDOF 5
ENDMDL
