MODEL 1
REMARK VINA RESULT:      -6.6      0.000      0.000
REMARK  Name = 
REMARK  6 active torsions:
REMARK  status: ('A' for Active; 'I' for Inactive)
REMARK    1  A    between atoms: C_1  and  O_2
REMARK    2  A    between atoms: O_2  and  C_3
REMARK    3  A    between atoms: C_8  and  C_9
REMARK    4  A    between atoms: C_12  and  C_13
REMARK    5  A    between atoms: C_13  and  N_14
REMARK    6  A    between atoms: N_19  and  C_20
REMARK                            x       y       z     vdW  Elec       q    Type
REMARK                         _______ _______ _______ _____ _____    ______ ____
ROOT
ATOM      1  C   UNL     1       2.641   6.962  18.549  0.00  0.00    +0.000 A 
ATOM      2  N   UNL     1       2.821   7.567  17.394  0.00  0.00    +0.000 NA
ATOM      3  N   UNL     1       2.339   8.847  17.495  0.00  0.00    +0.000 NA
ATOM      4  C   UNL     1       1.867   9.021  18.713  0.00  0.00    +0.000 A 
ATOM      5  N   UNL     1       1.972   7.827  19.391  0.00  0.00    +0.000 N 
ATOM      6  C   UNL     1       1.481   7.520  20.711  0.00  0.00    +0.000 C 
ENDROOT
BRANCH   1  12
ATOM      7  C   UNL     1       6.589   4.404  16.615  0.00  0.00    +0.000 C 
ATOM      8  O   UNL     1       7.729   4.606  17.007  0.00  0.00    +0.000 OA
ATOM      9  N   UNL     1       5.449   4.754  17.340  0.00  0.00    +0.000 N 
ATOM     10  C   UNL     1       5.643   5.653  18.468  0.00  0.00    +0.000 C 
ATOM     11  C   UNL     1       4.527   5.579  19.505  0.00  0.00    +0.000 C 
ATOM     12  C   UNL     1       3.109   5.580  18.917  0.00  0.00    +0.000 C 
ATOM     13  C   UNL     1       3.016   4.590  17.751  0.00  0.00    +0.000 C 
ATOM     14  C   UNL     1       4.129   4.757  16.720  0.00  0.00    +0.000 C 
BRANCH   7  16
ATOM     15  C   UNL     1       6.745   4.569  14.280  0.00  0.00    +0.000 C 
ATOM     16  O   UNL     1       6.309   3.818  15.417  0.00  0.00    +0.000 OA
ENDBRANCH   7  16
ENDBRANCH   1  12
BRANCH   4  17
ATOM     17  C   UNL     1       1.305  10.294  19.247  0.00  0.00    +0.000 C 
BRANCH  17  18
ATOM     18  N   UNL     1       0.026  10.607  18.618  0.00  0.00    +0.000 N 
ATOM     19  C   UNL     1      -0.807   9.742  17.966  0.00  0.00    +0.000 A 
ATOM     20  C   UNL     1      -1.842  10.502  17.475  0.00  0.00    +0.000 A 
ATOM     21  C   UNL     1      -1.576  11.804  17.931  0.00  0.00    +0.000 A 
ATOM     22  N   UNL     1      -0.455  11.872  18.653  0.00  0.00    +0.000 NA
ENDBRANCH  17  18
ENDBRANCH   4  17
TORSDOF 4
ENDMDL
MODEL 2
REMARK VINA RESULT:      -6.5      1.164      1.322
REMARK  Name = 
REMARK  6 active torsions:
REMARK  status: ('A' for Active; 'I' for Inactive)
REMARK    1  A    between atoms: C_1  and  O_2
REMARK    2  A    between atoms: O_2  and  C_3
REMARK    3  A    between atoms: C_8  and  C_9
REMARK    4  A    between atoms: C_12  and  C_13
REMARK    5  A    between atoms: C_13  and  N_14
REMARK    6  A    between atoms: N_19  and  C_20
REMARK                            x       y       z     vdW  Elec       q    Type
REMARK                         _______ _______ _______ _____ _____    ______ ____
ROOT
ATOM      1  C   UNL     1       2.877   5.947  18.846  0.00  0.00    +0.000 A 
ATOM      2  N   UNL     1       3.082   6.923  17.986  0.00  0.00    +0.000 NA
ATOM      3  N   UNL     1       2.506   8.065  18.480  0.00  0.00    +0.000 NA
ATOM      4  C   UNL     1       1.951   7.784  19.643  0.00  0.00    +0.000 A 
ATOM      5  N   UNL     1       2.099   6.435  19.877  0.00  0.00    +0.000 N 
ATOM      6  C   UNL     1       1.554   5.667  20.968  0.00  0.00    +0.000 C 
ENDROOT
BRANCH   1  12
ATOM      7  C   UNL     1       6.864   4.331  16.132  0.00  0.00    +0.000 C 
ATOM      8  O   UNL     1       8.007   4.462  16.546  0.00  0.00    +0.000 OA
ATOM      9  N   UNL     1       5.736   4.378  16.952  0.00  0.00    +0.000 N 
ATOM     10  C   UNL     1       5.929   4.890  18.301  0.00  0.00    +0.000 C 
ATOM     11  C   UNL     1       4.855   4.438  19.285  0.00  0.00    +0.000 C 
ATOM     12  C   UNL     1       3.418   4.546  18.754  0.00  0.00    +0.000 C 
ATOM     13  C   UNL     1       3.328   3.965  17.340  0.00  0.00    +0.000 C 
ATOM     14  C   UNL     1       4.395   4.503  16.391  0.00  0.00    +0.000 C 
BRANCH   7  16
ATOM     15  C   UNL     1       7.301   4.971  13.918  0.00  0.00    +0.000 C 
ATOM     16  O   UNL     1       6.568   4.133  14.817  0.00  0.00    +0.000 OA
ENDBRANCH   7  16
ENDBRANCH   1  12
BRANCH   4  17
ATOM     17  C   UNL     1       1.269   8.766  20.534  0.00  0.00    +0.000 C 
BRANCH  17  18
ATOM     18  N   UNL     1       0.663   9.843  19.760  0.00  0.00    +0.000 N 
ATOM     19  C   UNL     1      -0.566   9.838  19.160  0.00  0.00    +0.000 A 
ATOM     20  C   UNL     1      -0.667  11.031  18.483  0.00  0.00    +0.000 A 
ATOM     21  C   UNL     1       0.525  11.713  18.781  0.00  0.00    +0.000 A 
ATOM     22  N   UNL     1       1.328  11.008  19.582  0.00  0.00    +0.000 NA
ENDBRANCH  17  18
ENDBRANCH   4  17
TORSDOF 4
ENDMDL
MODEL 3
REMARK VINA RESULT:      -6.5      1.791      2.237
REMARK  Name = 
REMARK  6 active torsions:
REMARK  status: ('A' for Active; 'I' for Inactive)
REMARK    1  A    between atoms: C_1  and  O_2
REMARK    2  A    between atoms: O_2  and  C_3
REMARK    3  A    between atoms: C_8  and  C_9
REMARK    4  A    between atoms: C_12  and  C_13
REMARK    5  A    between atoms: C_13  and  N_14
REMARK    6  A    between atoms: N_19  and  C_20
REMARK                            x       y       z     vdW  Elec       q    Type
REMARK                         _______ _______ _______ _____ _____    ______ ____
ROOT
ATOM      1  C   UNL     1       3.506   5.754  19.187  0.00  0.00    +0.000 A 
ATOM      2  N   UNL     1       3.456   6.850  18.457  0.00  0.00    +0.000 NA
ATOM      3  N   UNL     1       2.516   7.688  18.998  0.00  0.00    +0.000 NA
ATOM      4  C   UNL     1       1.994   7.104  20.058  0.00  0.00    +0.000 A 
ATOM      5  N   UNL     1       2.542   5.846  20.170  0.00  0.00    +0.000 N 
ATOM      6  C   UNL     1       2.188   4.814  21.112  0.00  0.00    +0.000 C 
ENDROOT
BRANCH   1  12
ATOM      7  C   UNL     1       6.391   4.703  15.132  0.00  0.00    +0.000 C 
ATOM      8  O   UNL     1       7.456   5.275  14.946  0.00  0.00    +0.000 OA
ATOM      9  N   UNL     1       5.755   4.640  16.372  0.00  0.00    +0.000 N 
ATOM     10  C   UNL     1       6.247   5.539  17.405  0.00  0.00    +0.000 C 
ATOM     11  C   UNL     1       5.914   5.081  18.822  0.00  0.00    +0.000 C 
ATOM     12  C   UNL     1       4.466   4.608  19.015  0.00  0.00    +0.000 C 
ATOM     13  C   UNL     1       4.061   3.658  17.884  0.00  0.00    +0.000 C 
ATOM     14  C   UNL     1       4.369   4.202  16.491  0.00  0.00    +0.000 C 
BRANCH   7  16
ATOM     15  C   UNL     1       6.484   3.794  12.971  0.00  0.00    +0.000 C 
ATOM     16  O   UNL     1       5.706   4.070  14.139  0.00  0.00    +0.000 OA
ENDBRANCH   7  16
ENDBRANCH   1  12
BRANCH   4  17
ATOM     17  C   UNL     1       0.976   7.709  20.963  0.00  0.00    +0.000 C 
BRANCH  17  18
ATOM     18  N   UNL     1       0.803   9.130  20.683  0.00  0.00    +0.000 N 
ATOM     19  C   UNL     1       0.256   9.690  19.563  0.00  0.00    +0.000 A 
ATOM     20  C   UNL     1       0.382  11.051  19.714  0.00  0.00    +0.000 A 
ATOM     21  C   UNL     1       0.964  11.218  20.981  0.00  0.00    +0.000 A 
ATOM     22  N   UNL     1       1.197  10.052  21.591  0.00  0.00    +0.000 NA
ENDBRANCH  17  18
ENDBRANCH   4  17
TORSDOF 4
ENDMDL
MODEL 4
REMARK VINA RESULT:      -6.4      3.629      7.635
REMARK  Name = 
REMARK  6 active torsions:
REMARK  status: ('A' for Active; 'I' for Inactive)
REMARK    1  A    between atoms: C_1  and  O_2
REMARK    2  A    between atoms: O_2  and  C_3
REMARK    3  A    between atoms: C_8  and  C_9
REMARK    4  A    between atoms: C_12  and  C_13
REMARK    5  A    between atoms: C_13  and  N_14
REMARK    6  A    between atoms: N_19  and  C_20
REMARK                            x       y       z     vdW  Elec       q    Type
REMARK                         _______ _______ _______ _____ _____    ______ ____
ROOT
ATOM      1  C   UNL     1       3.857   6.170  17.704  0.00  0.00    +0.000 A 
ATOM      2  N   UNL     1       4.653   7.219  17.715  0.00  0.00    +0.000 NA
ATOM      3  N   UNL     1       5.905   6.818  17.327  0.00  0.00    +0.000 NA
ATOM      4  C   UNL     1       5.872   5.524  17.079  0.00  0.00    +0.000 A 
ATOM      5  N   UNL     1       4.610   5.060  17.376  0.00  0.00    +0.000 N 
ATOM      6  C   UNL     1       4.149   3.694  17.363  0.00  0.00    +0.000 C 
ENDROOT
BRANCH   1  12
ATOM      7  C   UNL     1       1.261   9.196  20.862  0.00  0.00    +0.000 C 
ATOM      8  O   UNL     1       0.932  10.326  20.530  0.00  0.00    +0.000 OA
ATOM      9  N   UNL     1       1.608   8.195  19.954  0.00  0.00    +0.000 N 
ATOM     10  C   UNL     1       1.862   8.615  18.584  0.00  0.00    +0.000 C 
ATOM     11  C   UNL     1       1.709   7.492  17.563  0.00  0.00    +0.000 C 
ATOM     12  C   UNL     1       2.376   6.169  17.966  0.00  0.00    +0.000 C 
ATOM     13  C   UNL     1       2.028   5.817  19.417  0.00  0.00    +0.000 C 
ATOM     14  C   UNL     1       2.260   6.967  20.394  0.00  0.00    +0.000 C 
BRANCH   7  16
ATOM     15  C   UNL     1       0.388   9.439  23.026  0.00  0.00    +0.000 C 
ATOM     16  O   UNL     1       1.330   8.795  22.163  0.00  0.00    +0.000 OA
ENDBRANCH   7  16
ENDBRANCH   1  12
BRANCH   4  17
ATOM     17  C   UNL     1       7.016   4.711  16.576  0.00  0.00    +0.000 C 
BRANCH  17  18
ATOM     18  N   UNL     1       6.996   4.623  15.120  0.00  0.00    +0.000 N 
ATOM     19  C   UNL     1       6.221   3.797  14.354  0.00  0.00    +0.000 A 
ATOM     20  C   UNL     1       6.606   4.010  13.051  0.00  0.00    +0.000 A 
ATOM     21  C   UNL     1       7.577   5.023  13.126  0.00  0.00    +0.000 A 
ATOM     22  N   UNL     1       7.799   5.423  14.381  0.00  0.00    +0.000 NA
ENDBRANCH  17  18
ENDBRANCH   4  17
TORSDOF 4
ENDMDL
MODEL 5
REMARK VINA RESULT:      -6.1      3.751      7.224
REMARK  Name = 
REMARK  6 active torsions:
REMARK  status: ('A' for Active; 'I' for Inactive)
REMARK    1  A    between atoms: C_1  and  O_2
REMARK    2  A    between atoms: O_2  and  C_3
REMARK    3  A    between atoms: C_8  and  C_9
REMARK    4  A    between atoms: C_12  and  C_13
REMARK    5  A    between atoms: C_13  and  N_14
REMARK    6  A    between atoms: N_19  and  C_20
REMARK                            x       y       z     vdW  Elec       q    Type
REMARK                         _______ _______ _______ _____ _____    ______ ____
ROOT
ATOM      1  C   UNL     1       3.698   4.443  18.669  0.00  0.00    +0.000 A 
ATOM      2  N   UNL     1       4.292   3.819  19.666  0.00  0.00    +0.000 NA
ATOM      3  N   UNL     1       5.639   3.783  19.415  0.00  0.00    +0.000 NA
ATOM      4  C   UNL     1       5.867   4.387  18.265  0.00  0.00    +0.000 A 
ATOM      5  N   UNL     1       4.655   4.755  17.724  0.00  0.00    +0.000 N 
ATOM      6  C   UNL     1       4.411   5.342  16.430  0.00  0.00    +0.000 C 
ENDROOT
BRANCH   1  12
ATOM      7  C   UNL     1       1.349   8.498  20.647  0.00  0.00    +0.000 C 
ATOM      8  O   UNL     1       1.373   9.582  20.082  0.00  0.00    +0.000 OA
ATOM      9  N   UNL     1       1.613   7.287  20.005  0.00  0.00    +0.000 N 
ATOM     10  C   UNL     1       2.220   7.366  18.685  0.00  0.00    +0.000 C 
ATOM     11  C   UNL     1       2.000   6.117  17.836  0.00  0.00    +0.000 C 
ATOM     12  C   UNL     1       2.238   4.794  18.577  0.00  0.00    +0.000 C 
ATOM     13  C   UNL     1       1.544   4.815  19.943  0.00  0.00    +0.000 C 
ATOM     14  C   UNL     1       1.853   6.065  20.763  0.00  0.00    +0.000 C 
BRANCH   7  16
ATOM     15  C   UNL     1       0.006   9.195  22.439  0.00  0.00    +0.000 C 
ATOM     16  O   UNL     1       1.068   8.358  21.972  0.00  0.00    +0.000 OA
ENDBRANCH   7  16
ENDBRANCH   1  12
BRANCH   4  17
ATOM     17  C   UNL     1       7.210   4.614  17.660  0.00  0.00    +0.000 C 
BRANCH  17  18
ATOM     18  N   UNL     1       7.618   6.008  17.797  0.00  0.00    +0.000 N 
ATOM     19  C   UNL     1       8.157   6.605  18.901  0.00  0.00    +0.000 A 
ATOM     20  C   UNL     1       8.300   7.936  18.586  0.00  0.00    +0.000 A 
ATOM     21  C   UNL     1       7.875   8.035  17.250  0.00  0.00    +0.000 A 
ATOM     22  N   UNL     1       7.485   6.858  16.752  0.00  0.00    +0.000 NA
ENDBRANCH  17  18
ENDBRANCH   4  17
TORSDOF 4
ENDMDL
MODEL 6
REMARK VINA RESULT:      -6.1      1.332      1.867
REMARK  Name = 
REMARK  6 active torsions:
REMARK  status: ('A' for Active; 'I' for Inactive)
REMARK    1  A    between atoms: C_1  and  O_2
REMARK    2  A    between atoms: O_2  and  C_3
REMARK    3  A    between atoms: C_8  and  C_9
REMARK    4  A    between atoms: C_12  and  C_13
REMARK    5  A    between atoms: C_13  and  N_14
REMARK    6  A    between atoms: N_19  and  C_20
REMARK                            x       y       z     vdW  Elec       q    Type
REMARK                         _______ _______ _______ _____ _____    ______ ____
ROOT
ATOM      1  C   UNL     1       3.071   6.900  18.629  0.00  0.00    +0.000 A 
ATOM      2  N   UNL     1       3.261   7.560  17.505  0.00  0.00    +0.000 NA
ATOM      3  N   UNL     1       2.460   8.672  17.514  0.00  0.00    +0.000 NA
ATOM      4  C   UNL     1       1.782   8.691  18.645  0.00  0.00    +0.000 A 
ATOM      5  N   UNL     1       2.085   7.546  19.348  0.00  0.00    +0.000 N 
ATOM      6  C   UNL     1       1.498   7.091  20.583  0.00  0.00    +0.000 C 
ENDROOT
BRANCH   1  12
ATOM      7  C   UNL     1       6.620   4.301  16.076  0.00  0.00    +0.000 C 
ATOM      8  O   UNL     1       7.785   4.673  16.053  0.00  0.00    +0.000 OA
ATOM      9  N   UNL     1       5.698   4.710  17.040  0.00  0.00    +0.000 N 
ATOM     10  C   UNL     1       6.077   5.846  17.867  0.00  0.00    +0.000 C 
ATOM     11  C   UNL     1       5.327   5.913  19.193  0.00  0.00    +0.000 C 
ATOM     12  C   UNL     1       3.815   5.673  19.082  0.00  0.00    +0.000 C 
ATOM     13  C   UNL     1       3.533   4.448  18.206  0.00  0.00    +0.000 C 
ATOM     14  C   UNL     1       4.269   4.473  16.870  0.00  0.00    +0.000 C 
BRANCH   7  16
ATOM     15  C   UNL     1       6.241   3.884  13.799  0.00  0.00    +0.000 C 
ATOM     16  O   UNL     1       6.096   3.446  15.153  0.00  0.00    +0.000 OA
ENDBRANCH   7  16
ENDBRANCH   1  12
BRANCH   4  17
ATOM     17  C   UNL     1       0.841   9.766  19.070  0.00  0.00    +0.000 C 
BRANCH  17  18
ATOM     18  N   UNL     1       1.492  11.071  19.045  0.00  0.00    +0.000 N 
ATOM     19  C   UNL     1       1.484  12.016  20.032  0.00  0.00    +0.000 A 
ATOM     20  C   UNL     1       2.156  13.105  19.526  0.00  0.00    +0.000 A 
ATOM     21  C   UNL     1       2.582  12.700  18.250  0.00  0.00    +0.000 A 
ATOM     22  N   UNL     1       2.206  11.452  17.960  0.00  0.00    +0.000 NA
ENDBRANCH  17  18
ENDBRANCH   4  17
TORSDOF 4
ENDMDL
MODEL 7
REMARK VINA RESULT:      -6.1      4.618      7.633
REMARK  Name = 
REMARK  6 active torsions:
REMARK  status: ('A' for Active; 'I' for Inactive)
REMARK    1  A    between atoms: C_1  and  O_2
REMARK    2  A    between atoms: O_2  and  C_3
REMARK    3  A    between atoms: C_8  and  C_9
REMARK    4  A    between atoms: C_12  and  C_13
REMARK    5  A    between atoms: C_13  and  N_14
REMARK    6  A    between atoms: N_19  and  C_20
REMARK                            x       y       z     vdW  Elec       q    Type
REMARK                         _______ _______ _______ _____ _____    ______ ____
ROOT
ATOM      1  C   UNL     1       5.196   5.008  16.799  0.00  0.00    +0.000 A 
ATOM      2  N   UNL     1       5.478   3.722  16.812  0.00  0.00    +0.000 NA
ATOM      3  N   UNL     1       6.052   3.390  15.612  0.00  0.00    +0.000 NA
ATOM      4  C   UNL     1       6.121   4.476  14.867  0.00  0.00    +0.000 A 
ATOM      5  N   UNL     1       5.522   5.509  15.554  0.00  0.00    +0.000 N 
ATOM      6  C   UNL     1       5.270   6.848  15.084  0.00  0.00    +0.000 C 
ENDROOT
BRANCH   1  12
ATOM      7  C   UNL     1       2.111   3.421  20.518  0.00  0.00    +0.000 C 
ATOM      8  O   UNL     1       2.548   2.827  21.494  0.00  0.00    +0.000 OA
ATOM      9  N   UNL     1       2.898   4.213  19.681  0.00  0.00    +0.000 N 
ATOM     10  C   UNL     1       4.340   4.081  19.822  0.00  0.00    +0.000 C 
ATOM     11  C   UNL     1       5.117   5.290  19.308  0.00  0.00    +0.000 C 
ATOM     12  C   UNL     1       4.648   5.815  17.944  0.00  0.00    +0.000 C 
ATOM     13  C   UNL     1       3.120   5.929  17.913  0.00  0.00    +0.000 C 
ATOM     14  C   UNL     1       2.406   4.665  18.384  0.00  0.00    +0.000 C 
BRANCH   7  16
ATOM     15  C   UNL     1       0.512   2.341  19.185  0.00  0.00    +0.000 C 
ATOM     16  O   UNL     1       0.804   3.366  20.140  0.00  0.00    +0.000 OA
ENDBRANCH   7  16
ENDBRANCH   1  12
BRANCH   4  17
ATOM     17  C   UNL     1       6.733   4.555  13.510  0.00  0.00    +0.000 C 
BRANCH  17  18
ATOM     18  N   UNL     1       6.041   3.679  12.572  0.00  0.00    +0.000 N 
ATOM     19  C   UNL     1       4.740   3.772  12.162  0.00  0.00    +0.000 A 
ATOM     20  C   UNL     1       4.517   2.688  11.345  0.00  0.00    +0.000 A 
ATOM     21  C   UNL     1       5.757   2.032  11.276  0.00  0.00    +0.000 A 
ATOM     22  N   UNL     1       6.699   2.645  11.998  0.00  0.00    +0.000 NA
ENDBRANCH  17  18
ENDBRANCH   4  17
TORSDOF 4
ENDMDL
MODEL 8
REMARK VINA RESULT:      -6.0      2.343      3.238
REMARK  Name = 
REMARK  6 active torsions:
REMARK  status: ('A' for Active; 'I' for Inactive)
REMARK    1  A    between atoms: C_1  and  O_2
REMARK    2  A    between atoms: O_2  and  C_3
REMARK    3  A    between atoms: C_8  and  C_9
REMARK    4  A    between atoms: C_12  and  C_13
REMARK    5  A    between atoms: C_13  and  N_14
REMARK    6  A    between atoms: N_19  and  C_20
REMARK                            x       y       z     vdW  Elec       q    Type
REMARK                         _______ _______ _______ _____ _____    ______ ____
ROOT
ATOM      1  C   UNL     1       2.147   7.503  19.145  0.00  0.00    +0.000 A 
ATOM      2  N   UNL     1       1.833   7.105  20.360  0.00  0.00    +0.000 NA
ATOM      3  N   UNL     1       1.247   8.152  21.022  0.00  0.00    +0.000 NA
ATOM      4  C   UNL     1       1.202   9.189  20.209  0.00  0.00    +0.000 A 
ATOM      5  N   UNL     1       1.829   8.842  19.033  0.00  0.00    +0.000 N 
ATOM      6  C   UNL     1       2.114   9.692  17.905  0.00  0.00    +0.000 C 
ENDROOT
BRANCH   1  12
ATOM      7  C   UNL     1       3.699   2.669  19.449  0.00  0.00    +0.000 C 
ATOM      8  O   UNL     1       2.903   1.742  19.388  0.00  0.00    +0.000 OA
ATOM      9  N   UNL     1       3.421   3.957  18.990  0.00  0.00    +0.000 N 
ATOM     10  C   UNL     1       2.028   4.260  18.698  0.00  0.00    +0.000 C 
ATOM     11  C   UNL     1       1.846   5.429  17.735  0.00  0.00    +0.000 C 
ATOM     12  C   UNL     1       2.721   6.652  18.045  0.00  0.00    +0.000 C 
ATOM     13  C   UNL     1       4.165   6.218  18.318  0.00  0.00    +0.000 C 
ATOM     14  C   UNL     1       4.278   5.086  19.335  0.00  0.00    +0.000 C 
BRANCH   7  16
ATOM     15  C   UNL     1       5.093   1.437  20.877  0.00  0.00    +0.000 C 
ATOM     16  O   UNL     1       4.947   2.542  19.980  0.00  0.00    +0.000 OA
ENDBRANCH   7  16
ENDBRANCH   1  12
BRANCH   4  17
ATOM     17  C   UNL     1       0.587  10.509  20.527  0.00  0.00    +0.000 C 
BRANCH  17  18
ATOM     18  N   UNL     1      -0.403  10.881  19.522  0.00  0.00    +0.000 N 
ATOM     19  C   UNL     1      -1.393  10.092  19.007  0.00  0.00    +0.000 A 
ATOM     20  C   UNL     1      -2.018  10.843  18.039  0.00  0.00    +0.000 A 
ATOM     21  C   UNL     1      -1.373  12.091  18.084  0.00  0.00    +0.000 A 
ATOM     22  N   UNL     1      -0.407  12.132  19.005  0.00  0.00    +0.000 NA
ENDBRANCH  17  18
ENDBRANCH   4  17
TORSDOF 4
ENDMDL
MODEL 9
REMARK VINA RESULT:      -6.0      4.865      8.386
REMARK  Name = 
REMARK  6 active torsions:
REMARK  status: ('A' for Active; 'I' for Inactive)
REMARK    1  A    between atoms: C_1  and  O_2
REMARK    2  A    between atoms: O_2  and  C_3
REMARK    3  A    between atoms: C_8  and  C_9
REMARK    4  A    between atoms: C_12  and  C_13
REMARK    5  A    between atoms: C_13  and  N_14
REMARK    6  A    between atoms: N_19  and  C_20
REMARK                            x       y       z     vdW  Elec       q    Type
REMARK                         _______ _______ _______ _____ _____    ______ ____
ROOT
ATOM      1  C   UNL     1       1.307   9.149  19.430  0.00  0.00    +0.000 A 
ATOM      2  N   UNL     1       0.866   8.769  20.612  0.00  0.00    +0.000 NA
ATOM      3  N   UNL     1       1.424   7.554  20.913  0.00  0.00    +0.000 NA
ATOM      4  C   UNL     1       2.207   7.194  19.916  0.00  0.00    +0.000 A 
ATOM      5  N   UNL     1       2.103   8.142  18.922  0.00  0.00    +0.000 N 
ATOM      6  C   UNL     1       2.693   8.106  17.607  0.00  0.00    +0.000 C 
ENDROOT
BRANCH   1  12
ATOM      7  C   UNL     1      -2.267  12.565  20.625  0.00  0.00    +0.000 C 
ATOM      8  O   UNL     1      -2.096  13.371  21.529  0.00  0.00    +0.000 OA
ATOM      9  N   UNL     1      -1.227  11.886  19.990  0.00  0.00    +0.000 N 
ATOM     10  C   UNL     1       0.076  11.934  20.637  0.00  0.00    +0.000 C 
ATOM     11  C   UNL     1       1.239  11.661  19.688  0.00  0.00    +0.000 C 
ATOM     12  C   UNL     1       1.029  10.462  18.751  0.00  0.00    +0.000 C 
ATOM     13  C   UNL     1      -0.364  10.521  18.116  0.00  0.00    +0.000 C 
ATOM     14  C   UNL     1      -1.486  10.739  19.128  0.00  0.00    +0.000 C 
BRANCH   7  16
ATOM     15  C   UNL     1      -4.562  13.050  20.655  0.00  0.00    +0.000 C 
ATOM     16  O   UNL     1      -3.499  12.238  20.145  0.00  0.00    +0.000 OA
ENDBRANCH   7  16
ENDBRANCH   1  12
BRANCH   4  17
ATOM     17  C   UNL     1       3.044   5.961  19.877  0.00  0.00    +0.000 C 
BRANCH  17  18
ATOM     18  N   UNL     1       2.232   4.769  20.090  0.00  0.00    +0.000 N 
ATOM     19  C   UNL     1       1.464   4.117  19.166  0.00  0.00    +0.000 A 
ATOM     20  C   UNL     1       0.823   3.106  19.845  0.00  0.00    +0.000 A 
ATOM     21  C   UNL     1       1.312   3.193  21.159  0.00  0.00    +0.000 A 
ATOM     22  N   UNL     1       2.193   4.185  21.310  0.00  0.00    +0.000 NA
ENDBRANCH  17  18
ENDBRANCH   4  17
TORSDOF 4
ENDMDL
