MODEL 1
REMARK VINA RESULT:      -8.6      0.000      0.000
REMARK  Name = 
REMARK  4 active torsions:
REMARK  status: ('A' for Active; 'I' for Inactive)
REMARK    1  A    between atoms: C_5  and  C_6
REMARK    2  A    between atoms: C_6  and  N_7
REMARK    3  A    between atoms: N_11  and  C_12
REMARK    4  A    between atoms: N_20  and  C_21
REMARK                            x       y       z     vdW  Elec       q    Type
REMARK                         _______ _______ _______ _____ _____    ______ ____
ROOT
ATOM      1  N   UNL     1       7.132   7.847  17.857  0.00  0.00    +0.000 N 
ATOM      2  C   UNL     1       6.783   6.652  17.265  0.00  0.00    +0.000 A 
ATOM      3  N   UNL     1       5.922   5.915  17.940  0.00  0.00    +0.000 NA
ATOM      4  C   UNL     1       5.686   4.699  17.474  0.00  0.00    +0.000 A 
ATOM      5  N   UNL     1       4.867   3.803  18.158  0.00  0.00    +0.000 N 
ATOM      6  N   UNL     1       6.164   4.265  16.322  0.00  0.00    +0.000 NA
ATOM      7  C   UNL     1       6.929   5.114  15.647  0.00  0.00    +0.000 A 
ATOM      8  N   UNL     1       7.373   4.778  14.364  0.00  0.00    +0.000 N 
ATOM      9  N   UNL     1       7.310   6.298  16.105  0.00  0.00    +0.000 NA
ATOM     10  H   UNL     1       6.306   8.422  17.974  0.00  0.00    +0.000 HD
ATOM     11  H   UNL     1       4.780   2.948  17.628  0.00  0.00    +0.000 HD
ATOM     12  H   UNL     1       7.838   5.593  13.979  0.00  0.00    +0.000 HD
ENDROOT
BRANCH   5  13
ATOM     13  C   UNL     1       4.011   3.975  19.251  0.00  0.00    +0.000 A 
ATOM     14  C   UNL     1       3.822   2.903  20.137  0.00  0.00    +0.000 A 
ATOM     15  C   UNL     1       2.897   2.981  21.182  0.00  0.00    +0.000 A 
ATOM     16  C   UNL     1       2.151   4.142  21.365  0.00  0.00    +0.000 A 
ATOM     17  C   UNL     1       2.345   5.228  20.516  0.00  0.00    +0.000 A 
ATOM     18  C   UNL     1       3.272   5.143  19.476  0.00  0.00    +0.000 A 
ENDBRANCH   5  13
BRANCH   8  19
ATOM     19  C   UNL     1       6.644   4.070  13.391  0.00  0.00    +0.000 A 
ATOM     20  C   UNL     1       5.242   4.062  13.348  0.00  0.00    +0.000 A 
ATOM     21  C   UNL     1       4.559   3.358  12.354  0.00  0.00    +0.000 A 
ATOM     22  C   UNL     1       5.271   2.659  11.383  0.00  0.00    +0.000 A 
ATOM     23  C   UNL     1       6.664   2.679  11.397  0.00  0.00    +0.000 A 
ATOM     24  C   UNL     1       7.345   3.393  12.386  0.00  0.00    +0.000 A 
ENDBRANCH   8  19
BRANCH   1  25
ATOM     25  C   UNL     1       8.301   8.515  17.340  0.00  0.00    +0.000 C 
BRANCH  25  30
ATOM     26 BR   UNL     1       9.565  13.508  20.794  0.00  0.00    +0.000 Br
ATOM     27  C   UNL     1       9.164  11.984  19.749  0.00  0.00    +0.000 A 
ATOM     28  C   UNL     1       9.402  10.714  20.259  0.00  0.00    +0.000 A 
ATOM     29  C   UNL     1       9.113   9.596  19.481  0.00  0.00    +0.000 A 
ATOM     30  C   UNL     1       8.573   9.740  18.191  0.00  0.00    +0.000 A 
ATOM     31  C   UNL     1       8.341  11.027  17.687  0.00  0.00    +0.000 A 
ATOM     32  C   UNL     1       8.634  12.149  18.467  0.00  0.00    +0.000 A 
ENDBRANCH  25  30
ENDBRANCH   1  25
TORSDOF 4
ENDMDL
MODEL 2
REMARK VINA RESULT:      -8.5      0.741      1.209
REMARK  Name = 
REMARK  4 active torsions:
REMARK  status: ('A' for Active; 'I' for Inactive)
REMARK    1  A    between atoms: C_5  and  C_6
REMARK    2  A    between atoms: C_6  and  N_7
REMARK    3  A    between atoms: N_11  and  C_12
REMARK    4  A    between atoms: N_20  and  C_21
REMARK                            x       y       z     vdW  Elec       q    Type
REMARK                         _______ _______ _______ _____ _____    ______ ____
ROOT
ATOM      1  N   UNL     1       7.265   8.418  17.999  0.00  0.00    +0.000 N 
ATOM      2  C   UNL     1       6.855   7.234  17.422  0.00  0.00    +0.000 A 
ATOM      3  N   UNL     1       5.837   6.639  18.013  0.00  0.00    +0.000 NA
ATOM      4  C   UNL     1       5.520   5.430  17.576  0.00  0.00    +0.000 A 
ATOM      5  N   UNL     1       4.524   4.673  18.189  0.00  0.00    +0.000 N 
ATOM      6  N   UNL     1       6.083   4.877  16.517  0.00  0.00    +0.000 NA
ATOM      7  C   UNL     1       7.019   5.595  15.909  0.00  0.00    +0.000 A 
ATOM      8  N   UNL     1       7.576   5.136  14.711  0.00  0.00    +0.000 N 
ATOM      9  N   UNL     1       7.477   6.755  16.358  0.00  0.00    +0.000 NA
ATOM     10  H   UNL     1       6.504   9.085  17.981  0.00  0.00    +0.000 HD
ATOM     11  H   UNL     1       4.403   3.802  17.692  0.00  0.00    +0.000 HD
ATOM     12  H   UNL     1       8.177   5.869  14.353  0.00  0.00    +0.000 HD
ENDROOT
BRANCH   5  13
ATOM     13  C   UNL     1       3.565   5.004  19.153  0.00  0.00    +0.000 A 
ATOM     14  C   UNL     1       3.099   3.999  20.014  0.00  0.00    +0.000 A 
ATOM     15  C   UNL     1       2.065   4.246  20.922  0.00  0.00    +0.000 A 
ATOM     16  C   UNL     1       1.486   5.510  20.990  0.00  0.00    +0.000 A 
ATOM     17  C   UNL     1       1.955   6.528  20.165  0.00  0.00    +0.000 A 
ATOM     18  C   UNL     1       2.988   6.275  19.262  0.00  0.00    +0.000 A 
ENDBRANCH   5  13
BRANCH   8  19
ATOM     19  C   UNL     1       6.895   4.455  13.685  0.00  0.00    +0.000 A 
ATOM     20  C   UNL     1       7.521   4.041  12.500  0.00  0.00    +0.000 A 
ATOM     21  C   UNL     1       6.809   3.353  11.515  0.00  0.00    +0.000 A 
ATOM     22  C   UNL     1       5.461   3.063  11.706  0.00  0.00    +0.000 A 
ATOM     23  C   UNL     1       4.831   3.445  12.889  0.00  0.00    +0.000 A 
ATOM     24  C   UNL     1       5.548   4.123  13.877  0.00  0.00    +0.000 A 
ENDBRANCH   8  19
BRANCH   1  25
ATOM     25  C   UNL     1       8.559   8.920  17.608  0.00  0.00    +0.000 C 
BRANCH  25  30
ATOM     26 BR   UNL     1       9.905  14.026  20.860  0.00  0.00    +0.000 Br
ATOM     27  C   UNL     1       9.478  12.469  19.875  0.00  0.00    +0.000 A 
ATOM     28  C   UNL     1       9.596  11.220  20.473  0.00  0.00    +0.000 A 
ATOM     29  C   UNL     1       9.288  10.077  19.739  0.00  0.00    +0.000 A 
ATOM     30  C   UNL     1       8.851  10.175  18.406  0.00  0.00    +0.000 A 
ATOM     31  C   UNL     1       8.741  11.441  17.815  0.00  0.00    +0.000 A 
ATOM     32  C   UNL     1       9.052  12.588  18.551  0.00  0.00    +0.000 A 
ENDBRANCH  25  30
ENDBRANCH   1  25
TORSDOF 4
ENDMDL
MODEL 3
REMARK VINA RESULT:      -8.3      2.013      2.755
REMARK  Name = 
REMARK  4 active torsions:
REMARK  status: ('A' for Active; 'I' for Inactive)
REMARK    1  A    between atoms: C_5  and  C_6
REMARK    2  A    between atoms: C_6  and  N_7
REMARK    3  A    between atoms: N_11  and  C_12
REMARK    4  A    between atoms: N_20  and  C_21
REMARK                            x       y       z     vdW  Elec       q    Type
REMARK                         _______ _______ _______ _____ _____    ______ ____
ROOT
ATOM      1  N   UNL     1       7.608   9.129  18.048  0.00  0.00    +0.000 N 
ATOM      2  C   UNL     1       6.970   8.035  17.501  0.00  0.00    +0.000 A 
ATOM      3  N   UNL     1       5.695   7.908  17.813  0.00  0.00    +0.000 NA
ATOM      4  C   UNL     1       5.098   6.791  17.430  0.00  0.00    +0.000 A 
ATOM      5  N   UNL     1       3.780   6.511  17.785  0.00  0.00    +0.000 N 
ATOM      6  N   UNL     1       5.680   5.892  16.657  0.00  0.00    +0.000 NA
ATOM      7  C   UNL     1       6.929   6.155  16.291  0.00  0.00    +0.000 A 
ATOM      8  N   UNL     1       7.574   5.317  15.376  0.00  0.00    +0.000 N 
ATOM      9  N   UNL     1       7.633   7.186  16.734  0.00  0.00    +0.000 NA
ATOM     10  H   UNL     1       7.158   9.979  17.730  0.00  0.00    +0.000 HD
ATOM     11  H   UNL     1       3.493   5.637  17.369  0.00  0.00    +0.000 HD
ATOM     12  H   UNL     1       8.463   5.746  15.143  0.00  0.00    +0.000 HD
ENDROOT
BRANCH   5  13
ATOM     13  C   UNL     1       2.786   7.304  18.370  0.00  0.00    +0.000 A 
ATOM     14  C   UNL     1       2.269   8.385  17.642  0.00  0.00    +0.000 A 
ATOM     15  C   UNL     1       1.356   9.274  18.216  0.00  0.00    +0.000 A 
ATOM     16  C   UNL     1       0.936   9.089  19.530  0.00  0.00    +0.000 A 
ATOM     17  C   UNL     1       1.414   8.004  20.260  0.00  0.00    +0.000 A 
ATOM     18  C   UNL     1       2.325   7.120  19.679  0.00  0.00    +0.000 A 
ENDBRANCH   5  13
BRANCH   8  19
ATOM     19  C   UNL     1       6.981   4.683  14.268  0.00  0.00    +0.000 A 
ATOM     20  C   UNL     1       5.742   4.030  14.340  0.00  0.00    +0.000 A 
ATOM     21  C   UNL     1       5.182   3.429  13.210  0.00  0.00    +0.000 A 
ATOM     22  C   UNL     1       5.852   3.479  11.991  0.00  0.00    +0.000 A 
ATOM     23  C   UNL     1       7.072   4.147  11.899  0.00  0.00    +0.000 A 
ATOM     24  C   UNL     1       7.624   4.757  13.027  0.00  0.00    +0.000 A 
ENDBRANCH   8  19
BRANCH   1  25
ATOM     25  C   UNL     1       9.050   9.126  18.020  0.00  0.00    +0.000 C 
BRANCH  25  30
ATOM     26 BR   UNL     1      10.967  14.460  20.538  0.00  0.00    +0.000 Br
ATOM     27  C   UNL     1      10.398  12.827  19.772  0.00  0.00    +0.000 A 
ATOM     28  C   UNL     1      10.580  12.601  18.412  0.00  0.00    +0.000 A 
ATOM     29  C   UNL     1      10.152  11.400  17.853  0.00  0.00    +0.000 A 
ATOM     30  C   UNL     1       9.547  10.412  18.650  0.00  0.00    +0.000 A 
ATOM     31  C   UNL     1       9.367  10.654  20.019  0.00  0.00    +0.000 A 
ATOM     32  C   UNL     1       9.795  11.861  20.579  0.00  0.00    +0.000 A 
ENDBRANCH  25  30
ENDBRANCH   1  25
TORSDOF 4
ENDMDL
MODEL 4
REMARK VINA RESULT:      -8.2      0.864      1.853
REMARK  Name = 
REMARK  4 active torsions:
REMARK  status: ('A' for Active; 'I' for Inactive)
REMARK    1  A    between atoms: C_5  and  C_6
REMARK    2  A    between atoms: C_6  and  N_7
REMARK    3  A    between atoms: N_11  and  C_12
REMARK    4  A    between atoms: N_20  and  C_21
REMARK                            x       y       z     vdW  Elec       q    Type
REMARK                         _______ _______ _______ _____ _____    ______ ____
ROOT
ATOM      1  N   UNL     1       7.229   8.505  17.944  0.00  0.00    +0.000 N 
ATOM      2  C   UNL     1       6.793   7.326  17.376  0.00  0.00    +0.000 A 
ATOM      3  N   UNL     1       5.727   6.788  17.936  0.00  0.00    +0.000 NA
ATOM      4  C   UNL     1       5.377   5.584  17.511  0.00  0.00    +0.000 A 
ATOM      5  N   UNL     1       4.324   4.884  18.096  0.00  0.00    +0.000 N 
ATOM      6  N   UNL     1       5.960   4.983  16.490  0.00  0.00    +0.000 NA
ATOM      7  C   UNL     1       6.951   5.647  15.907  0.00  0.00    +0.000 A 
ATOM      8  N   UNL     1       7.538   5.136  14.745  0.00  0.00    +0.000 N 
ATOM      9  N   UNL     1       7.439   6.796  16.351  0.00  0.00    +0.000 NA
ATOM     10  H   UNL     1       6.499   9.203  17.879  0.00  0.00    +0.000 HD
ATOM     11  H   UNL     1       4.187   4.008  17.614  0.00  0.00    +0.000 HD
ATOM     12  H   UNL     1       8.185   5.835  14.398  0.00  0.00    +0.000 HD
ENDROOT
BRANCH   5  13
ATOM     13  C   UNL     1       3.340   5.277  19.010  0.00  0.00    +0.000 A 
ATOM     14  C   UNL     1       2.915   6.615  19.012  0.00  0.00    +0.000 A 
ATOM     15  C   UNL     1       2.017   7.088  19.972  0.00  0.00    +0.000 A 
ATOM     16  C   UNL     1       1.519   6.225  20.944  0.00  0.00    +0.000 A 
ATOM     17  C   UNL     1       1.904   4.888  20.941  0.00  0.00    +0.000 A 
ATOM     18  C   UNL     1       2.800   4.421  19.978  0.00  0.00    +0.000 A 
ENDBRANCH   5  13
BRANCH   8  19
ATOM     19  C   UNL     1       6.872   4.461  13.706  0.00  0.00    +0.000 A 
ATOM     20  C   UNL     1       7.495   4.127  12.494  0.00  0.00    +0.000 A 
ATOM     21  C   UNL     1       6.800   3.441  11.496  0.00  0.00    +0.000 A 
ATOM     22  C   UNL     1       5.473   3.073  11.700  0.00  0.00    +0.000 A 
ATOM     23  C   UNL     1       4.848   3.375  12.908  0.00  0.00    +0.000 A 
ATOM     24  C   UNL     1       5.549   4.051  13.909  0.00  0.00    +0.000 A 
ENDBRANCH   8  19
BRANCH   1  25
ATOM     25  C   UNL     1       8.559   8.943  17.599  0.00  0.00    +0.000 C 
BRANCH  25  30
ATOM     26 BR   UNL     1       9.699  14.100  20.850  0.00  0.00    +0.000 Br
ATOM     27  C   UNL     1       9.368  12.528  19.852  0.00  0.00    +0.000 A 
ATOM     28  C   UNL     1       8.952  12.624  18.529  0.00  0.00    +0.000 A 
ATOM     29  C   UNL     1       8.702  11.463  17.803  0.00  0.00    +0.000 A 
ATOM     30  C   UNL     1       8.875  10.197  18.390  0.00  0.00    +0.000 A 
ATOM     31  C   UNL     1       9.290  10.115  19.725  0.00  0.00    +0.000 A 
ATOM     32  C   UNL     1       9.539  11.281  20.455  0.00  0.00    +0.000 A 
ENDBRANCH  25  30
ENDBRANCH   1  25
TORSDOF 4
ENDMDL
MODEL 5
REMARK VINA RESULT:      -8.2      2.053      2.801
REMARK  Name = 
REMARK  4 active torsions:
REMARK  status: ('A' for Active; 'I' for Inactive)
REMARK    1  A    between atoms: C_5  and  C_6
REMARK    2  A    between atoms: C_6  and  N_7
REMARK    3  A    between atoms: N_11  and  C_12
REMARK    4  A    between atoms: N_20  and  C_21
REMARK                            x       y       z     vdW  Elec       q    Type
REMARK                         _______ _______ _______ _____ _____    ______ ____
ROOT
ATOM      1  N   UNL     1       7.612   9.168  18.080  0.00  0.00    +0.000 N 
ATOM      2  C   UNL     1       6.978   8.081  17.515  0.00  0.00    +0.000 A 
ATOM      3  N   UNL     1       5.701   7.950  17.818  0.00  0.00    +0.000 NA
ATOM      4  C   UNL     1       5.107   6.838  17.417  0.00  0.00    +0.000 A 
ATOM      5  N   UNL     1       3.787   6.553  17.760  0.00  0.00    +0.000 N 
ATOM      6  N   UNL     1       5.694   5.948  16.636  0.00  0.00    +0.000 NA
ATOM      7  C   UNL     1       6.945   6.216  16.282  0.00  0.00    +0.000 A 
ATOM      8  N   UNL     1       7.597   5.389  15.361  0.00  0.00    +0.000 N 
ATOM      9  N   UNL     1       7.646   7.242  16.742  0.00  0.00    +0.000 NA
ATOM     10  H   UNL     1       7.164  10.022  17.768  0.00  0.00    +0.000 HD
ATOM     11  H   UNL     1       3.503   5.683  17.332  0.00  0.00    +0.000 HD
ATOM     12  H   UNL     1       8.486   5.821  15.139  0.00  0.00    +0.000 HD
ENDROOT
BRANCH   5  13
ATOM     13  C   UNL     1       2.789   7.338  18.349  0.00  0.00    +0.000 A 
ATOM     14  C   UNL     1       2.231   8.389  17.606  0.00  0.00    +0.000 A 
ATOM     15  C   UNL     1       1.312   9.272  18.179  0.00  0.00    +0.000 A 
ATOM     16  C   UNL     1       0.926   9.111  19.507  0.00  0.00    +0.000 A 
ATOM     17  C   UNL     1       1.445   8.056  20.252  0.00  0.00    +0.000 A 
ATOM     18  C   UNL     1       2.362   7.177  19.673  0.00  0.00    +0.000 A 
ENDBRANCH   5  13
BRANCH   8  19
ATOM     19  C   UNL     1       7.010   4.769  14.242  0.00  0.00    +0.000 A 
ATOM     20  C   UNL     1       7.609   4.764  12.974  0.00  0.00    +0.000 A 
ATOM     21  C   UNL     1       6.999   4.121  11.895  0.00  0.00    +0.000 A 
ATOM     22  C   UNL     1       5.783   3.467  12.072  0.00  0.00    +0.000 A 
ATOM     23  C   UNL     1       5.188   3.441  13.332  0.00  0.00    +0.000 A 
ATOM     24  C   UNL     1       5.806   4.075  14.412  0.00  0.00    +0.000 A 
ENDBRANCH   8  19
BRANCH   1  25
ATOM     25  C   UNL     1       9.054   9.167  18.061  0.00  0.00    +0.000 C 
BRANCH  25  30
ATOM     26 BR   UNL     1      11.188  14.512  20.369  0.00  0.00    +0.000 Br
ATOM     27  C   UNL     1      10.521  12.889  19.664  0.00  0.00    +0.000 A 
ATOM     28  C   UNL     1       9.895  11.976  20.504  0.00  0.00    +0.000 A 
ATOM     29  C   UNL     1       9.414  10.779  19.979  0.00  0.00    +0.000 A 
ATOM     30  C   UNL     1       9.546  10.491  18.610  0.00  0.00    +0.000 A 
ATOM     31  C   UNL     1      10.183  11.419  17.775  0.00  0.00    +0.000 A 
ATOM     32  C   UNL     1      10.668  12.619  18.302  0.00  0.00    +0.000 A 
ENDBRANCH  25  30
ENDBRANCH   1  25
TORSDOF 4
ENDMDL
MODEL 6
REMARK VINA RESULT:      -8.1      0.519      1.343
REMARK  Name = 
REMARK  4 active torsions:
REMARK  status: ('A' for Active; 'I' for Inactive)
REMARK    1  A    between atoms: C_5  and  C_6
REMARK    2  A    between atoms: C_6  and  N_7
REMARK    3  A    between atoms: N_11  and  C_12
REMARK    4  A    between atoms: N_20  and  C_21
REMARK                            x       y       z     vdW  Elec       q    Type
REMARK                         _______ _______ _______ _____ _____    ______ ____
ROOT
ATOM      1  N   UNL     1       6.985   7.451  17.649  0.00  0.00    +0.000 N 
ATOM      2  C   UNL     1       6.584   6.288  17.026  0.00  0.00    +0.000 A 
ATOM      3  N   UNL     1       5.679   5.582  17.674  0.00  0.00    +0.000 NA
ATOM      4  C   UNL     1       5.388   4.390  17.178  0.00  0.00    +0.000 A 
ATOM      5  N   UNL     1       4.515   3.522  17.831  0.00  0.00    +0.000 N 
ATOM      6  N   UNL     1       5.859   3.957  16.022  0.00  0.00    +0.000 NA
ATOM      7  C   UNL     1       6.675   4.781  15.376  0.00  0.00    +0.000 A 
ATOM      8  N   UNL     1       7.120   4.451  14.092  0.00  0.00    +0.000 N 
ATOM      9  N   UNL     1       7.110   5.933  15.865  0.00  0.00    +0.000 NA
ATOM     10  H   UNL     1       6.188   8.064  17.768  0.00  0.00    +0.000 HD
ATOM     11  H   UNL     1       4.392   2.684  17.281  0.00  0.00    +0.000 HD
ATOM     12  H   UNL     1       7.631   5.248  13.731  0.00  0.00    +0.000 HD
ENDROOT
BRANCH   5  13
ATOM     13  C   UNL     1       3.654   3.713  18.917  0.00  0.00    +0.000 A 
ATOM     14  C   UNL     1       2.836   4.853  18.937  0.00  0.00    +0.000 A 
ATOM     15  C   UNL     1       2.037   5.151  20.045  0.00  0.00    +0.000 A 
ATOM     16  C   UNL     1       2.036   4.305  21.150  0.00  0.00    +0.000 A 
ATOM     17  C   UNL     1       2.817   3.153  21.137  0.00  0.00    +0.000 A 
ATOM     18  C   UNL     1       3.611   2.861  20.027  0.00  0.00    +0.000 A 
ENDBRANCH   5  13
BRANCH   8  19
ATOM     19  C   UNL     1       6.369   3.802  13.094  0.00  0.00    +0.000 A 
ATOM     20  C   UNL     1       6.897   2.785  12.285  0.00  0.00    +0.000 A 
ATOM     21  C   UNL     1       6.110   2.157  11.318  0.00  0.00    +0.000 A 
ATOM     22  C   UNL     1       4.780   2.533  11.151  0.00  0.00    +0.000 A 
ATOM     23  C   UNL     1       4.233   3.524  11.965  0.00  0.00    +0.000 A 
ATOM     24  C   UNL     1       5.020   4.143  12.939  0.00  0.00    +0.000 A 
ENDBRANCH   8  19
BRANCH   1  25
ATOM     25  C   UNL     1       8.194   8.070  17.162  0.00  0.00    +0.000 C 
BRANCH  25  30
ATOM     26 BR   UNL     1       9.388  13.211  20.418  0.00  0.00    +0.000 Br
ATOM     27  C   UNL     1       9.008  11.642  19.434  0.00  0.00    +0.000 A 
ATOM     28  C   UNL     1       9.315  10.398  19.972  0.00  0.00    +0.000 A 
ATOM     29  C   UNL     1       9.041   9.247  19.238  0.00  0.00    +0.000 A 
ATOM     30  C   UNL     1       8.449   9.330  17.966  0.00  0.00    +0.000 A 
ATOM     31  C   UNL     1       8.148  10.591  17.434  0.00  0.00    +0.000 A 
ATOM     32  C   UNL     1       8.425  11.746  18.169  0.00  0.00    +0.000 A 
ENDBRANCH  25  30
ENDBRANCH   1  25
TORSDOF 4
ENDMDL
MODEL 7
REMARK VINA RESULT:      -8.0      2.212      2.877
REMARK  Name = 
REMARK  4 active torsions:
REMARK  status: ('A' for Active; 'I' for Inactive)
REMARK    1  A    between atoms: C_5  and  C_6
REMARK    2  A    between atoms: C_6  and  N_7
REMARK    3  A    between atoms: N_11  and  C_12
REMARK    4  A    between atoms: N_20  and  C_21
REMARK                            x       y       z     vdW  Elec       q    Type
REMARK                         _______ _______ _______ _____ _____    ______ ____
ROOT
ATOM      1  N   UNL     1       7.602   9.289  18.057  0.00  0.00    +0.000 N 
ATOM      2  C   UNL     1       6.984   8.178  17.523  0.00  0.00    +0.000 A 
ATOM      3  N   UNL     1       5.711   8.034  17.833  0.00  0.00    +0.000 NA
ATOM      4  C   UNL     1       5.133   6.902  17.463  0.00  0.00    +0.000 A 
ATOM      5  N   UNL     1       3.819   6.605  17.819  0.00  0.00    +0.000 N 
ATOM      6  N   UNL     1       5.732   6.003  16.704  0.00  0.00    +0.000 NA
ATOM      7  C   UNL     1       6.977   6.281  16.338  0.00  0.00    +0.000 A 
ATOM      8  N   UNL     1       7.639   5.442  15.436  0.00  0.00    +0.000 N 
ATOM      9  N   UNL     1       7.663   7.329  16.769  0.00  0.00    +0.000 NA
ATOM     10  H   UNL     1       7.139  10.127  17.725  0.00  0.00    +0.000 HD
ATOM     11  H   UNL     1       3.547   5.721  17.414  0.00  0.00    +0.000 HD
ATOM     12  H   UNL     1       8.521   5.881  15.200  0.00  0.00    +0.000 HD
ENDROOT
BRANCH   5  13
ATOM     13  C   UNL     1       2.811   7.389  18.391  0.00  0.00    +0.000 A 
ATOM     14  C   UNL     1       2.268   8.445  17.641  0.00  0.00    +0.000 A 
ATOM     15  C   UNL     1       1.339   9.326  18.200  0.00  0.00    +0.000 A 
ATOM     16  C   UNL     1       0.927   9.160  19.519  0.00  0.00    +0.000 A 
ATOM     17  C   UNL     1       1.430   8.101  20.270  0.00  0.00    +0.000 A 
ATOM     18  C   UNL     1       2.356   7.223  19.705  0.00  0.00    +0.000 A 
ENDBRANCH   5  13
BRANCH   8  19
ATOM     19  C   UNL     1       7.059   4.783  14.335  0.00  0.00    +0.000 A 
ATOM     20  C   UNL     1       5.866   4.052  14.429  0.00  0.00    +0.000 A 
ATOM     21  C   UNL     1       5.317   3.428  13.306  0.00  0.00    +0.000 A 
ATOM     22  C   UNL     1       5.952   3.535  12.072  0.00  0.00    +0.000 A 
ATOM     23  C   UNL     1       7.124   4.280  11.958  0.00  0.00    +0.000 A 
ATOM     24  C   UNL     1       7.665   4.912  13.080  0.00  0.00    +0.000 A 
ENDBRANCH   8  19
BRANCH   1  25
ATOM     25  C   UNL     1       9.044   9.310  18.033  0.00  0.00    +0.000 C 
BRANCH  25  30
ATOM     26 BR   UNL     1      10.980  15.192  17.701  0.00  0.00    +0.000 Br
ATOM     27  C   UNL     1      10.390  13.399  17.820  0.00  0.00    +0.000 A 
ATOM     28  C   UNL     1      11.318  12.375  17.971  0.00  0.00    +0.000 A 
ATOM     29  C   UNL     1      10.877  11.056  18.049  0.00  0.00    +0.000 A 
ATOM     30  C   UNL     1       9.506  10.752  17.987  0.00  0.00    +0.000 A 
ATOM     31  C   UNL     1       8.582  11.794  17.831  0.00  0.00    +0.000 A 
ATOM     32  C   UNL     1       9.024  13.118  17.750  0.00  0.00    +0.000 A 
ENDBRANCH  25  30
ENDBRANCH   1  25
TORSDOF 4
ENDMDL
MODEL 8
REMARK VINA RESULT:      -7.9      0.645      1.417
REMARK  Name = 
REMARK  4 active torsions:
REMARK  status: ('A' for Active; 'I' for Inactive)
REMARK    1  A    between atoms: C_5  and  C_6
REMARK    2  A    between atoms: C_6  and  N_7
REMARK    3  A    between atoms: N_11  and  C_12
REMARK    4  A    between atoms: N_20  and  C_21
REMARK                            x       y       z     vdW  Elec       q    Type
REMARK                         _______ _______ _______ _____ _____    ______ ____
ROOT
ATOM      1  N   UNL     1       6.983   7.816  17.687  0.00  0.00    +0.000 N 
ATOM      2  C   UNL     1       6.560   6.647  17.090  0.00  0.00    +0.000 A 
ATOM      3  N   UNL     1       5.557   6.036  17.691  0.00  0.00    +0.000 NA
ATOM      4  C   UNL     1       5.230   4.838  17.231  0.00  0.00    +0.000 A 
ATOM      5  N   UNL     1       4.249   4.064  17.848  0.00  0.00    +0.000 N 
ATOM      6  N   UNL     1       5.768   4.312  16.145  0.00  0.00    +0.000 NA
ATOM      7  C   UNL     1       6.689   5.046  15.534  0.00  0.00    +0.000 A 
ATOM      8  N   UNL     1       7.218   4.617  14.312  0.00  0.00    +0.000 N 
ATOM      9  N   UNL     1       7.157   6.194  16.000  0.00  0.00    +0.000 NA
ATOM     10  H   UNL     1       6.221   8.483  17.704  0.00  0.00    +0.000 HD
ATOM     11  H   UNL     1       4.117   3.206  17.332  0.00  0.00    +0.000 HD
ATOM     12  H   UNL     1       7.810   5.360  13.958  0.00  0.00    +0.000 HD
ENDROOT
BRANCH   5  13
ATOM     13  C   UNL     1       3.313   4.370  18.842  0.00  0.00    +0.000 A 
ATOM     14  C   UNL     1       2.501   3.342  19.345  0.00  0.00    +0.000 A 
ATOM     15  C   UNL     1       1.477   3.608  20.258  0.00  0.00    +0.000 A 
ATOM     16  C   UNL     1       1.254   4.912  20.693  0.00  0.00    +0.000 A 
ATOM     17  C   UNL     1       2.068   5.941  20.230  0.00  0.00    +0.000 A 
ATOM     18  C   UNL     1       3.090   5.668  19.319  0.00  0.00    +0.000 A 
ENDBRANCH   5  13
BRANCH   8  19
ATOM     19  C   UNL     1       6.513   3.961  13.286  0.00  0.00    +0.000 A 
ATOM     20  C   UNL     1       7.127   3.078  12.386  0.00  0.00    +0.000 A 
ATOM     21  C   UNL     1       6.384   2.436  11.392  0.00  0.00    +0.000 A 
ATOM     22  C   UNL     1       5.015   2.664  11.291  0.00  0.00    +0.000 A 
ATOM     23  C   UNL     1       4.386   3.519  12.194  0.00  0.00    +0.000 A 
ATOM     24  C   UNL     1       5.129   4.151  13.193  0.00  0.00    +0.000 A 
ENDBRANCH   8  19
BRANCH   1  25
ATOM     25  C   UNL     1       8.267   8.330  17.278  0.00  0.00    +0.000 C 
BRANCH  25  30
ATOM     26 BR   UNL     1       9.310  13.489  20.557  0.00  0.00    +0.000 Br
ATOM     27  C   UNL     1       9.007  11.918  19.548  0.00  0.00    +0.000 A 
ATOM     28  C   UNL     1       8.422  12.007  18.291  0.00  0.00    +0.000 A 
ATOM     29  C   UNL     1       8.194  10.845  17.557  0.00  0.00    +0.000 A 
ATOM     30  C   UNL     1       8.558   9.588  18.071  0.00  0.00    +0.000 A 
ATOM     31  C   UNL     1       9.144   9.513  19.342  0.00  0.00    +0.000 A 
ATOM     32  C   UNL     1       9.371  10.679  20.079  0.00  0.00    +0.000 A 
ENDBRANCH  25  30
ENDBRANCH   1  25
TORSDOF 4
ENDMDL
MODEL 9
REMARK VINA RESULT:      -7.8      7.512     10.918
REMARK  Name = 
REMARK  4 active torsions:
REMARK  status: ('A' for Active; 'I' for Inactive)
REMARK    1  A    between atoms: C_5  and  C_6
REMARK    2  A    between atoms: C_6  and  N_7
REMARK    3  A    between atoms: N_11  and  C_12
REMARK    4  A    between atoms: N_20  and  C_21
REMARK                            x       y       z     vdW  Elec       q    Type
REMARK                         _______ _______ _______ _____ _____    ______ ____
ROOT
ATOM      1  N   UNL     1       0.301   9.331  21.048  0.00  0.00    +0.000 N 
ATOM      2  C   UNL     1       0.239  10.449  20.243  0.00  0.00    +0.000 A 
ATOM      3  N   UNL     1      -0.964  10.765  19.805  0.00  0.00    +0.000 NA
ATOM      4  C   UNL     1      -1.033  11.739  18.911  0.00  0.00    +0.000 A 
ATOM      5  N   UNL     1      -2.240  12.093  18.311  0.00  0.00    +0.000 N 
ATOM      6  N   UNL     1       0.011  12.467  18.557  0.00  0.00    +0.000 NA
ATOM      7  C   UNL     1       1.165  12.157  19.135  0.00  0.00    +0.000 A 
ATOM      8  N   UNL     1       2.290  12.956  18.908  0.00  0.00    +0.000 N 
ATOM      9  N   UNL     1       1.338  11.121  19.942  0.00  0.00    +0.000 NA
ATOM     10  H   UNL     1      -0.267   9.476  21.874  0.00  0.00    +0.000 HD
ATOM     11  H   UNL     1      -2.096  12.876  17.690  0.00  0.00    +0.000 HD
ATOM     12  H   UNL     1       3.028  12.624  19.520  0.00  0.00    +0.000 HD
ENDROOT
BRANCH   5  13
ATOM     13  C   UNL     1      -3.561  11.731  18.598  0.00  0.00    +0.000 A 
ATOM     14  C   UNL     1      -4.189  10.771  17.789  0.00  0.00    +0.000 A 
ATOM     15  C   UNL     1      -5.538  10.451  17.960  0.00  0.00    +0.000 A 
ATOM     16  C   UNL     1      -6.282  11.081  18.954  0.00  0.00    +0.000 A 
ATOM     17  C   UNL     1      -5.671  12.014  19.786  0.00  0.00    +0.000 A 
ATOM     18  C   UNL     1      -4.322  12.327  19.611  0.00  0.00    +0.000 A 
ENDBRANCH   5  13
BRANCH   8  19
ATOM     19  C   UNL     1       2.301  14.356  18.769  0.00  0.00    +0.000 A 
ATOM     20  C   UNL     1       1.536  15.207  19.580  0.00  0.00    +0.000 A 
ATOM     21  C   UNL     1       1.590  16.593  19.417  0.00  0.00    +0.000 A 
ATOM     22  C   UNL     1       2.417  17.147  18.444  0.00  0.00    +0.000 A 
ATOM     23  C   UNL     1       3.203  16.316  17.648  0.00  0.00    +0.000 A 
ATOM     24  C   UNL     1       3.155  14.930  17.820  0.00  0.00    +0.000 A 
ENDBRANCH   8  19
BRANCH   1  25
ATOM     25  C   UNL     1       1.605   8.755  21.268  0.00  0.00    +0.000 C 
BRANCH  25  30
ATOM     26 BR   UNL     1       2.380   3.815  17.601  0.00  0.00    +0.000 Br
ATOM     27  C   UNL     1       2.128   5.324  18.712  0.00  0.00    +0.000 A 
ATOM     28  C   UNL     1       2.415   6.595  18.228  0.00  0.00    +0.000 A 
ATOM     29  C   UNL     1       2.235   7.701  19.054  0.00  0.00    +0.000 A 
ATOM     30  C   UNL     1       1.757   7.546  20.367  0.00  0.00    +0.000 A 
ATOM     31  C   UNL     1       1.475   6.259  20.844  0.00  0.00    +0.000 A 
ATOM     32  C   UNL     1       1.658   5.149  20.016  0.00  0.00    +0.000 A 
ENDBRANCH  25  30
ENDBRANCH   1  25
TORSDOF 4
ENDMDL
