MODEL 1
REMARK VINA RESULT:      -8.0      0.000      0.000
REMARK  Name = 
REMARK  6 active torsions:
REMARK  status: ('A' for Active; 'I' for Inactive)
REMARK    1  A    between atoms: C_2  and  C_3
REMARK    2  A    between atoms: C_3  and  N_4
REMARK    3  A    between atoms: N_4  and  C_5
REMARK    4  A    between atoms: C_10  and  C_11
REMARK    5  A    between atoms: C_12  and  C_13
REMARK    6  A    between atoms: C_16  and  C_17
REMARK                            x       y       z     vdW  Elec       q    Type
REMARK                         _______ _______ _______ _____ _____    ______ ____
ROOT
ATOM      1  C   UNL     1       6.089   3.996  13.036  0.00  0.00    +0.000 A 
ATOM      2  C   UNL     1       7.308   4.647  13.225  0.00  0.00    +0.000 A 
ATOM      3  C   UNL     1       7.671   5.111  14.491  0.00  0.00    +0.000 A 
ATOM      4  C   UNL     1       6.866   4.901  15.602  0.00  0.00    +0.000 A 
ATOM      5  N   UNL     1       7.264   5.362  16.792  0.00  0.00    +0.000 NA
ATOM      6  C   UNL     1       6.470   5.102  17.867  0.00  0.00    +0.000 A 
ATOM      7  C   UNL     1       7.019   5.619  19.160  0.00  0.00    +0.000 C 
ATOM      8  C   UNL     1       5.261   4.397  17.742  0.00  0.00    +0.000 A 
ATOM      9  N   UNL     1       4.864   3.945  16.518  0.00  0.00    +0.000 NA
ATOM     10  C   UNL     1       5.657   4.196  15.452  0.00  0.00    +0.000 A 
ATOM     11  C   UNL     1       5.300   3.753  14.171  0.00  0.00    +0.000 A 
ENDROOT
BRANCH   8  12
ATOM     12  C   UNL     1       4.362   4.027  18.871  0.00  0.00    +0.000 A 
ATOM     13  C   UNL     1       4.469   2.804  19.551  0.00  0.00    +0.000 A 
ATOM     14  C   UNL     1       3.538   2.404  20.518  0.00  0.00    +0.000 A 
ATOM     15  C   UNL     1       2.497   3.253  20.891  0.00  0.00    +0.000 A 
ATOM     16  C   UNL     1       1.494   2.822  21.918  0.00  0.00    +0.000 C 
ATOM     17  C   UNL     1       2.423   4.514  20.298  0.00  0.00    +0.000 A 
ATOM     18  C   UNL     1       3.340   4.892  19.302  0.00  0.00    +0.000 A 
ENDBRANCH   8  12
BRANCH   1  19
ATOM     19  N   UNL     1       5.775   3.502  11.760  0.00  0.00    +0.000 N 
ATOM     20  H   UNL     1       5.930   4.193  11.029  0.00  0.00    +0.000 HD
BRANCH  19  21
ATOM     21  C   UNL     1       4.483   2.851  11.596  0.00  0.00    +0.000 C 
BRANCH  21  23
ATOM     22  C   UNL     1       2.960   4.229   9.659  0.00  0.00    +0.000 C 
ATOM     23  C   UNL     1       3.663   3.593  10.554  0.00  0.00    +0.000 C 
ENDBRANCH  21  23
ENDBRANCH  19  21
ENDBRANCH   1  19
TORSDOF 4
ENDMDL
MODEL 2
REMARK VINA RESULT:      -7.7      1.574      1.895
REMARK  Name = 
REMARK  6 active torsions:
REMARK  status: ('A' for Active; 'I' for Inactive)
REMARK    1  A    between atoms: C_2  and  C_3
REMARK    2  A    between atoms: C_3  and  N_4
REMARK    3  A    between atoms: N_4  and  C_5
REMARK    4  A    between atoms: C_10  and  C_11
REMARK    5  A    between atoms: C_12  and  C_13
REMARK    6  A    between atoms: C_16  and  C_17
REMARK                            x       y       z     vdW  Elec       q    Type
REMARK                         _______ _______ _______ _____ _____    ______ ____
ROOT
ATOM      1  C   UNL     1       5.831   3.602  12.347  0.00  0.00    +0.000 A 
ATOM      2  C   UNL     1       7.174   3.979  12.362  0.00  0.00    +0.000 A 
ATOM      3  C   UNL     1       7.685   4.729  13.424  0.00  0.00    +0.000 A 
ATOM      4  C   UNL     1       6.898   5.079  14.512  0.00  0.00    +0.000 A 
ATOM      5  N   UNL     1       7.438   5.794  15.504  0.00  0.00    +0.000 NA
ATOM      6  C   UNL     1       6.649   6.084  16.574  0.00  0.00    +0.000 A 
ATOM      7  C   UNL     1       7.353   6.848  17.652  0.00  0.00    +0.000 C 
ATOM      8  C   UNL     1       5.306   5.676  16.638  0.00  0.00    +0.000 A 
ATOM      9  N   UNL     1       4.767   4.958  15.611  0.00  0.00    +0.000 NA
ATOM     10  C   UNL     1       5.553   4.662  14.551  0.00  0.00    +0.000 A 
ATOM     11  C   UNL     1       5.053   3.926  13.469  0.00  0.00    +0.000 A 
ENDROOT
BRANCH   8  12
ATOM     12  C   UNL     1       4.392   5.907  17.791  0.00  0.00    +0.000 A 
ATOM     13  C   UNL     1       4.345   5.050  18.902  0.00  0.00    +0.000 A 
ATOM     14  C   UNL     1       3.391   5.194  19.916  0.00  0.00    +0.000 A 
ATOM     15  C   UNL     1       2.486   6.253  19.890  0.00  0.00    +0.000 A 
ATOM     16  C   UNL     1       1.457   6.403  20.970  0.00  0.00    +0.000 C 
ATOM     17  C   UNL     1       2.572   7.176  18.846  0.00  0.00    +0.000 A 
ATOM     18  C   UNL     1       3.508   7.002  17.813  0.00  0.00    +0.000 A 
ENDBRANCH   8  12
BRANCH   1  19
ATOM     19  N   UNL     1       5.361   2.810  11.287  0.00  0.00    +0.000 N 
ATOM     20  H   UNL     1       5.759   3.086  10.392  0.00  0.00    +0.000 HD
BRANCH  19  21
ATOM     21  C   UNL     1       3.921   2.622  11.182  0.00  0.00    +0.000 C 
BRANCH  21  23
ATOM     22  C   UNL     1       2.847   4.497   9.365  0.00  0.00    +0.000 C 
ATOM     23  C   UNL     1       3.342   3.631  10.204  0.00  0.00    +0.000 C 
ENDBRANCH  21  23
ENDBRANCH  19  21
ENDBRANCH   1  19
TORSDOF 4
ENDMDL
MODEL 3
REMARK VINA RESULT:      -7.7      0.190      1.037
REMARK  Name = 
REMARK  6 active torsions:
REMARK  status: ('A' for Active; 'I' for Inactive)
REMARK    1  A    between atoms: C_2  and  C_3
REMARK    2  A    between atoms: C_3  and  N_4
REMARK    3  A    between atoms: N_4  and  C_5
REMARK    4  A    between atoms: C_10  and  C_11
REMARK    5  A    between atoms: C_12  and  C_13
REMARK    6  A    between atoms: C_16  and  C_17
REMARK                            x       y       z     vdW  Elec       q    Type
REMARK                         _______ _______ _______ _____ _____    ______ ____
ROOT
ATOM      1  C   UNL     1       6.258   4.005  12.981  0.00  0.00    +0.000 A 
ATOM      2  C   UNL     1       7.454   4.674  13.244  0.00  0.00    +0.000 A 
ATOM      3  C   UNL     1       7.738   5.132  14.533  0.00  0.00    +0.000 A 
ATOM      4  C   UNL     1       6.875   4.898  15.595  0.00  0.00    +0.000 A 
ATOM      5  N   UNL     1       7.197   5.354  16.809  0.00  0.00    +0.000 NA
ATOM      6  C   UNL     1       6.348   5.071  17.835  0.00  0.00    +0.000 A 
ATOM      7  C   UNL     1       6.814   5.585  19.161  0.00  0.00    +0.000 C 
ATOM      8  C   UNL     1       5.160   4.349  17.636  0.00  0.00    +0.000 A 
ATOM      9  N   UNL     1       4.840   3.901  16.387  0.00  0.00    +0.000 NA
ATOM     10  C   UNL     1       5.687   4.175  15.370  0.00  0.00    +0.000 A 
ATOM     11  C   UNL     1       5.411   3.738  14.067  0.00  0.00    +0.000 A 
ENDROOT
BRANCH   8  12
ATOM     12  C   UNL     1       4.205   3.953  18.709  0.00  0.00    +0.000 A 
ATOM     13  C   UNL     1       3.133   4.768  19.104  0.00  0.00    +0.000 A 
ATOM     14  C   UNL     1       2.323   4.454  20.203  0.00  0.00    +0.000 A 
ATOM     15  C   UNL     1       2.515   3.266  20.907  0.00  0.00    +0.000 A 
ATOM     16  C   UNL     1       1.655   2.934  22.089  0.00  0.00    +0.000 C 
ATOM     17  C   UNL     1       3.514   2.392  20.475  0.00  0.00    +0.000 A 
ATOM     18  C   UNL     1       4.346   2.733  19.396  0.00  0.00    +0.000 A 
ENDBRANCH   8  12
BRANCH   1  19
ATOM     19  N   UNL     1       6.025   3.518  11.685  0.00  0.00    +0.000 N 
ATOM     20  H   UNL     1       6.107   4.245  10.978  0.00  0.00    +0.000 HD
BRANCH  19  21
ATOM     21  C   UNL     1       4.823   2.723  11.477  0.00  0.00    +0.000 C 
BRANCH  21  23
ATOM     22  C   UNL     1       3.018   4.135   9.829  0.00  0.00    +0.000 C 
ATOM     23  C   UNL     1       3.852   3.484  10.590  0.00  0.00    +0.000 C 
ENDBRANCH  21  23
ENDBRANCH  19  21
ENDBRANCH   1  19
TORSDOF 4
ENDMDL
MODEL 4
REMARK VINA RESULT:      -7.4      3.347      4.739
REMARK  Name = 
REMARK  6 active torsions:
REMARK  status: ('A' for Active; 'I' for Inactive)
REMARK    1  A    between atoms: C_2  and  C_3
REMARK    2  A    between atoms: C_3  and  N_4
REMARK    3  A    between atoms: N_4  and  C_5
REMARK    4  A    between atoms: C_10  and  C_11
REMARK    5  A    between atoms: C_12  and  C_13
REMARK    6  A    between atoms: C_16  and  C_17
REMARK                            x       y       z     vdW  Elec       q    Type
REMARK                         _______ _______ _______ _____ _____    ______ ____
ROOT
ATOM      1  C   UNL     1       5.858   5.078  15.371  0.00  0.00    +0.000 A 
ATOM      2  C   UNL     1       5.699   3.820  15.951  0.00  0.00    +0.000 A 
ATOM      3  C   UNL     1       4.895   3.661  17.082  0.00  0.00    +0.000 A 
ATOM      4  C   UNL     1       4.196   4.727  17.634  0.00  0.00    +0.000 A 
ATOM      5  N   UNL     1       3.437   4.519  18.714  0.00  0.00    +0.000 NA
ATOM      6  C   UNL     1       2.734   5.577  19.204  0.00  0.00    +0.000 A 
ATOM      7  C   UNL     1       1.880   5.237  20.386  0.00  0.00    +0.000 C 
ATOM      8  C   UNL     1       2.812   6.853  18.621  0.00  0.00    +0.000 A 
ATOM      9  N   UNL     1       3.601   7.049  17.525  0.00  0.00    +0.000 NA
ATOM     10  C   UNL     1       4.293   5.997  17.034  0.00  0.00    +0.000 A 
ATOM     11  C   UNL     1       5.118   6.141  15.910  0.00  0.00    +0.000 A 
ENDROOT
BRANCH   8  12
ATOM     12  C   UNL     1       2.038   8.047  19.061  0.00  0.00    +0.000 A 
ATOM     13  C   UNL     1       1.692   8.271  20.402  0.00  0.00    +0.000 A 
ATOM     14  C   UNL     1       0.850   9.321  20.790  0.00  0.00    +0.000 A 
ATOM     15  C   UNL     1       0.378  10.233  19.849  0.00  0.00    +0.000 A 
ATOM     16  C   UNL     1      -0.532  11.351  20.261  0.00  0.00    +0.000 C 
ATOM     17  C   UNL     1       0.784  10.089  18.521  0.00  0.00    +0.000 A 
ATOM     18  C   UNL     1       1.598   9.011  18.135  0.00  0.00    +0.000 A 
ENDBRANCH   8  12
BRANCH   1  19
ATOM     19  N   UNL     1       6.637   5.194  14.208  0.00  0.00    +0.000 N 
ATOM     20  H   UNL     1       6.305   5.933  13.592  0.00  0.00    +0.000 HD
BRANCH  19  21
ATOM     21  C   UNL     1       6.905   3.974  13.460  0.00  0.00    +0.000 C 
BRANCH  21  23
ATOM     22  C   UNL     1       4.683   3.343  11.838  0.00  0.00    +0.000 C 
ATOM     23  C   UNL     1       5.709   3.634  12.586  0.00  0.00    +0.000 C 
ENDBRANCH  21  23
ENDBRANCH  19  21
ENDBRANCH   1  19
TORSDOF 4
ENDMDL
MODEL 5
REMARK VINA RESULT:      -7.4      1.916      2.519
REMARK  Name = 
REMARK  6 active torsions:
REMARK  status: ('A' for Active; 'I' for Inactive)
REMARK    1  A    between atoms: C_2  and  C_3
REMARK    2  A    between atoms: C_3  and  N_4
REMARK    3  A    between atoms: N_4  and  C_5
REMARK    4  A    between atoms: C_10  and  C_11
REMARK    5  A    between atoms: C_12  and  C_13
REMARK    6  A    between atoms: C_16  and  C_17
REMARK                            x       y       z     vdW  Elec       q    Type
REMARK                         _______ _______ _______ _____ _____    ______ ____
ROOT
ATOM      1  C   UNL     1       5.971   3.336  12.464  0.00  0.00    +0.000 A 
ATOM      2  C   UNL     1       7.275   3.829  12.442  0.00  0.00    +0.000 A 
ATOM      3  C   UNL     1       7.725   4.679  13.455  0.00  0.00    +0.000 A 
ATOM      4  C   UNL     1       6.918   5.020  14.531  0.00  0.00    +0.000 A 
ATOM      5  N   UNL     1       7.400   5.834  15.476  0.00  0.00    +0.000 NA
ATOM      6  C   UNL     1       6.595   6.114  16.537  0.00  0.00    +0.000 A 
ATOM      7  C   UNL     1       7.236   6.996  17.563  0.00  0.00    +0.000 C 
ATOM      8  C   UNL     1       5.293   5.595  16.638  0.00  0.00    +0.000 A 
ATOM      9  N   UNL     1       4.813   4.776  15.658  0.00  0.00    +0.000 NA
ATOM     10  C   UNL     1       5.615   4.491  14.609  0.00  0.00    +0.000 A 
ATOM     11  C   UNL     1       5.175   3.654  13.574  0.00  0.00    +0.000 A 
ENDROOT
BRANCH   8  12
ATOM     12  C   UNL     1       4.369   5.809  17.787  0.00  0.00    +0.000 A 
ATOM     13  C   UNL     1       4.298   4.925  18.875  0.00  0.00    +0.000 A 
ATOM     14  C   UNL     1       3.335   5.058  19.882  0.00  0.00    +0.000 A 
ATOM     15  C   UNL     1       2.445   6.131  19.874  0.00  0.00    +0.000 A 
ATOM     16  C   UNL     1       1.407   6.267  20.946  0.00  0.00    +0.000 C 
ATOM     17  C   UNL     1       2.556   7.078  18.854  0.00  0.00    +0.000 A 
ATOM     18  C   UNL     1       3.501   6.916  17.827  0.00  0.00    +0.000 A 
ENDBRANCH   8  12
BRANCH   1  19
ATOM     19  N   UNL     1       5.565   2.448  11.454  0.00  0.00    +0.000 N 
ATOM     20  H   UNL     1       4.724   1.935  11.706  0.00  0.00    +0.000 HD
BRANCH  19  21
ATOM     21  C   UNL     1       6.576   1.554  10.906  0.00  0.00    +0.000 C 
BRANCH  21  23
ATOM     22  C   UNL     1       5.841  -1.128  11.391  0.00  0.00    +0.000 C 
ATOM     23  C   UNL     1       6.181   0.110  11.167  0.00  0.00    +0.000 C 
ENDBRANCH  21  23
ENDBRANCH  19  21
ENDBRANCH   1  19
TORSDOF 4
ENDMDL
MODEL 6
REMARK VINA RESULT:      -7.4      3.436      5.048
REMARK  Name = 
REMARK  6 active torsions:
REMARK  status: ('A' for Active; 'I' for Inactive)
REMARK    1  A    between atoms: C_2  and  C_3
REMARK    2  A    between atoms: C_3  and  N_4
REMARK    3  A    between atoms: N_4  and  C_5
REMARK    4  A    between atoms: C_10  and  C_11
REMARK    5  A    between atoms: C_12  and  C_13
REMARK    6  A    between atoms: C_16  and  C_17
REMARK                            x       y       z     vdW  Elec       q    Type
REMARK                         _______ _______ _______ _____ _____    ______ ____
ROOT
ATOM      1  C   UNL     1       5.537   5.308  15.788  0.00  0.00    +0.000 A 
ATOM      2  C   UNL     1       5.314   4.001  16.219  0.00  0.00    +0.000 A 
ATOM      3  C   UNL     1       4.482   3.751  17.314  0.00  0.00    +0.000 A 
ATOM      4  C   UNL     1       3.820   4.777  17.973  0.00  0.00    +0.000 A 
ATOM      5  N   UNL     1       3.033   4.482  19.012  0.00  0.00    +0.000 NA
ATOM      6  C   UNL     1       2.366   5.507  19.610  0.00  0.00    +0.000 A 
ATOM      7  C   UNL     1       1.477   5.075  20.734  0.00  0.00    +0.000 C 
ATOM      8  C   UNL     1       2.509   6.837  19.177  0.00  0.00    +0.000 A 
ATOM      9  N   UNL     1       3.327   7.121  18.122  0.00  0.00    +0.000 NA
ATOM     10  C   UNL     1       3.982   6.102  17.524  0.00  0.00    +0.000 A 
ATOM     11  C   UNL     1       4.833   6.335  16.435  0.00  0.00    +0.000 A 
ENDROOT
BRANCH   8  12
ATOM     12  C   UNL     1       1.779   8.007  19.739  0.00  0.00    +0.000 A 
ATOM     13  C   UNL     1       1.378   9.097  18.952  0.00  0.00    +0.000 A 
ATOM     14  C   UNL     1       0.815  10.252  19.508  0.00  0.00    +0.000 A 
ATOM     15  C   UNL     1       0.566  10.328  20.877  0.00  0.00    +0.000 A 
ATOM     16  C   UNL     1      -0.027  11.569  21.475  0.00  0.00    +0.000 C 
ATOM     17  C   UNL     1       0.867   9.220  21.671  0.00  0.00    +0.000 A 
ATOM     18  C   UNL     1       1.466   8.080  21.110  0.00  0.00    +0.000 A 
ENDBRANCH   8  12
BRANCH   1  19
ATOM     19  N   UNL     1       6.341   5.521  14.656  0.00  0.00    +0.000 N 
ATOM     20  H   UNL     1       5.855   6.039  13.929  0.00  0.00    +0.000 HD
BRANCH  19  21
ATOM     21  C   UNL     1       7.030   4.364  14.101  0.00  0.00    +0.000 C 
BRANCH  21  23
ATOM     22  C   UNL     1       5.471   3.224  12.041  0.00  0.00    +0.000 C 
ATOM     23  C   UNL     1       6.191   3.751  12.992  0.00  0.00    +0.000 C 
ENDBRANCH  21  23
ENDBRANCH  19  21
ENDBRANCH   1  19
TORSDOF 4
ENDMDL
MODEL 7
REMARK VINA RESULT:      -7.3      1.349      1.579
REMARK  Name = 
REMARK  6 active torsions:
REMARK  status: ('A' for Active; 'I' for Inactive)
REMARK    1  A    between atoms: C_2  and  C_3
REMARK    2  A    between atoms: C_3  and  N_4
REMARK    3  A    between atoms: N_4  and  C_5
REMARK    4  A    between atoms: C_10  and  C_11
REMARK    5  A    between atoms: C_12  and  C_13
REMARK    6  A    between atoms: C_16  and  C_17
REMARK                            x       y       z     vdW  Elec       q    Type
REMARK                         _______ _______ _______ _____ _____    ______ ____
ROOT
ATOM      1  C   UNL     1       6.166   3.782  13.036  0.00  0.00    +0.000 A 
ATOM      2  C   UNL     1       7.355   4.490  13.210  0.00  0.00    +0.000 A 
ATOM      3  C   UNL     1       7.681   5.025  14.459  0.00  0.00    +0.000 A 
ATOM      4  C   UNL     1       6.869   4.833  15.567  0.00  0.00    +0.000 A 
ATOM      5  N   UNL     1       7.230   5.364  16.740  0.00  0.00    +0.000 NA
ATOM      6  C   UNL     1       6.431   5.121  17.815  0.00  0.00    +0.000 A 
ATOM      7  C   UNL     1       6.940   5.718  19.090  0.00  0.00    +0.000 C 
ATOM      8  C   UNL     1       5.253   4.363  17.707  0.00  0.00    +0.000 A 
ATOM      9  N   UNL     1       4.893   3.840  16.500  0.00  0.00    +0.000 NA
ATOM     10  C   UNL     1       5.690   4.074  15.434  0.00  0.00    +0.000 A 
ATOM     11  C   UNL     1       5.370   3.559  14.170  0.00  0.00    +0.000 A 
ENDROOT
BRANCH   8  12
ATOM     12  C   UNL     1       4.353   4.008  18.840  0.00  0.00    +0.000 A 
ATOM     13  C   UNL     1       4.489   2.817  19.568  0.00  0.00    +0.000 A 
ATOM     14  C   UNL     1       3.560   2.425  20.540  0.00  0.00    +0.000 A 
ATOM     15  C   UNL     1       2.490   3.255  20.869  0.00  0.00    +0.000 A 
ATOM     16  C   UNL     1       1.488   2.832  21.901  0.00  0.00    +0.000 C 
ATOM     17  C   UNL     1       2.384   4.490  20.227  0.00  0.00    +0.000 A 
ATOM     18  C   UNL     1       3.300   4.857  19.227  0.00  0.00    +0.000 A 
ENDBRANCH   8  12
BRANCH   1  19
ATOM     19  N   UNL     1       5.891   3.218  11.780  0.00  0.00    +0.000 N 
ATOM     20  H   UNL     1       4.978   2.768  11.749  0.00  0.00    +0.000 HD
BRANCH  19  21
ATOM     21  C   UNL     1       6.913   2.363  11.194  0.00  0.00    +0.000 C 
BRANCH  21  23
ATOM     22  C   UNL     1       6.055  -0.326  11.252  0.00  0.00    +0.000 C 
ATOM     23  C   UNL     1       6.452   0.916  11.225  0.00  0.00    +0.000 C 
ENDBRANCH  21  23
ENDBRANCH  19  21
ENDBRANCH   1  19
TORSDOF 4
ENDMDL
MODEL 8
REMARK VINA RESULT:      -7.2      1.521      2.175
REMARK  Name = 
REMARK  6 active torsions:
REMARK  status: ('A' for Active; 'I' for Inactive)
REMARK    1  A    between atoms: C_2  and  C_3
REMARK    2  A    between atoms: C_3  and  N_4
REMARK    3  A    between atoms: N_4  and  C_5
REMARK    4  A    between atoms: C_10  and  C_11
REMARK    5  A    between atoms: C_12  and  C_13
REMARK    6  A    between atoms: C_16  and  C_17
REMARK                            x       y       z     vdW  Elec       q    Type
REMARK                         _______ _______ _______ _____ _____    ______ ____
ROOT
ATOM      1  C   UNL     1       6.387   3.576  12.343  0.00  0.00    +0.000 A 
ATOM      2  C   UNL     1       7.482   4.435  12.433  0.00  0.00    +0.000 A 
ATOM      3  C   UNL     1       7.705   5.175  13.597  0.00  0.00    +0.000 A 
ATOM      4  C   UNL     1       6.883   5.048  14.709  0.00  0.00    +0.000 A 
ATOM      5  N   UNL     1       7.144   5.777  15.798  0.00  0.00    +0.000 NA
ATOM      6  C   UNL     1       6.342   5.596  16.884  0.00  0.00    +0.000 A 
ATOM      7  C   UNL     1       6.738   6.422  18.068  0.00  0.00    +0.000 C 
ATOM      8  C   UNL     1       5.261   4.699  16.867  0.00  0.00    +0.000 A 
ATOM      9  N   UNL     1       5.003   3.972  15.742  0.00  0.00    +0.000 NA
ATOM     10  C   UNL     1       5.803   4.145  14.666  0.00  0.00    +0.000 A 
ATOM     11  C   UNL     1       5.585   3.423  13.484  0.00  0.00    +0.000 A 
ENDROOT
BRANCH   8  12
ATOM     12  C   UNL     1       4.371   4.404  18.024  0.00  0.00    +0.000 A 
ATOM     13  C   UNL     1       3.275   5.214  18.359  0.00  0.00    +0.000 A 
ATOM     14  C   UNL     1       2.525   5.011  19.524  0.00  0.00    +0.000 A 
ATOM     15  C   UNL     1       2.805   3.936  20.367  0.00  0.00    +0.000 A 
ATOM     16  C   UNL     1       2.010   3.724  21.620  0.00  0.00    +0.000 C 
ATOM     17  C   UNL     1       3.830   3.059  20.007  0.00  0.00    +0.000 A 
ATOM     18  C   UNL     1       4.601   3.293  18.856  0.00  0.00    +0.000 A 
ENDBRANCH   8  12
BRANCH   1  19
ATOM     19  N   UNL     1       6.219   2.812  11.177  0.00  0.00    +0.000 N 
ATOM     20  H   UNL     1       5.262   2.485  11.064  0.00  0.00    +0.000 HD
BRANCH  19  21
ATOM     21  C   UNL     1       7.170   1.735  10.941  0.00  0.00    +0.000 C 
BRANCH  21  23
ATOM     22  C   UNL     1       5.912  -0.756  11.367  0.00  0.00    +0.000 C 
ATOM     23  C   UNL     1       6.493   0.394  11.171  0.00  0.00    +0.000 C 
ENDBRANCH  21  23
ENDBRANCH  19  21
ENDBRANCH   1  19
TORSDOF 4
ENDMDL
MODEL 9
REMARK VINA RESULT:      -7.1      0.903      1.724
REMARK  Name = 
REMARK  6 active torsions:
REMARK  status: ('A' for Active; 'I' for Inactive)
REMARK    1  A    between atoms: C_2  and  C_3
REMARK    2  A    between atoms: C_3  and  N_4
REMARK    3  A    between atoms: N_4  and  C_5
REMARK    4  A    between atoms: C_10  and  C_11
REMARK    5  A    between atoms: C_12  and  C_13
REMARK    6  A    between atoms: C_16  and  C_17
REMARK                            x       y       z     vdW  Elec       q    Type
REMARK                         _______ _______ _______ _____ _____    ______ ____
ROOT
ATOM      1  C   UNL     1       6.419   4.111  13.024  0.00  0.00    +0.000 A 
ATOM      2  C   UNL     1       7.575   4.819  13.353  0.00  0.00    +0.000 A 
ATOM      3  C   UNL     1       7.783   5.260  14.662  0.00  0.00    +0.000 A 
ATOM      4  C   UNL     1       6.884   4.972  15.679  0.00  0.00    +0.000 A 
ATOM      5  N   UNL     1       7.134   5.415  16.915  0.00  0.00    +0.000 NA
ATOM      6  C   UNL     1       6.252   5.079  17.896  0.00  0.00    +0.000 A 
ATOM      7  C   UNL     1       6.638   5.582  19.252  0.00  0.00    +0.000 C 
ATOM      8  C   UNL     1       5.102   4.316  17.630  0.00  0.00    +0.000 A 
ATOM      9  N   UNL     1       4.856   3.883  16.359  0.00  0.00    +0.000 NA
ATOM     10  C   UNL     1       5.736   4.209  15.387  0.00  0.00    +0.000 A 
ATOM     11  C   UNL     1       5.535   3.790  14.065  0.00  0.00    +0.000 A 
ENDROOT
BRANCH   8  12
ATOM     12  C   UNL     1       4.117   3.862  18.651  0.00  0.00    +0.000 A 
ATOM     13  C   UNL     1       2.866   4.476  18.819  0.00  0.00    +0.000 A 
ATOM     14  C   UNL     1       2.002   4.135  19.867  0.00  0.00    +0.000 A 
ATOM     15  C   UNL     1       2.333   3.109  20.750  0.00  0.00    +0.000 A 
ATOM     16  C   UNL     1       1.414   2.750  21.878  0.00  0.00    +0.000 C 
ATOM     17  C   UNL     1       3.528   2.417  20.548  0.00  0.00    +0.000 A 
ATOM     18  C   UNL     1       4.406   2.791  19.517  0.00  0.00    +0.000 A 
ENDBRANCH   8  12
BRANCH   1  19
ATOM     19  N   UNL     1       6.262   3.643  11.709  0.00  0.00    +0.000 N 
ATOM     20  H   UNL     1       6.241   4.399  11.029  0.00  0.00    +0.000 HD
BRANCH  19  21
ATOM     21  C   UNL     1       5.188   2.691  11.463  0.00  0.00    +0.000 C 
BRANCH  21  23
ATOM     22  C   UNL     1       6.255   0.089  11.214  0.00  0.00    +0.000 C 
ATOM     23  C   UNL     1       5.763   1.291  11.329  0.00  0.00    +0.000 C 
ENDBRANCH  21  23
ENDBRANCH  19  21
ENDBRANCH   1  19
TORSDOF 4
ENDMDL
