MODEL 1
REMARK VINA RESULT:      -8.1      0.000      0.000
REMARK  Name = 
REMARK  11 active torsions:
REMARK  status: ('A' for Active; 'I' for Inactive)
REMARK    1  A    between atoms: C_1  and  O_2
REMARK    2  A    between atoms: O_2  and  C_3
REMARK    3  A    between atoms: C_5  and  C_6
REMARK    4  A    between atoms: N_7  and  N_8
REMARK    5  A    between atoms: N_8  and  C_9
REMARK    6  A    between atoms: C_9  and  N_11
REMARK    7  A    between atoms: N_11  and  C_12
REMARK    8  A    between atoms: C_21  and  O_22
REMARK    9  A    between atoms: O_22  and  C_23
REMARK   10  A    between atoms: C_23  and  C_25
REMARK   11  A    between atoms: C_25  and  C_26
REMARK                            x       y       z     vdW  Elec       q    Type
REMARK                         _______ _______ _______ _____ _____    ______ ____
ROOT
ATOM      1  C   UNL     1       2.155   5.580  20.032  0.00  0.00    +0.000 A 
ATOM      2  C   UNL     1       1.651   6.611  20.839  0.00  0.00    +0.000 A 
ATOM      3  C   UNL     1       1.602   7.916  20.347  0.00  0.00    +0.000 A 
ATOM      4  C   UNL     1       2.058   8.218  19.062  0.00  0.00    +0.000 A 
ATOM      5  C   UNL     1       2.524   7.205  18.244  0.00  0.00    +0.000 A 
ATOM      6  C   UNL     1       2.580   5.897  18.726  0.00  0.00    +0.000 A 
ENDROOT
BRANCH   1   8
ATOM      7  C   UNL     1       1.017   3.532  20.413  0.00  0.00    +0.000 C 
ATOM      8  O   UNL     1       2.242   4.271  20.428  0.00  0.00    +0.000 OA
ENDBRANCH   1   8
BRANCH   3   9
ATOM      9  C   UNL     1       1.068   9.004  21.185  0.00  0.00    +0.000 C 
ATOM     10  N   UNL     1       0.554  10.049  20.631  0.00  0.00    +0.000 NA
BRANCH  10  11
ATOM     11  N   UNL     1       0.162  11.038  21.467  0.00  0.00    +0.000 N 
ATOM     12  H   UNL     1       0.760  11.307  22.238  0.00  0.00    +0.000 HD
BRANCH  11  13
ATOM     13  C   UNL     1      -0.965  11.797  21.208  0.00  0.00    +0.000 C 
ATOM     14  S   UNL     1      -2.061  12.352  22.338  0.00  0.00    +0.000 S 
BRANCH  13  15
ATOM     15  N   UNL     1      -1.119  12.155  19.889  0.00  0.00    +0.000 N 
ATOM     16  H   UNL     1      -0.749  13.068  19.643  0.00  0.00    +0.000 HD
BRANCH  15  17
ATOM     17  C   UNL     1      -1.926  11.504  18.933  0.00  0.00    +0.000 A 
ATOM     18  C   UNL     1      -1.311  10.635  18.031  0.00  0.00    +0.000 A 
ATOM     19  C   UNL     1      -2.077   9.936  17.099  0.00  0.00    +0.000 A 
ATOM     20  C   UNL     1      -3.461  10.134  17.037  0.00  0.00    +0.000 A 
ATOM     21  C   UNL     1      -4.063  11.049  17.893  0.00  0.00    +0.000 A 
ATOM     22 CL   UNL     1      -5.758  11.336  17.793  0.00  0.00    +0.000 Cl
ATOM     23  C   UNL     1      -3.303  11.740  18.835  0.00  0.00    +0.000 A 
ENDBRANCH  15  17
ENDBRANCH  13  15
ENDBRANCH  11  13
ENDBRANCH  10  11
ENDBRANCH   3   9
BRANCH   6  24
ATOM     24  O   UNL     1       2.938   4.858  17.829  0.00  0.00    +0.000 OA
BRANCH  24  25
ATOM     25  C   UNL     1       4.203   4.288  17.983  0.00  0.00    +0.000 C 
ATOM     26  O   UNL     1       4.505   3.123  17.757  0.00  0.00    +0.000 OA
BRANCH  25  27
ATOM     27  C   UNL     1       5.144   5.306  18.586  0.00  0.00    +0.000 C 
BRANCH  27  28
ATOM     28  C   UNL     1       6.227   5.791  17.629  0.00  0.00    +0.000 C 
ATOM     29  S   UNL     1       5.645   5.998  15.914  0.00  0.00    +0.000 S 
ATOM     30  C   UNL     1       6.826   4.874  15.280  0.00  0.00    +0.000 C 
ATOM     31  O   UNL     1       6.904   4.573  14.103  0.00  0.00    +0.000 OA
ATOM     32  N   UNL     1       7.639   4.428  16.268  0.00  0.00    +0.000 N 
ATOM     33  C   UNL     1       7.414   4.857  17.543  0.00  0.00    +0.000 C 
ATOM     34  O   UNL     1       8.116   4.544  18.497  0.00  0.00    +0.000 OA
ATOM     35  H   UNL     1       8.372   3.772  16.061  0.00  0.00    +0.000 HD
ENDBRANCH  27  28
ENDBRANCH  25  27
ENDBRANCH  24  25
ENDBRANCH   6  24
TORSDOF 10
ENDMDL
MODEL 2
REMARK VINA RESULT:      -8.0      1.658      1.964
REMARK  Name = 
REMARK  11 active torsions:
REMARK  status: ('A' for Active; 'I' for Inactive)
REMARK    1  A    between atoms: C_1  and  O_2
REMARK    2  A    between atoms: O_2  and  C_3
REMARK    3  A    between atoms: C_5  and  C_6
REMARK    4  A    between atoms: N_7  and  N_8
REMARK    5  A    between atoms: N_8  and  C_9
REMARK    6  A    between atoms: C_9  and  N_11
REMARK    7  A    between atoms: N_11  and  C_12
REMARK    8  A    between atoms: C_21  and  O_22
REMARK    9  A    between atoms: O_22  and  C_23
REMARK   10  A    between atoms: C_23  and  C_25
REMARK   11  A    between atoms: C_25  and  C_26
REMARK                            x       y       z     vdW  Elec       q    Type
REMARK                         _______ _______ _______ _____ _____    ______ ____
ROOT
ATOM      1  C   UNL     1       2.452   5.227  19.642  0.00  0.00    +0.000 A 
ATOM      2  C   UNL     1       1.824   6.336  20.230  0.00  0.00    +0.000 A 
ATOM      3  C   UNL     1       1.971   7.600  19.657  0.00  0.00    +0.000 A 
ATOM      4  C   UNL     1       2.746   7.784  18.509  0.00  0.00    +0.000 A 
ATOM      5  C   UNL     1       3.341   6.694  17.901  0.00  0.00    +0.000 A 
ATOM      6  C   UNL     1       3.203   5.426  18.466  0.00  0.00    +0.000 A 
ENDROOT
BRANCH   1   8
ATOM      7  C   UNL     1       2.256   3.834  21.554  0.00  0.00    +0.000 C 
ATOM      8  O   UNL     1       2.365   3.950  20.132  0.00  0.00    +0.000 OA
ENDBRANCH   1   8
BRANCH   3   9
ATOM      9  C   UNL     1       1.310   8.769  20.263  0.00  0.00    +0.000 C 
ATOM     10  N   UNL     1       0.550   9.522  19.543  0.00  0.00    +0.000 NA
BRANCH  10  11
ATOM     11  N   UNL     1       0.046  10.620  20.152  0.00  0.00    +0.000 N 
ATOM     12  H   UNL     1      -0.032  10.641  21.161  0.00  0.00    +0.000 HD
BRANCH  11  13
ATOM     13  C   UNL     1      -0.223  11.778  19.444  0.00  0.00    +0.000 C 
ATOM     14  S   UNL     1      -0.033  13.340  20.001  0.00  0.00    +0.000 S 
BRANCH  13  15
ATOM     15  N   UNL     1      -0.621  11.571  18.144  0.00  0.00    +0.000 N 
ATOM     16  H   UNL     1       0.095  11.731  17.442  0.00  0.00    +0.000 HD
BRANCH  15  17
ATOM     17  C   UNL     1      -1.946  11.399  17.691  0.00  0.00    +0.000 A 
ATOM     18  C   UNL     1      -2.988  11.721  18.561  0.00  0.00    +0.000 A 
ATOM     19  C   UNL     1      -4.312  11.610  18.139  0.00  0.00    +0.000 A 
ATOM     20  C   UNL     1      -4.602  11.136  16.854  0.00  0.00    +0.000 A 
ATOM     21  C   UNL     1      -3.565  10.753  16.012  0.00  0.00    +0.000 A 
ATOM     22 CL   UNL     1      -3.912  10.123  14.448  0.00  0.00    +0.000 Cl
ATOM     23  C   UNL     1      -2.239  10.876  16.426  0.00  0.00    +0.000 A 
ENDBRANCH  15  17
ENDBRANCH  13  15
ENDBRANCH  11  13
ENDBRANCH  10  11
ENDBRANCH   3   9
BRANCH   6  24
ATOM     24  O   UNL     1       3.711   4.308  17.756  0.00  0.00    +0.000 OA
BRANCH  24  25
ATOM     25  C   UNL     1       5.054   3.982  17.952  0.00  0.00    +0.000 C 
ATOM     26  O   UNL     1       5.681   4.093  18.998  0.00  0.00    +0.000 OA
BRANCH  25  27
ATOM     27  C   UNL     1       5.668   3.566  16.634  0.00  0.00    +0.000 C 
BRANCH  27  28
ATOM     28  C   UNL     1       5.702   4.676  15.589  0.00  0.00    +0.000 C 
ATOM     29  S   UNL     1       5.541   4.070  13.878  0.00  0.00    +0.000 S 
ATOM     30  C   UNL     1       7.067   4.770  13.388  0.00  0.00    +0.000 C 
ATOM     31  O   UNL     1       7.530   4.661  12.267  0.00  0.00    +0.000 OA
ATOM     32  N   UNL     1       7.624   5.464  14.410  0.00  0.00    +0.000 N 
ATOM     33  C   UNL     1       6.981   5.485  15.612  0.00  0.00    +0.000 C 
ATOM     34  O   UNL     1       7.380   6.113  16.585  0.00  0.00    +0.000 OA
ATOM     35  H   UNL     1       8.508   5.926  14.285  0.00  0.00    +0.000 HD
ENDBRANCH  27  28
ENDBRANCH  25  27
ENDBRANCH  24  25
ENDBRANCH   6  24
TORSDOF 10
ENDMDL
MODEL 3
REMARK VINA RESULT:      -8.0      4.574      9.157
REMARK  Name = 
REMARK  11 active torsions:
REMARK  status: ('A' for Active; 'I' for Inactive)
REMARK    1  A    between atoms: C_1  and  O_2
REMARK    2  A    between atoms: O_2  and  C_3
REMARK    3  A    between atoms: C_5  and  C_6
REMARK    4  A    between atoms: N_7  and  N_8
REMARK    5  A    between atoms: N_8  and  C_9
REMARK    6  A    between atoms: C_9  and  N_11
REMARK    7  A    between atoms: N_11  and  C_12
REMARK    8  A    between atoms: C_21  and  O_22
REMARK    9  A    between atoms: O_22  and  C_23
REMARK   10  A    between atoms: C_23  and  C_25
REMARK   11  A    between atoms: C_25  and  C_26
REMARK                            x       y       z     vdW  Elec       q    Type
REMARK                         _______ _______ _______ _____ _____    ______ ____
ROOT
ATOM      1  C   UNL     1       0.999   8.416  20.262  0.00  0.00    +0.000 A 
ATOM      2  C   UNL     1       2.122   7.616  20.001  0.00  0.00    +0.000 A 
ATOM      3  C   UNL     1       2.749   7.687  18.756  0.00  0.00    +0.000 A 
ATOM      4  C   UNL     1       2.269   8.536  17.756  0.00  0.00    +0.000 A 
ATOM      5  C   UNL     1       1.184   9.355  18.013  0.00  0.00    +0.000 A 
ATOM      6  C   UNL     1       0.548   9.291  19.254  0.00  0.00    +0.000 A 
ENDROOT
BRANCH   1   8
ATOM      7  C   UNL     1       0.924   9.156  22.516  0.00  0.00    +0.000 C 
ATOM      8  O   UNL     1       0.319   8.415  21.452  0.00  0.00    +0.000 OA
ENDBRANCH   1   8
BRANCH   3   9
ATOM      9  C   UNL     1       3.933   6.856  18.475  0.00  0.00    +0.000 C 
ATOM     10  N   UNL     1       4.278   6.623  17.254  0.00  0.00    +0.000 NA
BRANCH  10  11
ATOM     11  N   UNL     1       5.326   5.785  17.079  0.00  0.00    +0.000 N 
ATOM     12  H   UNL     1       6.207   5.984  17.537  0.00  0.00    +0.000 HD
BRANCH  11  13
ATOM     13  C   UNL     1       5.184   4.580  16.415  0.00  0.00    +0.000 C 
ATOM     14  S   UNL     1       5.469   4.310  14.792  0.00  0.00    +0.000 S 
BRANCH  13  15
ATOM     15  N   UNL     1       4.833   3.523  17.222  0.00  0.00    +0.000 N 
ATOM     16  H   UNL     1       5.399   2.688  17.109  0.00  0.00    +0.000 HD
BRANCH  15  17
ATOM     17  C   UNL     1       3.656   3.409  17.990  0.00  0.00    +0.000 A 
ATOM     18  C   UNL     1       2.431   3.611  17.353  0.00  0.00    +0.000 A 
ATOM     19  C   UNL     1       1.240   3.464  18.063  0.00  0.00    +0.000 A 
ATOM     20  C   UNL     1       1.270   3.152  19.427  0.00  0.00    +0.000 A 
ATOM     21  C   UNL     1       2.492   3.015  20.074  0.00  0.00    +0.000 A 
ATOM     22 CL   UNL     1       2.540   2.679  21.762  0.00  0.00    +0.000 Cl
ATOM     23  C   UNL     1       3.684   3.148  19.364  0.00  0.00    +0.000 A 
ENDBRANCH  15  17
ENDBRANCH  13  15
ENDBRANCH  11  13
ENDBRANCH  10  11
ENDBRANCH   3   9
BRANCH   6  24
ATOM     24  O   UNL     1      -0.476  10.229  19.540  0.00  0.00    +0.000 OA
BRANCH  24  25
ATOM     25  C   UNL     1      -0.249  11.556  19.173  0.00  0.00    +0.000 C 
ATOM     26  O   UNL     1       0.661  12.272  19.570  0.00  0.00    +0.000 OA
BRANCH  25  27
ATOM     27  C   UNL     1      -1.372  12.031  18.278  0.00  0.00    +0.000 C 
BRANCH  27  28
ATOM     28  C   UNL     1      -2.425  10.967  17.989  0.00  0.00    +0.000 C 
ATOM     29  S   UNL     1      -2.151  10.077  16.422  0.00  0.00    +0.000 S 
ATOM     30  C   UNL     1      -3.712  10.537  15.781  0.00  0.00    +0.000 C 
ATOM     31  O   UNL     1      -4.104  10.223  14.671  0.00  0.00    +0.000 OA
ATOM     32  N   UNL     1      -4.414  11.246  16.697  0.00  0.00    +0.000 N 
ATOM     33  C   UNL     1      -3.830  11.522  17.898  0.00  0.00    +0.000 C 
ATOM     34  O   UNL     1      -4.394  12.121  18.805  0.00  0.00    +0.000 OA
ATOM     35  H   UNL     1      -5.335  11.585  16.476  0.00  0.00    +0.000 HD
ENDBRANCH  27  28
ENDBRANCH  25  27
ENDBRANCH  24  25
ENDBRANCH   6  24
TORSDOF 10
ENDMDL
MODEL 4
REMARK VINA RESULT:      -7.9      1.820      2.411
REMARK  Name = 
REMARK  11 active torsions:
REMARK  status: ('A' for Active; 'I' for Inactive)
REMARK    1  A    between atoms: C_1  and  O_2
REMARK    2  A    between atoms: O_2  and  C_3
REMARK    3  A    between atoms: C_5  and  C_6
REMARK    4  A    between atoms: N_7  and  N_8
REMARK    5  A    between atoms: N_8  and  C_9
REMARK    6  A    between atoms: C_9  and  N_11
REMARK    7  A    between atoms: N_11  and  C_12
REMARK    8  A    between atoms: C_21  and  O_22
REMARK    9  A    between atoms: O_22  and  C_23
REMARK   10  A    between atoms: C_23  and  C_25
REMARK   11  A    between atoms: C_25  and  C_26
REMARK                            x       y       z     vdW  Elec       q    Type
REMARK                         _______ _______ _______ _____ _____    ______ ____
ROOT
ATOM      1  C   UNL     1       2.384   6.134  19.765  0.00  0.00    +0.000 A 
ATOM      2  C   UNL     1       2.034   7.488  19.662  0.00  0.00    +0.000 A 
ATOM      3  C   UNL     1       2.416   8.220  18.537  0.00  0.00    +0.000 A 
ATOM      4  C   UNL     1       3.155   7.627  17.510  0.00  0.00    +0.000 A 
ATOM      5  C   UNL     1       3.476   6.284  17.583  0.00  0.00    +0.000 A 
ATOM      6  C   UNL     1       3.100   5.543  18.705  0.00  0.00    +0.000 A 
ENDROOT
BRANCH   1   8
ATOM      7  C   UNL     1       1.029   4.366  20.587  0.00  0.00    +0.000 C 
ATOM      8  O   UNL     1       2.052   5.336  20.829  0.00  0.00    +0.000 OA
ENDBRANCH   1   8
BRANCH   3   9
ATOM      9  C   UNL     1       2.048   9.642  18.418  0.00  0.00    +0.000 C 
ATOM     10  N   UNL     1       0.814   9.998  18.534  0.00  0.00    +0.000 NA
BRANCH  10  11
ATOM     11  N   UNL     1       0.548  11.308  18.330  0.00  0.00    +0.000 N 
ATOM     12  H   UNL     1       0.940  11.779  17.523  0.00  0.00    +0.000 HD
BRANCH  11  13
ATOM     13  C   UNL     1      -0.371  11.988  19.109  0.00  0.00    +0.000 C 
ATOM     14  S   UNL     1      -0.147  13.483  19.819  0.00  0.00    +0.000 S 
BRANCH  13  15
ATOM     15  N   UNL     1      -1.589  11.361  19.230  0.00  0.00    +0.000 N 
ATOM     16  H   UNL     1      -1.681  10.747  20.033  0.00  0.00    +0.000 HD
BRANCH  15  17
ATOM     17  C   UNL     1      -2.602  11.304  18.251  0.00  0.00    +0.000 A 
ATOM     18  C   UNL     1      -3.881  11.740  18.598  0.00  0.00    +0.000 A 
ATOM     19  C   UNL     1      -4.902  11.743  17.647  0.00  0.00    +0.000 A 
ATOM     20  C   UNL     1      -4.657  11.271  16.353  0.00  0.00    +0.000 A 
ATOM     21  C   UNL     1      -3.399  10.776  16.028  0.00  0.00    +0.000 A 
ATOM     22 CL   UNL     1      -3.102  10.148  14.453  0.00  0.00    +0.000 Cl
ATOM     23  C   UNL     1      -2.373  10.784  16.971  0.00  0.00    +0.000 A 
ENDBRANCH  15  17
ENDBRANCH  13  15
ENDBRANCH  11  13
ENDBRANCH  10  11
ENDBRANCH   3   9
BRANCH   6  24
ATOM     24  O   UNL     1       3.325   4.143  18.698  0.00  0.00    +0.000 OA
BRANCH  24  25
ATOM     25  C   UNL     1       4.651   3.708  18.695  0.00  0.00    +0.000 C 
ATOM     26  O   UNL     1       5.281   3.297  19.661  0.00  0.00    +0.000 OA
BRANCH  25  27
ATOM     27  C   UNL     1       5.247   3.922  17.322  0.00  0.00    +0.000 C 
BRANCH  27  28
ATOM     28  C   UNL     1       6.674   4.457  17.343  0.00  0.00    +0.000 C 
ATOM     29  S   UNL     1       6.960   5.721  18.625  0.00  0.00    +0.000 S 
ATOM     30  C   UNL     1       7.466   6.922  17.459  0.00  0.00    +0.000 C 
ATOM     31  O   UNL     1       7.783   8.060  17.758  0.00  0.00    +0.000 OA
ATOM     32  N   UNL     1       7.485   6.397  16.210  0.00  0.00    +0.000 N 
ATOM     33  C   UNL     1       7.094   5.102  16.040  0.00  0.00    +0.000 C 
ATOM     34  O   UNL     1       7.113   4.524  14.960  0.00  0.00    +0.000 OA
ATOM     35  H   UNL     1       7.755   6.966  15.427  0.00  0.00    +0.000 HD
ENDBRANCH  27  28
ENDBRANCH  25  27
ENDBRANCH  24  25
ENDBRANCH   6  24
TORSDOF 10
ENDMDL
MODEL 5
REMARK VINA RESULT:      -7.9      4.462      9.663
REMARK  Name = 
REMARK  11 active torsions:
REMARK  status: ('A' for Active; 'I' for Inactive)
REMARK    1  A    between atoms: C_1  and  O_2
REMARK    2  A    between atoms: O_2  and  C_3
REMARK    3  A    between atoms: C_5  and  C_6
REMARK    4  A    between atoms: N_7  and  N_8
REMARK    5  A    between atoms: N_8  and  C_9
REMARK    6  A    between atoms: C_9  and  N_11
REMARK    7  A    between atoms: N_11  and  C_12
REMARK    8  A    between atoms: C_21  and  O_22
REMARK    9  A    between atoms: O_22  and  C_23
REMARK   10  A    between atoms: C_23  and  C_25
REMARK   11  A    between atoms: C_25  and  C_26
REMARK                            x       y       z     vdW  Elec       q    Type
REMARK                         _______ _______ _______ _____ _____    ______ ____
ROOT
ATOM      1  C   UNL     1       1.104   8.730  20.177  0.00  0.00    +0.000 A 
ATOM      2  C   UNL     1       1.958   7.647  19.924  0.00  0.00    +0.000 A 
ATOM      3  C   UNL     1       2.620   7.558  18.698  0.00  0.00    +0.000 A 
ATOM      4  C   UNL     1       2.437   8.528  17.709  0.00  0.00    +0.000 A 
ATOM      5  C   UNL     1       1.625   9.619  17.961  0.00  0.00    +0.000 A 
ATOM      6  C   UNL     1       0.957   9.717  19.182  0.00  0.00    +0.000 A 
ENDROOT
BRANCH   1   8
ATOM      7  C   UNL     1       1.197   9.287  22.483  0.00  0.00    +0.000 C 
ATOM      8  O   UNL     1       0.414   8.902  21.349  0.00  0.00    +0.000 OA
ENDBRANCH   1   8
BRANCH   3   9
ATOM      9  C   UNL     1       3.524   6.427  18.425  0.00  0.00    +0.000 C 
ATOM     10  N   UNL     1       4.343   6.485  17.430  0.00  0.00    +0.000 NA
BRANCH  10  11
ATOM     11  N   UNL     1       5.080   5.375  17.197  0.00  0.00    +0.000 N 
ATOM     12  H   UNL     1       5.135   4.999  16.258  0.00  0.00    +0.000 HD
BRANCH  11  13
ATOM     13  C   UNL     1       5.887   4.826  18.177  0.00  0.00    +0.000 C 
ATOM     14  S   UNL     1       7.154   5.588  18.952  0.00  0.00    +0.000 S 
BRANCH  13  15
ATOM     15  N   UNL     1       5.533   3.552  18.558  0.00  0.00    +0.000 N 
ATOM     16  H   UNL     1       6.275   2.862  18.499  0.00  0.00    +0.000 HD
BRANCH  15  17
ATOM     17  C   UNL     1       4.224   3.079  18.784  0.00  0.00    +0.000 A 
ATOM     18  C   UNL     1       3.524   2.532  17.708  0.00  0.00    +0.000 A 
ATOM     19  C   UNL     1       2.245   2.010  17.897  0.00  0.00    +0.000 A 
ATOM     20  C   UNL     1       1.641   2.070  19.158  0.00  0.00    +0.000 A 
ATOM     21  C   UNL     1       2.314   2.675  20.214  0.00  0.00    +0.000 A 
ATOM     22 CL   UNL     1       1.560   2.797  21.757  0.00  0.00    +0.000 Cl
ATOM     23  C   UNL     1       3.598   3.185  20.032  0.00  0.00    +0.000 A 
ENDBRANCH  15  17
ENDBRANCH  13  15
ENDBRANCH  11  13
ENDBRANCH  10  11
ENDBRANCH   3   9
BRANCH   6  24
ATOM     24  O   UNL     1       0.236  10.905  19.467  0.00  0.00    +0.000 OA
BRANCH  24  25
ATOM     25  C   UNL     1      -1.133  10.903  19.195  0.00  0.00    +0.000 C 
ATOM     26  O   UNL     1      -1.737  10.078  18.522  0.00  0.00    +0.000 OA
BRANCH  25  27
ATOM     27  C   UNL     1      -1.762  12.151  19.772  0.00  0.00    +0.000 C 
BRANCH  27  28
ATOM     28  C   UNL     1      -0.916  12.835  20.839  0.00  0.00    +0.000 C 
ATOM     29  S   UNL     1      -1.313  12.303  22.537  0.00  0.00    +0.000 S 
ATOM     30  C   UNL     1      -1.698  13.929  23.055  0.00  0.00    +0.000 C 
ATOM     31  O   UNL     1      -2.078  14.205  24.179  0.00  0.00    +0.000 OA
ATOM     32  N   UNL     1      -1.480  14.814  22.053  0.00  0.00    +0.000 N 
ATOM     33  C   UNL     1      -1.058  14.342  20.845  0.00  0.00    +0.000 C 
ATOM     34  O   UNL     1      -0.797  15.062  19.889  0.00  0.00    +0.000 OA
ATOM     35  H   UNL     1      -1.657  15.793  22.196  0.00  0.00    +0.000 HD
ENDBRANCH  27  28
ENDBRANCH  25  27
ENDBRANCH  24  25
ENDBRANCH   6  24
TORSDOF 10
ENDMDL
MODEL 6
REMARK VINA RESULT:      -7.9      5.008      9.513
REMARK  Name = 
REMARK  11 active torsions:
REMARK  status: ('A' for Active; 'I' for Inactive)
REMARK    1  A    between atoms: C_1  and  O_2
REMARK    2  A    between atoms: O_2  and  C_3
REMARK    3  A    between atoms: C_5  and  C_6
REMARK    4  A    between atoms: N_7  and  N_8
REMARK    5  A    between atoms: N_8  and  C_9
REMARK    6  A    between atoms: C_9  and  N_11
REMARK    7  A    between atoms: N_11  and  C_12
REMARK    8  A    between atoms: C_21  and  O_22
REMARK    9  A    between atoms: O_22  and  C_23
REMARK   10  A    between atoms: C_23  and  C_25
REMARK   11  A    between atoms: C_25  and  C_26
REMARK                            x       y       z     vdW  Elec       q    Type
REMARK                         _______ _______ _______ _____ _____    ______ ____
ROOT
ATOM      1  C   UNL     1       1.087   9.401  20.329  0.00  0.00    +0.000 A 
ATOM      2  C   UNL     1       1.744   8.192  20.055  0.00  0.00    +0.000 A 
ATOM      3  C   UNL     1       2.122   7.889  18.746  0.00  0.00    +0.000 A 
ATOM      4  C   UNL     1       1.847   8.768  17.696  0.00  0.00    +0.000 A 
ATOM      5  C   UNL     1       1.233   9.978  17.958  0.00  0.00    +0.000 A 
ATOM      6  C   UNL     1       0.848  10.291  19.263  0.00  0.00    +0.000 A 
ENDROOT
BRANCH   1   8
ATOM      7  C   UNL     1       1.355   9.158  22.675  0.00  0.00    +0.000 C 
ATOM      8  O   UNL     1       0.679   9.784  21.580  0.00  0.00    +0.000 OA
ENDBRANCH   1   8
BRANCH   3   9
ATOM      9  C   UNL     1       2.818   6.623  18.450  0.00  0.00    +0.000 C 
ATOM     10  N   UNL     1       2.215   5.499  18.641  0.00  0.00    +0.000 NA
BRANCH  10  11
ATOM     11  N   UNL     1       2.949   4.384  18.424  0.00  0.00    +0.000 N 
ATOM     12  H   UNL     1       3.143   4.090  17.475  0.00  0.00    +0.000 HD
BRANCH  11  13
ATOM     13  C   UNL     1       3.572   3.716  19.464  0.00  0.00    +0.000 C 
ATOM     14  S   UNL     1       2.813   2.926  20.723  0.00  0.00    +0.000 S 
BRANCH  13  15
ATOM     15  N   UNL     1       4.944   3.675  19.372  0.00  0.00    +0.000 N 
ATOM     16  H   UNL     1       5.409   3.141  20.099  0.00  0.00    +0.000 HD
BRANCH  15  17
ATOM     17  C   UNL     1       5.752   4.473  18.536  0.00  0.00    +0.000 A 
ATOM     18  C   UNL     1       6.510   5.487  19.124  0.00  0.00    +0.000 A 
ATOM     19  C   UNL     1       7.358   6.270  18.341  0.00  0.00    +0.000 A 
ATOM     20  C   UNL     1       7.422   6.069  16.958  0.00  0.00    +0.000 A 
ATOM     21  C   UNL     1       6.617   5.102  16.366  0.00  0.00    +0.000 A 
ATOM     22 CL   UNL     1       6.652   4.880  14.659  0.00  0.00    +0.000 Cl
ATOM     23  C   UNL     1       5.779   4.308  17.147  0.00  0.00    +0.000 A 
ENDBRANCH  15  17
ENDBRANCH  13  15
ENDBRANCH  11  13
ENDBRANCH  10  11
ENDBRANCH   3   9
BRANCH   6  24
ATOM     24  O   UNL     1       0.339  11.588  19.527  0.00  0.00    +0.000 OA
BRANCH  24  25
ATOM     25  C   UNL     1      -1.047  11.725  19.617  0.00  0.00    +0.000 C 
ATOM     26  O   UNL     1      -1.721  11.627  20.635  0.00  0.00    +0.000 OA
BRANCH  25  27
ATOM     27  C   UNL     1      -1.625  11.908  18.232  0.00  0.00    +0.000 C 
BRANCH  27  28
ATOM     28  C   UNL     1      -2.687  10.879  17.863  0.00  0.00    +0.000 C 
ATOM     29  S   UNL     1      -2.289   9.928  16.359  0.00  0.00    +0.000 S 
ATOM     30  C   UNL     1      -3.753  10.428  15.543  0.00  0.00    +0.000 C 
ATOM     31  O   UNL     1      -4.039  10.095  14.408  0.00  0.00    +0.000 OA
ATOM     32  N   UNL     1      -4.516  11.195  16.359  0.00  0.00    +0.000 N 
ATOM     33  C   UNL     1      -4.050  11.486  17.607  0.00  0.00    +0.000 C 
ATOM     34  O   UNL     1      -4.680  12.136  18.432  0.00  0.00    +0.000 OA
ATOM     35  H   UNL     1      -5.393  11.562  16.033  0.00  0.00    +0.000 HD
ENDBRANCH  27  28
ENDBRANCH  25  27
ENDBRANCH  24  25
ENDBRANCH   6  24
TORSDOF 10
ENDMDL
MODEL 7
REMARK VINA RESULT:      -7.9      2.823      3.500
REMARK  Name = 
REMARK  11 active torsions:
REMARK  status: ('A' for Active; 'I' for Inactive)
REMARK    1  A    between atoms: C_1  and  O_2
REMARK    2  A    between atoms: O_2  and  C_3
REMARK    3  A    between atoms: C_5  and  C_6
REMARK    4  A    between atoms: N_7  and  N_8
REMARK    5  A    between atoms: N_8  and  C_9
REMARK    6  A    between atoms: C_9  and  N_11
REMARK    7  A    between atoms: N_11  and  C_12
REMARK    8  A    between atoms: C_21  and  O_22
REMARK    9  A    between atoms: O_22  and  C_23
REMARK   10  A    between atoms: C_23  and  C_25
REMARK   11  A    between atoms: C_25  and  C_26
REMARK                            x       y       z     vdW  Elec       q    Type
REMARK                         _______ _______ _______ _____ _____    ______ ____
ROOT
ATOM      1  C   UNL     1       2.125   6.304  20.145  0.00  0.00    +0.000 A 
ATOM      2  C   UNL     1       1.468   7.538  20.264  0.00  0.00    +0.000 A 
ATOM      3  C   UNL     1       1.655   8.520  19.290  0.00  0.00    +0.000 A 
ATOM      4  C   UNL     1       2.498   8.300  18.198  0.00  0.00    +0.000 A 
ATOM      5  C   UNL     1       3.124   7.076  18.051  0.00  0.00    +0.000 A 
ATOM      6  C   UNL     1       2.946   6.087  19.020  0.00  0.00    +0.000 A 
ENDROOT
BRANCH   1   8
ATOM      7  C   UNL     1       1.100   4.233  20.685  0.00  0.00    +0.000 C 
ATOM      8  O   UNL     1       2.003   5.282  21.049  0.00  0.00    +0.000 OA
ENDBRANCH   1   8
BRANCH   3   9
ATOM      9  C   UNL     1       0.964   9.817  19.404  0.00  0.00    +0.000 C 
ATOM     10  N   UNL     1      -0.322   9.870  19.312  0.00  0.00    +0.000 NA
BRANCH  10  11
ATOM     11  N   UNL     1      -0.873  11.105  19.344  0.00  0.00    +0.000 N 
ATOM     12  H   UNL     1      -0.711  11.704  20.144  0.00  0.00    +0.000 HD
BRANCH  11  13
ATOM     13  C   UNL     1      -1.527  11.632  18.245  0.00  0.00    +0.000 C 
ATOM     14  S   UNL     1      -2.936  11.051  17.563  0.00  0.00    +0.000 S 
BRANCH  13  15
ATOM     15  N   UNL     1      -0.958  12.778  17.740  0.00  0.00    +0.000 N 
ATOM     16  H   UNL     1      -1.076  12.915  16.741  0.00  0.00    +0.000 HD
BRANCH  15  17
ATOM     17  C   UNL     1      -0.052  13.628  18.408  0.00  0.00    +0.000 A 
ATOM     18  C   UNL     1      -0.570  14.617  19.246  0.00  0.00    +0.000 A 
ATOM     19  C   UNL     1       0.291  15.449  19.961  0.00  0.00    +0.000 A 
ATOM     20  C   UNL     1       1.676  15.323  19.811  0.00  0.00    +0.000 A 
ATOM     21  C   UNL     1       2.189  14.381  18.926  0.00  0.00    +0.000 A 
ATOM     22 CL   UNL     1       3.890  14.251  18.698  0.00  0.00    +0.000 Cl
ATOM     23  C   UNL     1       1.332  13.538  18.220  0.00  0.00    +0.000 A 
ENDBRANCH  15  17
ENDBRANCH  13  15
ENDBRANCH  11  13
ENDBRANCH  10  11
ENDBRANCH   3   9
BRANCH   6  24
ATOM     24  O   UNL     1       3.490   4.799  18.782  0.00  0.00    +0.000 OA
BRANCH  24  25
ATOM     25  C   UNL     1       3.132   4.163  17.593  0.00  0.00    +0.000 C 
ATOM     26  O   UNL     1       1.996   3.874  17.239  0.00  0.00    +0.000 OA
BRANCH  25  27
ATOM     27  C   UNL     1       4.382   3.774  16.834  0.00  0.00    +0.000 C 
BRANCH  27  28
ATOM     28  C   UNL     1       5.367   4.920  16.635  0.00  0.00    +0.000 C 
ATOM     29  S   UNL     1       5.561   5.420  14.893  0.00  0.00    +0.000 S 
ATOM     30  C   UNL     1       7.283   5.110  14.899  0.00  0.00    +0.000 C 
ATOM     31  O   UNL     1       7.997   5.256  13.924  0.00  0.00    +0.000 OA
ATOM     32  N   UNL     1       7.694   4.726  16.131  0.00  0.00    +0.000 N 
ATOM     33  C   UNL     1       6.765   4.602  17.122  0.00  0.00    +0.000 C 
ATOM     34  O   UNL     1       7.040   4.300  18.276  0.00  0.00    +0.000 OA
ATOM     35  H   UNL     1       8.662   4.509  16.296  0.00  0.00    +0.000 HD
ENDBRANCH  27  28
ENDBRANCH  25  27
ENDBRANCH  24  25
ENDBRANCH   6  24
TORSDOF 10
ENDMDL
MODEL 8
REMARK VINA RESULT:      -7.8      5.417      9.511
REMARK  Name = 
REMARK  11 active torsions:
REMARK  status: ('A' for Active; 'I' for Inactive)
REMARK    1  A    between atoms: C_1  and  O_2
REMARK    2  A    between atoms: O_2  and  C_3
REMARK    3  A    between atoms: C_5  and  C_6
REMARK    4  A    between atoms: N_7  and  N_8
REMARK    5  A    between atoms: N_8  and  C_9
REMARK    6  A    between atoms: C_9  and  N_11
REMARK    7  A    between atoms: N_11  and  C_12
REMARK    8  A    between atoms: C_21  and  O_22
REMARK    9  A    between atoms: O_22  and  C_23
REMARK   10  A    between atoms: C_23  and  C_25
REMARK   11  A    between atoms: C_25  and  C_26
REMARK                            x       y       z     vdW  Elec       q    Type
REMARK                         _______ _______ _______ _____ _____    ______ ____
ROOT
ATOM      1  C   UNL     1       0.339  10.513  21.479  0.00  0.00    +0.000 A 
ATOM      2  C   UNL     1       0.988   9.305  21.778  0.00  0.00    +0.000 A 
ATOM      3  C   UNL     1       1.445   8.488  20.743  0.00  0.00    +0.000 A 
ATOM      4  C   UNL     1       1.257   8.848  19.406  0.00  0.00    +0.000 A 
ATOM      5  C   UNL     1       0.650  10.052  19.098  0.00  0.00    +0.000 A 
ATOM      6  C   UNL     1       0.187  10.876  20.126  0.00  0.00    +0.000 A 
ENDROOT
BRANCH   1   8
ATOM      7  C   UNL     1      -1.271  10.917  23.175  0.00  0.00    +0.000 C 
ATOM      8  O   UNL     1      -0.143  11.378  22.426  0.00  0.00    +0.000 OA
ENDBRANCH   1   8
BRANCH   3   9
ATOM      9  C   UNL     1       2.133   7.222  21.048  0.00  0.00    +0.000 C 
ATOM     10  N   UNL     1       1.807   6.145  20.417  0.00  0.00    +0.000 NA
BRANCH  10  11
ATOM     11  N   UNL     1       2.427   5.010  20.812  0.00  0.00    +0.000 N 
ATOM     12  H   UNL     1       2.810   4.948  21.747  0.00  0.00    +0.000 HD
BRANCH  11  13
ATOM     13  C   UNL     1       2.419   3.872  20.025  0.00  0.00    +0.000 C 
ATOM     14  S   UNL     1       1.065   3.066  19.472  0.00  0.00    +0.000 S 
BRANCH  13  15
ATOM     15  N   UNL     1       3.665   3.439  19.637  0.00  0.00    +0.000 N 
ATOM     16  H   UNL     1       4.079   2.728  20.231  0.00  0.00    +0.000 HD
BRANCH  15  17
ATOM     17  C   UNL     1       4.495   4.037  18.667  0.00  0.00    +0.000 A 
ATOM     18  C   UNL     1       4.232   3.778  17.321  0.00  0.00    +0.000 A 
ATOM     19  C   UNL     1       4.999   4.385  16.328  0.00  0.00    +0.000 A 
ATOM     20  C   UNL     1       6.062   5.225  16.677  0.00  0.00    +0.000 A 
ATOM     21  C   UNL     1       6.364   5.431  18.018  0.00  0.00    +0.000 A 
ATOM     22 CL   UNL     1       7.700   6.424  18.458  0.00  0.00    +0.000 Cl
ATOM     23  C   UNL     1       5.591   4.836  19.014  0.00  0.00    +0.000 A 
ENDBRANCH  15  17
ENDBRANCH  13  15
ENDBRANCH  11  13
ENDBRANCH  10  11
ENDBRANCH   3   9
BRANCH   6  24
ATOM     24  O   UNL     1      -0.313  12.160  19.791  0.00  0.00    +0.000 OA
BRANCH  24  25
ATOM     25  C   UNL     1      -1.679  12.266  19.526  0.00  0.00    +0.000 C 
ATOM     26  O   UNL     1      -2.572  12.375  20.356  0.00  0.00    +0.000 OA
BRANCH  25  27
ATOM     27  C   UNL     1      -1.916  12.114  18.040  0.00  0.00    +0.000 C 
BRANCH  27  28
ATOM     28  C   UNL     1      -2.891  10.999  17.679  0.00  0.00    +0.000 C 
ATOM     29  S   UNL     1      -2.362  10.002  16.248  0.00  0.00    +0.000 S 
ATOM     30  C   UNL     1      -3.814  10.363  15.342  0.00  0.00    +0.000 C 
ATOM     31  O   UNL     1      -4.023   9.955  14.214  0.00  0.00    +0.000 OA
ATOM     32  N   UNL     1      -4.662  11.118  16.081  0.00  0.00    +0.000 N 
ATOM     33  C   UNL     1      -4.276  11.501  17.331  0.00  0.00    +0.000 C 
ATOM     34  O   UNL     1      -4.984  12.149  18.092  0.00  0.00    +0.000 OA
ATOM     35  H   UNL     1      -5.544  11.410  15.696  0.00  0.00    +0.000 HD
ENDBRANCH  27  28
ENDBRANCH  25  27
ENDBRANCH  24  25
ENDBRANCH   6  24
TORSDOF 10
ENDMDL
MODEL 9
REMARK VINA RESULT:      -7.7      2.255      2.914
REMARK  Name = 
REMARK  11 active torsions:
REMARK  status: ('A' for Active; 'I' for Inactive)
REMARK    1  A    between atoms: C_1  and  O_2
REMARK    2  A    between atoms: O_2  and  C_3
REMARK    3  A    between atoms: C_5  and  C_6
REMARK    4  A    between atoms: N_7  and  N_8
REMARK    5  A    between atoms: N_8  and  C_9
REMARK    6  A    between atoms: C_9  and  N_11
REMARK    7  A    between atoms: N_11  and  C_12
REMARK    8  A    between atoms: C_21  and  O_22
REMARK    9  A    between atoms: O_22  and  C_23
REMARK   10  A    between atoms: C_23  and  C_25
REMARK   11  A    between atoms: C_25  and  C_26
REMARK                            x       y       z     vdW  Elec       q    Type
REMARK                         _______ _______ _______ _____ _____    ______ ____
ROOT
ATOM      1  C   UNL     1       2.242   5.028  20.134  0.00  0.00    +0.000 A 
ATOM      2  C   UNL     1       1.678   6.086  20.862  0.00  0.00    +0.000 A 
ATOM      3  C   UNL     1       1.706   7.380  20.340  0.00  0.00    +0.000 A 
ATOM      4  C   UNL     1       2.300   7.645  19.103  0.00  0.00    +0.000 A 
ATOM      5  C   UNL     1       2.828   6.605  18.360  0.00  0.00    +0.000 A 
ATOM      6  C   UNL     1       2.807   5.307  18.873  0.00  0.00    +0.000 A 
ENDROOT
BRANCH   1   8
ATOM      7  C   UNL     1       1.072   2.971  20.315  0.00  0.00    +0.000 C 
ATOM      8  O   UNL     1       2.261   3.728  20.565  0.00  0.00    +0.000 OA
ENDBRANCH   1   8
BRANCH   3   9
ATOM      9  C   UNL     1       1.110   8.497  21.094  0.00  0.00    +0.000 C 
ATOM     10  N   UNL     1       1.027   9.665  20.554  0.00  0.00    +0.000 NA
BRANCH  10  11
ATOM     11  N   UNL     1       0.544  10.654  21.340  0.00  0.00    +0.000 N 
ATOM     12  H   UNL     1       0.528  10.532  22.345  0.00  0.00    +0.000 HD
BRANCH  11  13
ATOM     13  C   UNL     1       0.211  11.892  20.820  0.00  0.00    +0.000 C 
ATOM     14  S   UNL     1       1.158  13.266  20.862  0.00  0.00    +0.000 S 
BRANCH  13  15
ATOM     15  N   UNL     1      -0.996  11.927  20.162  0.00  0.00    +0.000 N 
ATOM     16  H   UNL     1      -0.937  11.887  19.149  0.00  0.00    +0.000 HD
BRANCH  15  17
ATOM     17  C   UNL     1      -2.249  12.245  20.726  0.00  0.00    +0.000 A 
ATOM     18  C   UNL     1      -3.326  12.458  19.864  0.00  0.00    +0.000 A 
ATOM     19  C   UNL     1      -4.593  12.730  20.381  0.00  0.00    +0.000 A 
ATOM     20  C   UNL     1      -4.781  12.829  21.764  0.00  0.00    +0.000 A 
ATOM     21  C   UNL     1      -3.694  12.680  22.618  0.00  0.00    +0.000 A 
ATOM     22 CL   UNL     1      -3.905  12.849  24.318  0.00  0.00    +0.000 Cl
ATOM     23  C   UNL     1      -2.429  12.396  22.106  0.00  0.00    +0.000 A 
ENDBRANCH  15  17
ENDBRANCH  13  15
ENDBRANCH  11  13
ENDBRANCH  10  11
ENDBRANCH   3   9
BRANCH   6  24
ATOM     24  O   UNL     1       3.235   4.241  18.041  0.00  0.00    +0.000 OA
BRANCH  24  25
ATOM     25  C   UNL     1       4.600   3.952  18.024  0.00  0.00    +0.000 C 
ATOM     26  O   UNL     1       5.336   3.868  19.000  0.00  0.00    +0.000 OA
BRANCH  25  27
ATOM     27  C   UNL     1       5.078   3.862  16.592  0.00  0.00    +0.000 C 
BRANCH  27  28
ATOM     28  C   UNL     1       6.245   4.788  16.269  0.00  0.00    +0.000 C 
ATOM     29  S   UNL     1       7.591   4.721  17.497  0.00  0.00    +0.000 S 
ATOM     30  C   UNL     1       7.480   6.430  17.849  0.00  0.00    +0.000 C 
ATOM     31  O   UNL     1       8.174   6.994  18.675  0.00  0.00    +0.000 OA
ATOM     32  N   UNL     1       6.552   7.021  17.059  0.00  0.00    +0.000 N 
ATOM     33  C   UNL     1       5.849   6.246  16.184  0.00  0.00    +0.000 C 
ATOM     34  O   UNL     1       5.018   6.689  15.401  0.00  0.00    +0.000 OA
ATOM     35  H   UNL     1       6.370   8.007  17.143  0.00  0.00    +0.000 HD
ENDBRANCH  27  28
ENDBRANCH  25  27
ENDBRANCH  24  25
ENDBRANCH   6  24
TORSDOF 10
ENDMDL
