MODEL 1
REMARK VINA RESULT:      -4.3      0.000      0.000
REMARK  Name = 
REMARK  1 active torsions:
REMARK  status: ('A' for Active; 'I' for Inactive)
REMARK    1  A    between atoms: O_1  and  C_2
REMARK                            x       y       z     vdW  Elec       q    Type
REMARK                         _______ _______ _______ _____ _____    ______ ____
ROOT
ATOM      1  C   UNL     1       1.078   2.787  18.714  0.00  0.00    +0.000 C 
ATOM      2  C   UNL     1       0.971   3.101  20.167  0.00  0.00    +0.000 C 
ATOM      3  C   UNL     1       1.401   4.237  20.724  0.00  0.00    +0.000 C 
ATOM      4  C   UNL     1       2.056   5.340  19.970  0.00  0.00    +0.000 C 
ATOM      5  C   UNL     1       2.260   5.129  18.470  0.00  0.00    +0.000 C 
ATOM      6  C   UNL     1       1.758   3.834  17.827  0.00  0.00    +0.000 C 
ENDROOT
BRANCH   1   7
ATOM      7  O   UNL     1       1.795   1.562  18.575  0.00  0.00    +0.000 OA
ATOM      8  H   UNL     1       2.033   1.463  17.638  0.00  0.00    +0.000 HD
ENDBRANCH   1   7
TORSDOF 1
ENDMDL
MODEL 2
REMARK VINA RESULT:      -4.2      1.936      2.798
REMARK  Name = 
REMARK  1 active torsions:
REMARK  status: ('A' for Active; 'I' for Inactive)
REMARK    1  A    between atoms: O_1  and  C_2
REMARK                            x       y       z     vdW  Elec       q    Type
REMARK                         _______ _______ _______ _____ _____    ______ ____
ROOT
ATOM      1  C   UNL     1       3.576   2.147  18.672  0.00  0.00    +0.000 C 
ATOM      2  C   UNL     1       2.176   2.177  18.162  0.00  0.00    +0.000 C 
ATOM      3  C   UNL     1       1.115   2.517  18.900  0.00  0.00    +0.000 C 
ATOM      4  C   UNL     1       1.186   2.903  20.335  0.00  0.00    +0.000 C 
ATOM      5  C   UNL     1       2.565   2.878  20.992  0.00  0.00    +0.000 C 
ATOM      6  C   UNL     1       3.784   2.501  20.147  0.00  0.00    +0.000 C 
ENDROOT
BRANCH   1   7
ATOM      7  O   UNL     1       4.101   0.839  18.455  0.00  0.00    +0.000 OA
ATOM      8  H   UNL     1       4.750   0.661  19.156  0.00  0.00    +0.000 HD
ENDBRANCH   1   7
TORSDOF 1
ENDMDL
MODEL 3
REMARK VINA RESULT:      -4.2      1.831      3.287
REMARK  Name = 
REMARK  1 active torsions:
REMARK  status: ('A' for Active; 'I' for Inactive)
REMARK    1  A    between atoms: O_1  and  C_2
REMARK                            x       y       z     vdW  Elec       q    Type
REMARK                         _______ _______ _______ _____ _____    ______ ____
ROOT
ATOM      1  C   UNL     1       2.267   5.522  19.659  0.00  0.00    +0.000 C 
ATOM      2  C   UNL     1       2.223   5.056  18.244  0.00  0.00    +0.000 C 
ATOM      3  C   UNL     1       1.662   3.909  17.848  0.00  0.00    +0.000 C 
ATOM      4  C   UNL     1       1.014   2.936  18.768  0.00  0.00    +0.000 C 
ATOM      5  C   UNL     1       1.024   3.278  20.257  0.00  0.00    +0.000 C 
ATOM      6  C   UNL     1       1.654   4.596  20.713  0.00  0.00    +0.000 C 
ENDROOT
BRANCH   1   7
ATOM      7  O   UNL     1       3.631   5.747  20.011  0.00  0.00    +0.000 OA
ATOM      8  H   UNL     1       3.681   6.602  20.470  0.00  0.00    +0.000 HD
ENDBRANCH   1   7
TORSDOF 1
ENDMDL
MODEL 4
REMARK VINA RESULT:      -4.2      2.234      3.337
REMARK  Name = 
REMARK  1 active torsions:
REMARK  status: ('A' for Active; 'I' for Inactive)
REMARK    1  A    between atoms: O_1  and  C_2
REMARK                            x       y       z     vdW  Elec       q    Type
REMARK                         _______ _______ _______ _____ _____    ______ ____
ROOT
ATOM      1  C   UNL     1       4.055   2.779  19.600  0.00  0.00    +0.000 C 
ATOM      2  C   UNL     1       3.616   2.491  18.205  0.00  0.00    +0.000 C 
ATOM      3  C   UNL     1       2.344   2.304  17.841  0.00  0.00    +0.000 C 
ATOM      4  C   UNL     1       1.192   2.349  18.782  0.00  0.00    +0.000 C 
ATOM      5  C   UNL     1       1.510   2.601  20.255  0.00  0.00    +0.000 C 
ATOM      6  C   UNL     1       2.964   2.827  20.674  0.00  0.00    +0.000 C 
ENDROOT
BRANCH   1   7
ATOM      7  O   UNL     1       5.004   1.785  19.982  0.00  0.00    +0.000 OA
ATOM      8  H   UNL     1       5.723   1.796  19.329  0.00  0.00    +0.000 HD
ENDBRANCH   1   7
TORSDOF 1
ENDMDL
MODEL 5
REMARK VINA RESULT:      -4.2      1.796      2.865
REMARK  Name = 
REMARK  1 active torsions:
REMARK  status: ('A' for Active; 'I' for Inactive)
REMARK    1  A    between atoms: O_1  and  C_2
REMARK                            x       y       z     vdW  Elec       q    Type
REMARK                         _______ _______ _______ _____ _____    ______ ____
ROOT
ATOM      1  C   UNL     1       3.532   2.033  18.883  0.00  0.00    +0.000 C 
ATOM      2  C   UNL     1       3.974   3.128  17.973  0.00  0.00    +0.000 C 
ATOM      3  C   UNL     1       3.157   4.051  17.457  0.00  0.00    +0.000 C 
ATOM      4  C   UNL     1       1.692   4.106  17.712  0.00  0.00    +0.000 C 
ATOM      5  C   UNL     1       1.103   3.014  18.604  0.00  0.00    +0.000 C 
ATOM      6  C   UNL     1       2.037   1.962  19.207  0.00  0.00    +0.000 C 
ENDROOT
BRANCH   1   7
ATOM      7  O   UNL     1       3.915   0.789  18.301  0.00  0.00    +0.000 OA
ATOM      8  H   UNL     1       4.625   0.967  17.662  0.00  0.00    +0.000 HD
ENDBRANCH   1   7
TORSDOF 1
ENDMDL
MODEL 6
REMARK VINA RESULT:      -4.2      2.043      2.799
REMARK  Name = 
REMARK  1 active torsions:
REMARK  status: ('A' for Active; 'I' for Inactive)
REMARK    1  A    between atoms: O_1  and  C_2
REMARK                            x       y       z     vdW  Elec       q    Type
REMARK                         _______ _______ _______ _____ _____    ______ ____
ROOT
ATOM      1  C   UNL     1       2.513   5.029  20.323  0.00  0.00    +0.000 C 
ATOM      2  C   UNL     1       1.908   3.939  21.139  0.00  0.00    +0.000 C 
ATOM      3  C   UNL     1       1.193   2.931  20.633  0.00  0.00    +0.000 C 
ATOM      4  C   UNL     1       0.894   2.764  19.184  0.00  0.00    +0.000 C 
ATOM      5  C   UNL     1       1.428   3.839  18.239  0.00  0.00    +0.000 C 
ATOM      6  C   UNL     1       2.258   4.989  18.813  0.00  0.00    +0.000 C 
ENDROOT
BRANCH   1   7
ATOM      7  O   UNL     1       2.029   6.277  20.817  0.00  0.00    +0.000 OA
ATOM      8  H   UNL     1       2.368   6.977  20.235  0.00  0.00    +0.000 HD
ENDBRANCH   1   7
TORSDOF 1
ENDMDL
MODEL 7
REMARK VINA RESULT:      -4.1      0.688      2.054
REMARK  Name = 
REMARK  1 active torsions:
REMARK  status: ('A' for Active; 'I' for Inactive)
REMARK    1  A    between atoms: O_1  and  C_2
REMARK                            x       y       z     vdW  Elec       q    Type
REMARK                         _______ _______ _______ _____ _____    ______ ____
ROOT
ATOM      1  C   UNL     1       1.477   2.467  18.871  0.00  0.00    +0.000 C 
ATOM      2  C   UNL     1       1.914   3.539  17.933  0.00  0.00    +0.000 C 
ATOM      3  C   UNL     1       2.136   4.807  18.293  0.00  0.00    +0.000 C 
ATOM      4  C   UNL     1       1.967   5.323  19.678  0.00  0.00    +0.000 C 
ATOM      5  C   UNL     1       1.485   4.329  20.734  0.00  0.00    +0.000 C 
ATOM      6  C   UNL     1       1.242   2.874  20.328  0.00  0.00    +0.000 C 
ENDROOT
BRANCH   1   7
ATOM      7  O   UNL     1       0.265   1.905  18.370  0.00  0.00    +0.000 OA
ATOM      8  H   UNL     1      -0.454   2.524  18.575  0.00  0.00    +0.000 HD
ENDBRANCH   1   7
TORSDOF 1
ENDMDL
MODEL 8
REMARK VINA RESULT:      -4.1      1.553      2.502
REMARK  Name = 
REMARK  1 active torsions:
REMARK  status: ('A' for Active; 'I' for Inactive)
REMARK    1  A    between atoms: O_1  and  C_2
REMARK                            x       y       z     vdW  Elec       q    Type
REMARK                         _______ _______ _______ _____ _____    ______ ____
ROOT
ATOM      1  C   UNL     1       1.608   3.446  21.249  0.00  0.00    +0.000 C 
ATOM      2  C   UNL     1       2.140   4.797  20.910  0.00  0.00    +0.000 C 
ATOM      3  C   UNL     1       2.249   5.271  19.665  0.00  0.00    +0.000 C 
ATOM      4  C   UNL     1       1.862   4.510  18.446  0.00  0.00    +0.000 C 
ATOM      5  C   UNL     1       1.334   3.091  18.654  0.00  0.00    +0.000 C 
ATOM      6  C   UNL     1       1.197   2.549  20.078  0.00  0.00    +0.000 C 
ENDROOT
BRANCH   1   7
ATOM      7  O   UNL     1       2.601   2.754  22.005  0.00  0.00    +0.000 OA
ATOM      8  H   UNL     1       3.439   2.813  21.517  0.00  0.00    +0.000 HD
ENDBRANCH   1   7
TORSDOF 1
ENDMDL
MODEL 9
REMARK VINA RESULT:      -4.1      2.138      3.137
REMARK  Name = 
REMARK  1 active torsions:
REMARK  status: ('A' for Active; 'I' for Inactive)
REMARK    1  A    between atoms: O_1  and  C_2
REMARK                            x       y       z     vdW  Elec       q    Type
REMARK                         _______ _______ _______ _____ _____    ______ ____
ROOT
ATOM      1  C   UNL     1       2.551   3.280  20.868  0.00  0.00    +0.000 C 
ATOM      2  C   UNL     1       3.656   2.828  19.977  0.00  0.00    +0.000 C 
ATOM      3  C   UNL     1       3.478   2.356  18.740  0.00  0.00    +0.000 C 
ATOM      4  C   UNL     1       2.149   2.208  18.086  0.00  0.00    +0.000 C 
ATOM      5  C   UNL     1       0.925   2.604  18.910  0.00  0.00    +0.000 C 
ATOM      6  C   UNL     1       1.125   3.156  20.323  0.00  0.00    +0.000 C 
ENDROOT
BRANCH   1   7
ATOM      7  O   UNL     1       2.623   2.533  22.082  0.00  0.00    +0.000 OA
ATOM      8  H   UNL     1       2.350   1.622  21.885  0.00  0.00    +0.000 HD
ENDBRANCH   1   7
TORSDOF 1
ENDMDL
