MODEL 1
REMARK VINA RESULT:      -8.0      0.000      0.000
REMARK  Name = 
REMARK  2 active torsions:
REMARK  status: ('A' for Active; 'I' for Inactive)
REMARK    1  A    between atoms: N_3  and  C_4
REMARK    2  A    between atoms: N_10  and  C_11
REMARK                            x       y       z     vdW  Elec       q    Type
REMARK                         _______ _______ _______ _____ _____    ______ ____
ROOT
ATOM      1  O   UNL     1       8.577   8.043  18.896  0.00  0.00    +0.000 OA
ATOM      2  C   UNL     1       8.117   8.745  18.005  0.00  0.00    +0.000 C 
ATOM      3  N   UNL     1       8.539  10.036  17.728  0.00  0.00    +0.000 N 
ATOM      4  N   UNL     1       7.094   8.333  17.170  0.00  0.00    +0.000 N 
ATOM      5  H   UNL     1       7.952  10.593  17.129  0.00  0.00    +0.000 HD
ATOM      6  H   UNL     1       6.894   8.893  16.354  0.00  0.00    +0.000 HD
ENDROOT
BRANCH   4   7
ATOM      7  C   UNL     1       6.402   7.102  17.302  0.00  0.00    +0.000 A 
ATOM      8  C   UNL     1       5.324   6.698  16.544  0.00  0.00    +0.000 A 
ATOM      9  N   UNL     1       4.684   5.519  16.696  0.00  0.00    +0.000 NA
ATOM     10  C   UNL     1       5.105   4.691  17.659  0.00  0.00    +0.000 A 
ATOM     11  N   UNL     1       4.433   3.503  17.847  0.00  0.00    +0.000 N 
ATOM     12  C   UNL     1       3.161   3.284  17.168  0.00  0.00    +0.000 C 
ATOM     13  C   UNL     1       2.225   2.811  18.275  0.00  0.00    +0.000 C 
ATOM     14  C   UNL     1       3.156   2.107  19.247  0.00  0.00    +0.000 C 
ATOM     15  C   UNL     1       4.434   2.943  19.191  0.00  0.00    +0.000 C 
ATOM     16  N   UNL     1       6.162   4.982  18.442  0.00  0.00    +0.000 NA
ATOM     17  C   UNL     1       6.787   6.166  18.238  0.00  0.00    +0.000 A 
ENDBRANCH   4   7
BRANCH   3  18
ATOM     18  C   UNL     1       9.551  10.725  18.440  0.00  0.00    +0.000 A 
ATOM     19  C   UNL     1      10.727  11.196  17.843  0.00  0.00    +0.000 A 
ATOM     20  C   UNL     1      11.728  11.800  18.609  0.00  0.00    +0.000 A 
ATOM     21  C   UNL     1      11.556  11.957  19.978  0.00  0.00    +0.000 A 
ATOM     22  C   UNL     1      10.372  11.531  20.579  0.00  0.00    +0.000 A 
ATOM     23  C   UNL     1       9.371  10.924  19.812  0.00  0.00    +0.000 A 
ENDBRANCH   3  18
TORSDOF 2
ENDMDL
MODEL 2
REMARK VINA RESULT:      -8.0      0.131      1.056
REMARK  Name = 
REMARK  2 active torsions:
REMARK  status: ('A' for Active; 'I' for Inactive)
REMARK    1  A    between atoms: N_3  and  C_4
REMARK    2  A    between atoms: N_10  and  C_11
REMARK                            x       y       z     vdW  Elec       q    Type
REMARK                         _______ _______ _______ _____ _____    ______ ____
ROOT
ATOM      1  O   UNL     1       8.583   7.926  18.961  0.00  0.00    +0.000 OA
ATOM      2  C   UNL     1       8.132   8.635  18.072  0.00  0.00    +0.000 C 
ATOM      3  N   UNL     1       8.557   9.929  17.810  0.00  0.00    +0.000 N 
ATOM      4  N   UNL     1       7.117   8.232  17.223  0.00  0.00    +0.000 N 
ATOM      5  H   UNL     1       7.977  10.491  17.209  0.00  0.00    +0.000 HD
ATOM      6  H   UNL     1       6.925   8.798  16.410  0.00  0.00    +0.000 HD
ENDROOT
BRANCH   4   7
ATOM      7  C   UNL     1       6.423   7.000  17.338  0.00  0.00    +0.000 A 
ATOM      8  C   UNL     1       5.356   6.601  16.564  0.00  0.00    +0.000 A 
ATOM      9  N   UNL     1       4.713   5.421  16.699  0.00  0.00    +0.000 NA
ATOM     10  C   UNL     1       5.121   4.587  17.663  0.00  0.00    +0.000 A 
ATOM     11  N   UNL     1       4.446   3.397  17.835  0.00  0.00    +0.000 N 
ATOM     12  C   UNL     1       3.184   3.183  17.137  0.00  0.00    +0.000 C 
ATOM     13  C   UNL     1       2.232   2.703  18.228  0.00  0.00    +0.000 C 
ATOM     14  C   UNL     1       3.151   1.993  19.208  0.00  0.00    +0.000 C 
ATOM     15  C   UNL     1       4.429   2.829  19.175  0.00  0.00    +0.000 C 
ATOM     16  N   UNL     1       6.167   4.872  18.462  0.00  0.00    +0.000 NA
ATOM     17  C   UNL     1       6.795   6.057  18.274  0.00  0.00    +0.000 A 
ENDBRANCH   4   7
BRANCH   3  18
ATOM     18  C   UNL     1       9.563  10.611  18.537  0.00  0.00    +0.000 A 
ATOM     19  C   UNL     1       9.510  10.812  19.921  0.00  0.00    +0.000 A 
ATOM     20  C   UNL     1      10.491  11.562  20.576  0.00  0.00    +0.000 A 
ATOM     21  C   UNL     1      11.548  12.104  19.855  0.00  0.00    +0.000 A 
ATOM     22  C   UNL     1      11.636  11.877  18.482  0.00  0.00    +0.000 A 
ATOM     23  C   UNL     1      10.650  11.128  17.826  0.00  0.00    +0.000 A 
ENDBRANCH   3  18
TORSDOF 2
ENDMDL
MODEL 3
REMARK VINA RESULT:      -8.0      1.575      2.010
REMARK  Name = 
REMARK  2 active torsions:
REMARK  status: ('A' for Active; 'I' for Inactive)
REMARK    1  A    between atoms: N_3  and  C_4
REMARK    2  A    between atoms: N_10  and  C_11
REMARK                            x       y       z     vdW  Elec       q    Type
REMARK                         _______ _______ _______ _____ _____    ______ ____
ROOT
ATOM      1  O   UNL     1       7.700   9.643  17.810  0.00  0.00    +0.000 OA
ATOM      2  C   UNL     1       8.625   9.246  18.504  0.00  0.00    +0.000 C 
ATOM      3  N   UNL     1       9.697  10.028  18.904  0.00  0.00    +0.000 N 
ATOM      4  N   UNL     1       8.723   7.944  18.961  0.00  0.00    +0.000 N 
ATOM      5  H   UNL     1      10.499   9.551  19.282  0.00  0.00    +0.000 HD
ATOM      6  H   UNL     1       9.413   7.740  19.669  0.00  0.00    +0.000 HD
ENDROOT
BRANCH   4   7
ATOM      7  C   UNL     1       7.823   6.904  18.610  0.00  0.00    +0.000 A 
ATOM      8  C   UNL     1       7.111   6.818  17.434  0.00  0.00    +0.000 A 
ATOM      9  N   UNL     1       6.259   5.815  17.130  0.00  0.00    +0.000 NA
ATOM     10  C   UNL     1       6.073   4.848  18.036  0.00  0.00    +0.000 A 
ATOM     11  N   UNL     1       5.175   3.842  17.751  0.00  0.00    +0.000 N 
ATOM     12  C   UNL     1       4.292   3.975  16.598  0.00  0.00    +0.000 C 
ATOM     13  C   UNL     1       2.906   3.663  17.152  0.00  0.00    +0.000 C 
ATOM     14  C   UNL     1       3.192   2.695  18.288  0.00  0.00    +0.000 C 
ATOM     15  C   UNL     1       4.505   3.208  18.877  0.00  0.00    +0.000 C 
ATOM     16  N   UNL     1       6.734   4.828  19.209  0.00  0.00    +0.000 NA
ATOM     17  C   UNL     1       7.596   5.843  19.461  0.00  0.00    +0.000 A 
ENDBRANCH   4   7
BRANCH   3  18
ATOM     18  C   UNL     1       9.875  11.390  18.561  0.00  0.00    +0.000 A 
ATOM     19  C   UNL     1       9.128  12.431  19.126  0.00  0.00    +0.000 A 
ATOM     20  C   UNL     1       9.291  13.749  18.692  0.00  0.00    +0.000 A 
ATOM     21  C   UNL     1      10.218  14.045  17.700  0.00  0.00    +0.000 A 
ATOM     22  C   UNL     1      10.999  13.025  17.158  0.00  0.00    +0.000 A 
ATOM     23  C   UNL     1      10.832  11.704  17.592  0.00  0.00    +0.000 A 
ENDBRANCH   3  18
TORSDOF 2
ENDMDL
MODEL 4
REMARK VINA RESULT:      -7.9      5.387      7.266
REMARK  Name = 
REMARK  2 active torsions:
REMARK  status: ('A' for Active; 'I' for Inactive)
REMARK    1  A    between atoms: N_3  and  C_4
REMARK    2  A    between atoms: N_10  and  C_11
REMARK                            x       y       z     vdW  Elec       q    Type
REMARK                         _______ _______ _______ _____ _____    ______ ____
ROOT
ATOM      1  O   UNL     1       1.981   8.199  19.275  0.00  0.00    +0.000 OA
ATOM      2  C   UNL     1       1.929   7.498  20.276  0.00  0.00    +0.000 C 
ATOM      3  N   UNL     1       1.286   7.856  21.451  0.00  0.00    +0.000 N 
ATOM      4  N   UNL     1       2.531   6.255  20.362  0.00  0.00    +0.000 N 
ATOM      5  H   UNL     1       1.489   7.309  22.272  0.00  0.00    +0.000 HD
ATOM      6  H   UNL     1       2.295   5.667  21.148  0.00  0.00    +0.000 HD
ENDROOT
BRANCH   4   7
ATOM      7  C   UNL     1       3.348   5.692  19.349  0.00  0.00    +0.000 A 
ATOM      8  C   UNL     1       4.725   5.664  19.345  0.00  0.00    +0.000 A 
ATOM      9  N   UNL     1       5.475   5.121  18.362  0.00  0.00    +0.000 NA
ATOM     10  C   UNL     1       4.846   4.591  17.307  0.00  0.00    +0.000 A 
ATOM     11  N   UNL     1       5.604   4.071  16.280  0.00  0.00    +0.000 N 
ATOM     12  C   UNL     1       7.041   4.315  16.256  0.00  0.00    +0.000 C 
ATOM     13  C   UNL     1       7.310   4.811  14.838  0.00  0.00    +0.000 C 
ATOM     14  C   UNL     1       6.237   4.120  14.015  0.00  0.00    +0.000 C 
ATOM     15  C   UNL     1       5.025   4.100  14.945  0.00  0.00    +0.000 C 
ATOM     16  N   UNL     1       3.502   4.550  17.221  0.00  0.00    +0.000 NA
ATOM     17  C   UNL     1       2.791   5.086  18.241  0.00  0.00    +0.000 A 
ENDBRANCH   4   7
BRANCH   3  18
ATOM     18  C   UNL     1       0.608   9.082  21.659  0.00  0.00    +0.000 A 
ATOM     19  C   UNL     1       0.704  10.173  20.786  0.00  0.00    +0.000 A 
ATOM     20  C   UNL     1       0.077  11.386  21.082  0.00  0.00    +0.000 A 
ATOM     21  C   UNL     1      -0.670  11.516  22.246  0.00  0.00    +0.000 A 
ATOM     22  C   UNL     1      -0.809  10.426  23.104  0.00  0.00    +0.000 A 
ATOM     23  C   UNL     1      -0.177   9.211  22.808  0.00  0.00    +0.000 A 
ENDBRANCH   3  18
TORSDOF 2
ENDMDL
MODEL 5
REMARK VINA RESULT:      -7.9      1.544      1.700
REMARK  Name = 
REMARK  2 active torsions:
REMARK  status: ('A' for Active; 'I' for Inactive)
REMARK    1  A    between atoms: N_3  and  C_4
REMARK    2  A    between atoms: N_10  and  C_11
REMARK                            x       y       z     vdW  Elec       q    Type
REMARK                         _______ _______ _______ _____ _____    ______ ____
ROOT
ATOM      1  O   UNL     1       7.667   9.609  17.769  0.00  0.00    +0.000 OA
ATOM      2  C   UNL     1       8.592   9.218  18.466  0.00  0.00    +0.000 C 
ATOM      3  N   UNL     1       9.665  10.004  18.857  0.00  0.00    +0.000 N 
ATOM      4  N   UNL     1       8.690   7.921  18.938  0.00  0.00    +0.000 N 
ATOM      5  H   UNL     1      10.467   9.531  19.240  0.00  0.00    +0.000 HD
ATOM      6  H   UNL     1       9.381   7.725  19.647  0.00  0.00    +0.000 HD
ENDROOT
BRANCH   4   7
ATOM      7  C   UNL     1       7.790   6.879  18.599  0.00  0.00    +0.000 A 
ATOM      8  C   UNL     1       7.082   6.775  17.421  0.00  0.00    +0.000 A 
ATOM      9  N   UNL     1       6.229   5.770  17.128  0.00  0.00    +0.000 NA
ATOM     10  C   UNL     1       6.037   4.817  18.048  0.00  0.00    +0.000 A 
ATOM     11  N   UNL     1       5.138   3.809  17.775  0.00  0.00    +0.000 N 
ATOM     12  C   UNL     1       4.261   3.926  16.616  0.00  0.00    +0.000 C 
ATOM     13  C   UNL     1       2.871   3.625  17.169  0.00  0.00    +0.000 C 
ATOM     14  C   UNL     1       3.150   2.675  18.321  0.00  0.00    +0.000 C 
ATOM     15  C   UNL     1       4.462   3.194  18.907  0.00  0.00    +0.000 C 
ATOM     16  N   UNL     1       6.693   4.814  19.224  0.00  0.00    +0.000 NA
ATOM     17  C   UNL     1       7.556   5.830  19.464  0.00  0.00    +0.000 A 
ENDBRANCH   4   7
BRANCH   3  18
ATOM     18  C   UNL     1       9.843  11.363  18.499  0.00  0.00    +0.000 A 
ATOM     19  C   UNL     1      10.737  11.787  17.508  0.00  0.00    +0.000 A 
ATOM     20  C   UNL     1      10.930  13.146  17.250  0.00  0.00    +0.000 A 
ATOM     21  C   UNL     1      10.218  14.098  17.968  0.00  0.00    +0.000 A 
ATOM     22  C   UNL     1       9.294  13.690  18.929  0.00  0.00    +0.000 A 
ATOM     23  C   UNL     1       9.103  12.327  19.189  0.00  0.00    +0.000 A 
ENDBRANCH   3  18
TORSDOF 2
ENDMDL
MODEL 6
REMARK VINA RESULT:      -7.8      5.370      7.412
REMARK  Name = 
REMARK  2 active torsions:
REMARK  status: ('A' for Active; 'I' for Inactive)
REMARK    1  A    between atoms: N_3  and  C_4
REMARK    2  A    between atoms: N_10  and  C_11
REMARK                            x       y       z     vdW  Elec       q    Type
REMARK                         _______ _______ _______ _____ _____    ______ ____
ROOT
ATOM      1  O   UNL     1       1.955   8.118  19.302  0.00  0.00    +0.000 OA
ATOM      2  C   UNL     1       1.903   7.402  20.293  0.00  0.00    +0.000 C 
ATOM      3  N   UNL     1       1.239   7.733  21.464  0.00  0.00    +0.000 N 
ATOM      4  N   UNL     1       2.526   6.170  20.369  0.00  0.00    +0.000 N 
ATOM      5  H   UNL     1       1.441   7.179  22.280  0.00  0.00    +0.000 HD
ATOM      6  H   UNL     1       2.290   5.566  21.144  0.00  0.00    +0.000 HD
ENDROOT
BRANCH   4   7
ATOM      7  C   UNL     1       3.364   5.634  19.358  0.00  0.00    +0.000 A 
ATOM      8  C   UNL     1       4.741   5.697  19.335  0.00  0.00    +0.000 A 
ATOM      9  N   UNL     1       5.512   5.178  18.356  0.00  0.00    +0.000 NA
ATOM     10  C   UNL     1       4.905   4.582  17.323  0.00  0.00    +0.000 A 
ATOM     11  N   UNL     1       5.682   4.085  16.299  0.00  0.00    +0.000 N 
ATOM     12  C   UNL     1       7.100   4.422  16.248  0.00  0.00    +0.000 C 
ATOM     13  C   UNL     1       7.318   4.898  14.815  0.00  0.00    +0.000 C 
ATOM     14  C   UNL     1       6.282   4.117  14.024  0.00  0.00    +0.000 C 
ATOM     15  C   UNL     1       5.086   4.041  14.972  0.00  0.00    +0.000 C 
ATOM     16  N   UNL     1       3.566   4.450  17.258  0.00  0.00    +0.000 NA
ATOM     17  C   UNL     1       2.835   4.965  18.275  0.00  0.00    +0.000 A 
ENDBRANCH   4   7
BRANCH   3  18
ATOM     18  C   UNL     1       0.538   8.944  21.680  0.00  0.00    +0.000 A 
ATOM     19  C   UNL     1       0.046   9.337  22.931  0.00  0.00    +0.000 A 
ATOM     20  C   UNL     1      -0.707  10.504  23.072  0.00  0.00    +0.000 A 
ATOM     21  C   UNL     1      -0.963  11.305  21.966  0.00  0.00    +0.000 A 
ATOM     22  C   UNL     1      -0.445  10.948  20.721  0.00  0.00    +0.000 A 
ATOM     23  C   UNL     1       0.308   9.776  20.580  0.00  0.00    +0.000 A 
ENDBRANCH   3  18
TORSDOF 2
ENDMDL
MODEL 7
REMARK VINA RESULT:      -7.7      2.382      9.181
REMARK  Name = 
REMARK  2 active torsions:
REMARK  status: ('A' for Active; 'I' for Inactive)
REMARK    1  A    between atoms: N_3  and  C_4
REMARK    2  A    between atoms: N_10  and  C_11
REMARK                            x       y       z     vdW  Elec       q    Type
REMARK                         _______ _______ _______ _____ _____    ______ ____
ROOT
ATOM      1  O   UNL     1       7.469   8.670  17.200  0.00  0.00    +0.000 OA
ATOM      2  C   UNL     1       7.993   8.044  18.111  0.00  0.00    +0.000 C 
ATOM      3  N   UNL     1       7.770   6.701  18.368  0.00  0.00    +0.000 N 
ATOM      4  N   UNL     1       8.866   8.617  19.018  0.00  0.00    +0.000 N 
ATOM      5  H   UNL     1       8.075   6.346  19.259  0.00  0.00    +0.000 HD
ATOM      6  H   UNL     1       9.390   8.002  19.625  0.00  0.00    +0.000 HD
ENDROOT
BRANCH   4   7
ATOM      7  C   UNL     1       9.185   9.998  19.058  0.00  0.00    +0.000 A 
ATOM      8  C   UNL     1       9.461  10.793  17.967  0.00  0.00    +0.000 A 
ATOM      9  N   UNL     1       9.764  12.107  18.037  0.00  0.00    +0.000 NA
ATOM     10  C   UNL     1       9.824  12.678  19.246  0.00  0.00    +0.000 A 
ATOM     11  N   UNL     1      10.172  14.009  19.330  0.00  0.00    +0.000 N 
ATOM     12  C   UNL     1      10.686  14.691  18.148  0.00  0.00    +0.000 C 
ATOM     13  C   UNL     1      11.955  15.381  18.639  0.00  0.00    +0.000 C 
ATOM     14  C   UNL     1      11.659  15.660  20.103  0.00  0.00    +0.000 C 
ATOM     15  C   UNL     1      10.845  14.446  20.544  0.00  0.00    +0.000 C 
ATOM     16  N   UNL     1       9.554  11.995  20.374  0.00  0.00    +0.000 NA
ATOM     17  C   UNL     1       9.232  10.685  20.253  0.00  0.00    +0.000 A 
ENDBRANCH   4   7
BRANCH   3  18
ATOM     18  C   UNL     1       6.902   5.869  17.619  0.00  0.00    +0.000 A 
ATOM     19  C   UNL     1       7.352   4.934  16.679  0.00  0.00    +0.000 A 
ATOM     20  C   UNL     1       6.448   4.195  15.912  0.00  0.00    +0.000 A 
ATOM     21  C   UNL     1       5.081   4.369  16.089  0.00  0.00    +0.000 A 
ATOM     22  C   UNL     1       4.618   5.266  17.051  0.00  0.00    +0.000 A 
ATOM     23  C   UNL     1       5.525   6.008  17.818  0.00  0.00    +0.000 A 
ENDBRANCH   3  18
TORSDOF 2
ENDMDL
MODEL 8
REMARK VINA RESULT:      -7.6      2.341      9.243
REMARK  Name = 
REMARK  2 active torsions:
REMARK  status: ('A' for Active; 'I' for Inactive)
REMARK    1  A    between atoms: N_3  and  C_4
REMARK    2  A    between atoms: N_10  and  C_11
REMARK                            x       y       z     vdW  Elec       q    Type
REMARK                         _______ _______ _______ _____ _____    ______ ____
ROOT
ATOM      1  O   UNL     1       7.373   8.750  17.180  0.00  0.00    +0.000 OA
ATOM      2  C   UNL     1       7.929   8.092  18.049  0.00  0.00    +0.000 C 
ATOM      3  N   UNL     1       7.707   6.743  18.272  0.00  0.00    +0.000 N 
ATOM      4  N   UNL     1       8.842   8.631  18.938  0.00  0.00    +0.000 N 
ATOM      5  H   UNL     1       8.045   6.358  19.139  0.00  0.00    +0.000 HD
ATOM      6  H   UNL     1       9.386   7.995  19.503  0.00  0.00    +0.000 HD
ENDROOT
BRANCH   4   7
ATOM      7  C   UNL     1       9.172  10.009  19.007  0.00  0.00    +0.000 A 
ATOM      8  C   UNL     1       9.456  10.825  17.934  0.00  0.00    +0.000 A 
ATOM      9  N   UNL     1       9.769  12.135  18.033  0.00  0.00    +0.000 NA
ATOM     10  C   UNL     1       9.832  12.678  19.254  0.00  0.00    +0.000 A 
ATOM     11  N   UNL     1      10.191  14.004  19.367  0.00  0.00    +0.000 N 
ATOM     12  C   UNL     1      10.712  14.708  18.201  0.00  0.00    +0.000 C 
ATOM     13  C   UNL     1      11.986  15.376  18.708  0.00  0.00    +0.000 C 
ATOM     14  C   UNL     1      11.690  15.627  20.177  0.00  0.00    +0.000 C 
ATOM     15  C   UNL     1      10.865  14.409  20.592  0.00  0.00    +0.000 C 
ATOM     16  N   UNL     1       9.555  11.973  20.367  0.00  0.00    +0.000 NA
ATOM     17  C   UNL     1       9.222  10.669  20.217  0.00  0.00    +0.000 A 
ENDBRANCH   4   7
BRANCH   3  18
ATOM     18  C   UNL     1       6.804   5.940  17.534  0.00  0.00    +0.000 A 
ATOM     19  C   UNL     1       5.424   5.915  17.772  0.00  0.00    +0.000 A 
ATOM     20  C   UNL     1       4.589   5.045  17.066  0.00  0.00    +0.000 A 
ATOM     21  C   UNL     1       5.123   4.201  16.099  0.00  0.00    +0.000 A 
ATOM     22  C   UNL     1       6.489   4.244  15.823  0.00  0.00    +0.000 A 
ATOM     23  C   UNL     1       7.325   5.115  16.533  0.00  0.00    +0.000 A 
ENDBRANCH   3  18
TORSDOF 2
ENDMDL
MODEL 9
REMARK VINA RESULT:      -7.5      7.864      9.949
REMARK  Name = 
REMARK  2 active torsions:
REMARK  status: ('A' for Active; 'I' for Inactive)
REMARK    1  A    between atoms: N_3  and  C_4
REMARK    2  A    between atoms: N_10  and  C_11
REMARK                            x       y       z     vdW  Elec       q    Type
REMARK                         _______ _______ _______ _____ _____    ______ ____
ROOT
ATOM      1  O   UNL     1       1.421   8.157  19.362  0.00  0.00    +0.000 OA
ATOM      2  C   UNL     1       1.879   7.630  20.367  0.00  0.00    +0.000 C 
ATOM      3  N   UNL     1       2.634   6.468  20.367  0.00  0.00    +0.000 N 
ATOM      4  N   UNL     1       1.677   8.128  21.641  0.00  0.00    +0.000 N 
ATOM      5  H   UNL     1       2.771   6.008  21.252  0.00  0.00    +0.000 HD
ATOM      6  H   UNL     1       2.229   7.744  22.394  0.00  0.00    +0.000 HD
ENDROOT
BRANCH   4   7
ATOM      7  C   UNL     1       0.850   9.241  21.942  0.00  0.00    +0.000 A 
ATOM      8  C   UNL     1      -0.217   9.241  22.813  0.00  0.00    +0.000 A 
ATOM      9  N   UNL     1      -0.987  10.318  23.077  0.00  0.00    +0.000 NA
ATOM     10  C   UNL     1      -0.715  11.461  22.437  0.00  0.00    +0.000 A 
ATOM     11  N   UNL     1      -1.520  12.555  22.670  0.00  0.00    +0.000 N 
ATOM     12  C   UNL     1      -2.765  12.383  23.410  0.00  0.00    +0.000 C 
ATOM     13  C   UNL     1      -3.811  13.078  22.543  0.00  0.00    +0.000 C 
ATOM     14  C   UNL     1      -3.019  14.169  21.843  0.00  0.00    +0.000 C 
ATOM     15  C   UNL     1      -1.659  13.522  21.591  0.00  0.00    +0.000 C 
ATOM     16  N   UNL     1       0.318  11.574  21.581  0.00  0.00    +0.000 NA
ATOM     17  C   UNL     1       1.077  10.473  21.365  0.00  0.00    +0.000 A 
ENDBRANCH   4   7
BRANCH   3  18
ATOM     18  C   UNL     1       2.974   5.726  19.210  0.00  0.00    +0.000 A 
ATOM     19  C   UNL     1       2.132   4.766  18.636  0.00  0.00    +0.000 A 
ATOM     20  C   UNL     1       2.551   4.006  17.540  0.00  0.00    +0.000 A 
ATOM     21  C   UNL     1       3.812   4.212  16.993  0.00  0.00    +0.000 A 
ATOM     22  C   UNL     1       4.645   5.194  17.528  0.00  0.00    +0.000 A 
ATOM     23  C   UNL     1       4.225   5.952  18.628  0.00  0.00    +0.000 A 
ENDBRANCH   3  18
TORSDOF 2
ENDMDL
