MODEL 1
REMARK VINA RESULT:      -7.4      0.000      0.000
REMARK  Name = 
REMARK  7 active torsions:
REMARK  status: ('A' for Active; 'I' for Inactive)
REMARK    1  A    between atoms: C_1  and  C_2
REMARK    2  A    between atoms: C_2  and  C_3
REMARK    3  A    between atoms: C_3  and  N_4
REMARK    4  A    between atoms: C_8  and  S_9
REMARK    5  A    between atoms: S_9  and  C_10
REMARK    6  A    between atoms: C_10  and  C_11
REMARK    7  A    between atoms: C_11  and  C_12
REMARK                            x       y       z     vdW  Elec       q    Type
REMARK                         _______ _______ _______ _____ _____    ______ ____
ROOT
ATOM      1  N   UNL     1       4.690   3.780  18.156  0.00  0.00    +0.000 N 
ATOM      2  C   UNL     1       4.814   4.255  19.435  0.00  0.00    +0.000 A 
ATOM      3  N   UNL     1       5.714   5.211  19.517  0.00  0.00    +0.000 NA
ATOM      4  C   UNL     1       6.200   5.363  18.231  0.00  0.00    +0.000 A 
ATOM      5  C   UNL     1       7.155   6.194  17.642  0.00  0.00    +0.000 A 
ATOM      6  N   UNL     1       7.409   6.087  16.312  0.00  0.00    +0.000 NA
ATOM      7  C   UNL     1       6.712   5.187  15.597  0.00  0.00    +0.000 A 
ATOM      8  N   UNL     1       7.002   5.113  14.248  0.00  0.00    +0.000 N 
ATOM      9  N   UNL     1       5.790   4.331  16.057  0.00  0.00    +0.000 NA
ATOM     10  C   UNL     1       5.572   4.472  17.373  0.00  0.00    +0.000 A 
ATOM     11  H   UNL     1       7.937   5.455  14.072  0.00  0.00    +0.000 HD
ATOM     12  H   UNL     1       6.767   4.197  13.892  0.00  0.00    +0.000 HD
ENDROOT
BRANCH   1  13
ATOM     13  C   UNL     1       3.792   2.731  17.724  0.00  0.00    +0.000 C 
BRANCH  13  15
ATOM     14  C   UNL     1       1.378   3.140  18.425  0.00  0.00    +0.000 C 
ATOM     15  C   UNL     1       2.407   3.228  17.307  0.00  0.00    +0.000 C 
ENDBRANCH  13  15
ENDBRANCH   1  13
BRANCH   5  16
ATOM     16  S   UNL     1       8.057   7.331  18.652  0.00  0.00    +0.000 S 
BRANCH  16  17
ATOM     17  C   UNL     1       8.342   8.700  17.476  0.00  0.00    +0.000 C 
BRANCH  17  18
ATOM     18  C   UNL     1       8.041  10.026  18.181  0.00  0.00    +0.000 C 
BRANCH  18  19
ATOM     19  C   UNL     1       9.285  10.717  18.691  0.00  0.00    +0.000 A 
ATOM     20  C   UNL     1       9.464  10.946  20.061  0.00  0.00    +0.000 A 
ATOM     21  C   UNL     1      10.627  11.561  20.530  0.00  0.00    +0.000 A 
ATOM     22  C   UNL     1      11.619  11.955  19.635  0.00  0.00    +0.000 A 
ATOM     23  C   UNL     1      11.448  11.740  18.269  0.00  0.00    +0.000 A 
ATOM     24  C   UNL     1      10.286  11.125  17.796  0.00  0.00    +0.000 A 
ENDBRANCH  18  19
ENDBRANCH  17  18
ENDBRANCH  16  17
ENDBRANCH   5  16
TORSDOF 6
ENDMDL
MODEL 2
REMARK VINA RESULT:      -7.2      2.454      6.790
REMARK  Name = 
REMARK  7 active torsions:
REMARK  status: ('A' for Active; 'I' for Inactive)
REMARK    1  A    between atoms: C_1  and  C_2
REMARK    2  A    between atoms: C_2  and  C_3
REMARK    3  A    between atoms: C_3  and  N_4
REMARK    4  A    between atoms: C_8  and  S_9
REMARK    5  A    between atoms: S_9  and  C_10
REMARK    6  A    between atoms: C_10  and  C_11
REMARK    7  A    between atoms: C_11  and  C_12
REMARK                            x       y       z     vdW  Elec       q    Type
REMARK                         _______ _______ _______ _____ _____    ______ ____
ROOT
ATOM      1  N   UNL     1       7.295   6.107  18.423  0.00  0.00    +0.000 N 
ATOM      2  C   UNL     1       6.596   5.597  19.485  0.00  0.00    +0.000 A 
ATOM      3  N   UNL     1       5.772   4.640  19.115  0.00  0.00    +0.000 NA
ATOM      4  C   UNL     1       5.942   4.525  17.747  0.00  0.00    +0.000 A 
ATOM      5  C   UNL     1       5.380   3.711  16.761  0.00  0.00    +0.000 A 
ATOM      6  N   UNL     1       5.772   3.855  15.468  0.00  0.00    +0.000 NA
ATOM      7  C   UNL     1       6.711   4.773  15.182  0.00  0.00    +0.000 A 
ATOM      8  N   UNL     1       7.081   4.885  13.856  0.00  0.00    +0.000 N 
ATOM      9  N   UNL     1       7.304   5.616  16.040  0.00  0.00    +0.000 NA
ATOM     10  C   UNL     1       6.886   5.437  17.302  0.00  0.00    +0.000 A 
ATOM     11  H   UNL     1       6.339   4.549  13.257  0.00  0.00    +0.000 HD
ATOM     12  H   UNL     1       7.444   5.811  13.673  0.00  0.00    +0.000 HD
ENDROOT
BRANCH   1  13
ATOM     13  C   UNL     1       8.278   7.166  18.484  0.00  0.00    +0.000 C 
BRANCH  13  15
ATOM     14  C   UNL     1       8.616   9.683  18.303  0.00  0.00    +0.000 C 
ATOM     15  C   UNL     1       7.833   8.470  17.821  0.00  0.00    +0.000 C 
ENDBRANCH  13  15
ENDBRANCH   1  13
BRANCH   5  16
ATOM     16  S   UNL     1       4.124   2.548  17.206  0.00  0.00    +0.000 S 
BRANCH  16  17
ATOM     17  C   UNL     1       2.624   3.582  17.080  0.00  0.00    +0.000 C 
BRANCH  17  18
ATOM     18  C   UNL     1       1.983   3.694  18.466  0.00  0.00    +0.000 C 
BRANCH  18  19
ATOM     19  C   UNL     1       2.020   5.100  19.020  0.00  0.00    +0.000 A 
ATOM     20  C   UNL     1       2.425   6.175  18.217  0.00  0.00    +0.000 A 
ATOM     21  C   UNL     1       2.431   7.475  18.725  0.00  0.00    +0.000 A 
ATOM     22  C   UNL     1       2.038   7.714  20.040  0.00  0.00    +0.000 A 
ATOM     23  C   UNL     1       1.642   6.652  20.851  0.00  0.00    +0.000 A 
ATOM     24  C   UNL     1       1.634   5.350  20.346  0.00  0.00    +0.000 A 
ENDBRANCH  18  19
ENDBRANCH  17  18
ENDBRANCH  16  17
ENDBRANCH   5  16
TORSDOF 6
ENDMDL
MODEL 3
REMARK VINA RESULT:      -7.2      2.142      7.543
REMARK  Name = 
REMARK  7 active torsions:
REMARK  status: ('A' for Active; 'I' for Inactive)
REMARK    1  A    between atoms: C_1  and  C_2
REMARK    2  A    between atoms: C_2  and  C_3
REMARK    3  A    between atoms: C_3  and  N_4
REMARK    4  A    between atoms: C_8  and  S_9
REMARK    5  A    between atoms: S_9  and  C_10
REMARK    6  A    between atoms: C_10  and  C_11
REMARK    7  A    between atoms: C_11  and  C_12
REMARK                            x       y       z     vdW  Elec       q    Type
REMARK                         _______ _______ _______ _____ _____    ______ ____
ROOT
ATOM      1  N   UNL     1       7.400   6.264  18.464  0.00  0.00    +0.000 N 
ATOM      2  C   UNL     1       6.764   5.753  19.564  0.00  0.00    +0.000 A 
ATOM      3  N   UNL     1       5.899   4.817  19.238  0.00  0.00    +0.000 NA
ATOM      4  C   UNL     1       5.974   4.718  17.860  0.00  0.00    +0.000 A 
ATOM      5  C   UNL     1       5.332   3.928  16.904  0.00  0.00    +0.000 A 
ATOM      6  N   UNL     1       5.640   4.084  15.590  0.00  0.00    +0.000 NA
ATOM      7  C   UNL     1       6.575   4.988  15.253  0.00  0.00    +0.000 A 
ATOM      8  N   UNL     1       6.857   5.112  13.906  0.00  0.00    +0.000 N 
ATOM      9  N   UNL     1       7.240   5.807  16.080  0.00  0.00    +0.000 NA
ATOM     10  C   UNL     1       6.904   5.619  17.365  0.00  0.00    +0.000 A 
ATOM     11  H   UNL     1       6.071   4.799  13.355  0.00  0.00    +0.000 HD
ATOM     12  H   UNL     1       7.225   6.034  13.711  0.00  0.00    +0.000 HD
ENDROOT
BRANCH   1  13
ATOM     13  C   UNL     1       8.406   7.304  18.473  0.00  0.00    +0.000 C 
BRANCH  13  15
ATOM     14  C   UNL     1       8.719   9.830  18.377  0.00  0.00    +0.000 C 
ATOM     15  C   UNL     1       7.941   8.627  17.862  0.00  0.00    +0.000 C 
ENDBRANCH  13  15
ENDBRANCH   1  13
BRANCH   5  16
ATOM     16  S   UNL     1       4.087   2.782  17.418  0.00  0.00    +0.000 S 
BRANCH  16  17
ATOM     17  C   UNL     1       2.584   3.565  16.736  0.00  0.00    +0.000 C 
BRANCH  17  18
ATOM     18  C   UNL     1       2.075   4.608  17.734  0.00  0.00    +0.000 C 
BRANCH  18  19
ATOM     19  C   UNL     1       1.949   4.067  19.139  0.00  0.00    +0.000 A 
ATOM     20  C   UNL     1       2.550   4.729  20.218  0.00  0.00    +0.000 A 
ATOM     21  C   UNL     1       2.409   4.240  21.518  0.00  0.00    +0.000 A 
ATOM     22  C   UNL     1       1.669   3.082  21.753  0.00  0.00    +0.000 A 
ATOM     23  C   UNL     1       1.074   2.410  20.687  0.00  0.00    +0.000 A 
ATOM     24  C   UNL     1       1.214   2.897  19.385  0.00  0.00    +0.000 A 
ENDBRANCH  18  19
ENDBRANCH  17  18
ENDBRANCH  16  17
ENDBRANCH   5  16
TORSDOF 6
ENDMDL
MODEL 4
REMARK VINA RESULT:      -7.1      3.874      6.225
REMARK  Name = 
REMARK  7 active torsions:
REMARK  status: ('A' for Active; 'I' for Inactive)
REMARK    1  A    between atoms: C_1  and  C_2
REMARK    2  A    between atoms: C_2  and  C_3
REMARK    3  A    between atoms: C_3  and  N_4
REMARK    4  A    between atoms: C_8  and  S_9
REMARK    5  A    between atoms: S_9  and  C_10
REMARK    6  A    between atoms: C_10  and  C_11
REMARK    7  A    between atoms: C_11  and  C_12
REMARK                            x       y       z     vdW  Elec       q    Type
REMARK                         _______ _______ _______ _____ _____    ______ ____
ROOT
ATOM      1  N   UNL     1       1.954   7.295  20.155  0.00  0.00    +0.000 N 
ATOM      2  C   UNL     1       2.165   7.664  18.853  0.00  0.00    +0.000 A 
ATOM      3  N   UNL     1       2.396   6.625  18.080  0.00  0.00    +0.000 NA
ATOM      4  C   UNL     1       2.334   5.528  18.920  0.00  0.00    +0.000 A 
ATOM      5  C   UNL     1       2.482   4.151  18.737  0.00  0.00    +0.000 A 
ATOM      6  N   UNL     1       2.362   3.317  19.801  0.00  0.00    +0.000 NA
ATOM      7  C   UNL     1       2.082   3.847  21.004  0.00  0.00    +0.000 A 
ATOM      8  N   UNL     1       1.967   2.962  22.058  0.00  0.00    +0.000 N 
ATOM      9  N   UNL     1       1.936   5.147  21.298  0.00  0.00    +0.000 NA
ATOM     10  C   UNL     1       2.064   5.932  20.218  0.00  0.00    +0.000 A 
ATOM     11  H   UNL     1       2.478   2.113  21.859  0.00  0.00    +0.000 HD
ATOM     12  H   UNL     1       2.167   3.431  22.931  0.00  0.00    +0.000 HD
ENDROOT
BRANCH   1  13
ATOM     13  C   UNL     1       1.676   8.189  21.257  0.00  0.00    +0.000 C 
BRANCH  13  15
ATOM     14  C   UNL     1      -0.084   9.371  22.668  0.00  0.00    +0.000 C 
ATOM     15  C   UNL     1       0.188   8.478  21.466  0.00  0.00    +0.000 C 
ENDBRANCH  13  15
ENDBRANCH   1  13
BRANCH   5  16
ATOM     16  S   UNL     1       2.883   3.527  17.131  0.00  0.00    +0.000 S 
BRANCH  16  17
ATOM     17  C   UNL     1       4.705   3.660  17.146  0.00  0.00    +0.000 C 
BRANCH  17  18
ATOM     18  C   UNL     1       5.108   4.989  16.500  0.00  0.00    +0.000 C 
BRANCH  18  19
ATOM     19  C   UNL     1       6.171   5.725  17.282  0.00  0.00    +0.000 A 
ATOM     20  C   UNL     1       6.730   5.160  18.437  0.00  0.00    +0.000 A 
ATOM     21  C   UNL     1       7.730   5.832  19.141  0.00  0.00    +0.000 A 
ATOM     22  C   UNL     1       8.180   7.076  18.703  0.00  0.00    +0.000 A 
ATOM     23  C   UNL     1       7.625   7.652  17.561  0.00  0.00    +0.000 A 
ATOM     24  C   UNL     1       6.624   6.982  16.854  0.00  0.00    +0.000 A 
ENDBRANCH  18  19
ENDBRANCH  17  18
ENDBRANCH  16  17
ENDBRANCH   5  16
TORSDOF 6
ENDMDL
MODEL 5
REMARK VINA RESULT:      -7.1      4.389      7.242
REMARK  Name = 
REMARK  7 active torsions:
REMARK  status: ('A' for Active; 'I' for Inactive)
REMARK    1  A    between atoms: C_1  and  C_2
REMARK    2  A    between atoms: C_2  and  C_3
REMARK    3  A    between atoms: C_3  and  N_4
REMARK    4  A    between atoms: C_8  and  S_9
REMARK    5  A    between atoms: S_9  and  C_10
REMARK    6  A    between atoms: C_10  and  C_11
REMARK    7  A    between atoms: C_11  and  C_12
REMARK                            x       y       z     vdW  Elec       q    Type
REMARK                         _______ _______ _______ _____ _____    ______ ____
ROOT
ATOM      1  N   UNL     1       3.766   3.213  19.023  0.00  0.00    +0.000 N 
ATOM      2  C   UNL     1       3.033   3.072  17.875  0.00  0.00    +0.000 A 
ATOM      3  N   UNL     1       3.586   3.701  16.860  0.00  0.00    +0.000 NA
ATOM      4  C   UNL     1       4.732   4.281  17.375  0.00  0.00    +0.000 A 
ATOM      5  C   UNL     1       5.751   5.070  16.836  0.00  0.00    +0.000 A 
ATOM      6  N   UNL     1       6.764   5.493  17.636  0.00  0.00    +0.000 NA
ATOM      7  C   UNL     1       6.762   5.120  18.926  0.00  0.00    +0.000 A 
ATOM      8  N   UNL     1       7.812   5.572  19.702  0.00  0.00    +0.000 N 
ATOM      9  N   UNL     1       5.833   4.383  19.551  0.00  0.00    +0.000 NA
ATOM     10  C   UNL     1       4.853   3.988  18.725  0.00  0.00    +0.000 A 
ATOM     11  H   UNL     1       8.206   6.411  19.300  0.00  0.00    +0.000 HD
ATOM     12  H   UNL     1       7.537   5.606  20.674  0.00  0.00    +0.000 HD
ENDROOT
BRANCH   1  13
ATOM     13  C   UNL     1       3.437   2.649  20.314  0.00  0.00    +0.000 C 
BRANCH  13  15
ATOM     14  C   UNL     1       1.298   3.893  20.916  0.00  0.00    +0.000 C 
ATOM     15  C   UNL     1       1.935   2.550  20.588  0.00  0.00    +0.000 C 
ENDBRANCH  13  15
ENDBRANCH   1  13
BRANCH   5  16
ATOM     16  S   UNL     1       5.670   5.551  15.137  0.00  0.00    +0.000 S 
BRANCH  16  17
ATOM     17  C   UNL     1       7.218   4.829  14.491  0.00  0.00    +0.000 C 
BRANCH  17  18
ATOM     18  C   UNL     1       7.221   4.950  12.965  0.00  0.00    +0.000 C 
BRANCH  18  19
ATOM     19  C   UNL     1       6.722   3.702  12.274  0.00  0.00    +0.000 A 
ATOM     20  C   UNL     1       5.349   3.442  12.170  0.00  0.00    +0.000 A 
ATOM     21  C   UNL     1       4.892   2.301  11.507  0.00  0.00    +0.000 A 
ATOM     22  C   UNL     1       5.802   1.407  10.946  0.00  0.00    +0.000 A 
ATOM     23  C   UNL     1       7.170   1.651  11.050  0.00  0.00    +0.000 A 
ATOM     24  C   UNL     1       7.630   2.792  11.713  0.00  0.00    +0.000 A 
ENDBRANCH  18  19
ENDBRANCH  17  18
ENDBRANCH  16  17
ENDBRANCH   5  16
TORSDOF 6
ENDMDL
MODEL 6
REMARK VINA RESULT:      -7.1      1.053      1.458
REMARK  Name = 
REMARK  7 active torsions:
REMARK  status: ('A' for Active; 'I' for Inactive)
REMARK    1  A    between atoms: C_1  and  C_2
REMARK    2  A    between atoms: C_2  and  C_3
REMARK    3  A    between atoms: C_3  and  N_4
REMARK    4  A    between atoms: C_8  and  S_9
REMARK    5  A    between atoms: S_9  and  C_10
REMARK    6  A    between atoms: C_10  and  C_11
REMARK    7  A    between atoms: C_11  and  C_12
REMARK                            x       y       z     vdW  Elec       q    Type
REMARK                         _______ _______ _______ _____ _____    ______ ____
ROOT
ATOM      1  N   UNL     1       3.932   4.315  17.760  0.00  0.00    +0.000 N 
ATOM      2  C   UNL     1       4.109   4.651  19.076  0.00  0.00    +0.000 A 
ATOM      3  N   UNL     1       5.221   5.328  19.263  0.00  0.00    +0.000 NA
ATOM      4  C   UNL     1       5.796   5.434  18.009  0.00  0.00    +0.000 A 
ATOM      5  C   UNL     1       6.964   6.023  17.520  0.00  0.00    +0.000 A 
ATOM      6  N   UNL     1       7.251   5.944  16.195  0.00  0.00    +0.000 NA
ATOM      7  C   UNL     1       6.382   5.312  15.388  0.00  0.00    +0.000 A 
ATOM      8  N   UNL     1       6.712   5.256  14.047  0.00  0.00    +0.000 N 
ATOM      9  N   UNL     1       5.245   4.699  15.748  0.00  0.00    +0.000 NA
ATOM     10  C   UNL     1       5.004   4.802  17.063  0.00  0.00    +0.000 A 
ATOM     11  H   UNL     1       7.711   5.351  13.930  0.00  0.00    +0.000 HD
ATOM     12  H   UNL     1       6.266   4.461  13.611  0.00  0.00    +0.000 HD
ENDROOT
BRANCH   1  13
ATOM     13  C   UNL     1       2.817   3.572  17.216  0.00  0.00    +0.000 C 
BRANCH  13  15
ATOM     14  C   UNL     1       1.043   2.980  18.945  0.00  0.00    +0.000 C 
ATOM     15  C   UNL     1       1.465   3.933  17.836  0.00  0.00    +0.000 C 
ENDBRANCH  13  15
ENDBRANCH   1  13
BRANCH   5  16
ATOM     16  S   UNL     1       8.078   6.810  18.647  0.00  0.00    +0.000 S 
BRANCH  16  17
ATOM     17  C   UNL     1       8.109   8.511  17.982  0.00  0.00    +0.000 C 
BRANCH  17  18
ATOM     18  C   UNL     1       8.967   9.384  18.902  0.00  0.00    +0.000 C 
BRANCH  18  19
ATOM     19  C   UNL     1       9.217  10.764  18.339  0.00  0.00    +0.000 A 
ATOM     20  C   UNL     1       8.159  11.537  17.843  0.00  0.00    +0.000 A 
ATOM     21  C   UNL     1       8.391  12.822  17.348  0.00  0.00    +0.000 A 
ATOM     22  C   UNL     1       9.682  13.345  17.340  0.00  0.00    +0.000 A 
ATOM     23  C   UNL     1      10.744  12.583  17.823  0.00  0.00    +0.000 A 
ATOM     24  C   UNL     1      10.515  11.297  18.318  0.00  0.00    +0.000 A 
ENDBRANCH  18  19
ENDBRANCH  17  18
ENDBRANCH  16  17
ENDBRANCH   5  16
TORSDOF 6
ENDMDL
MODEL 7
REMARK VINA RESULT:      -7.1      4.600      6.146
REMARK  Name = 
REMARK  7 active torsions:
REMARK  status: ('A' for Active; 'I' for Inactive)
REMARK    1  A    between atoms: C_1  and  C_2
REMARK    2  A    between atoms: C_2  and  C_3
REMARK    3  A    between atoms: C_3  and  N_4
REMARK    4  A    between atoms: C_8  and  S_9
REMARK    5  A    between atoms: S_9  and  C_10
REMARK    6  A    between atoms: C_10  and  C_11
REMARK    7  A    between atoms: C_11  and  C_12
REMARK                            x       y       z     vdW  Elec       q    Type
REMARK                         _______ _______ _______ _____ _____    ______ ____
ROOT
ATOM      1  N   UNL     1       2.928   3.004  19.277  0.00  0.00    +0.000 N 
ATOM      2  C   UNL     1       4.063   2.277  19.517  0.00  0.00    +0.000 A 
ATOM      3  N   UNL     1       5.152   2.991  19.323  0.00  0.00    +0.000 NA
ATOM      4  C   UNL     1       4.701   4.241  18.936  0.00  0.00    +0.000 A 
ATOM      5  C   UNL     1       5.330   5.438  18.588  0.00  0.00    +0.000 A 
ATOM      6  N   UNL     1       4.578   6.514  18.242  0.00  0.00    +0.000 NA
ATOM      7  C   UNL     1       3.240   6.395  18.264  0.00  0.00    +0.000 A 
ATOM      8  N   UNL     1       2.514   7.515  17.907  0.00  0.00    +0.000 N 
ATOM      9  N   UNL     1       2.532   5.297  18.564  0.00  0.00    +0.000 NA
ATOM     10  C   UNL     1       3.315   4.260  18.899  0.00  0.00    +0.000 A 
ATOM     11  H   UNL     1       3.072   8.121  17.322  0.00  0.00    +0.000 HD
ATOM     12  H   UNL     1       1.603   7.244  17.560  0.00  0.00    +0.000 HD
ENDROOT
BRANCH   1  13
ATOM     13  C   UNL     1       1.570   2.520  19.396  0.00  0.00    +0.000 C 
BRANCH  13  15
ATOM     14  C   UNL     1       1.413   2.735  21.929  0.00  0.00    +0.000 C 
ATOM     15  C   UNL     1       0.801   3.102  20.584  0.00  0.00    +0.000 C 
ENDBRANCH  13  15
ENDBRANCH   1  13
BRANCH   5  16
ATOM     16  S   UNL     1       7.097   5.511  18.548  0.00  0.00    +0.000 S 
BRANCH  16  17
ATOM     17  C   UNL     1       7.440   4.849  16.880  0.00  0.00    +0.000 C 
BRANCH  17  18
ATOM     18  C   UNL     1       6.523   5.548  15.873  0.00  0.00    +0.000 C 
BRANCH  18  19
ATOM     19  C   UNL     1       6.577   4.927  14.497  0.00  0.00    +0.000 A 
ATOM     20  C   UNL     1       7.605   5.257  13.603  0.00  0.00    +0.000 A 
ATOM     21  C   UNL     1       7.666   4.660  12.342  0.00  0.00    +0.000 A 
ATOM     22  C   UNL     1       6.700   3.732  11.960  0.00  0.00    +0.000 A 
ATOM     23  C   UNL     1       5.668   3.402  12.837  0.00  0.00    +0.000 A 
ATOM     24  C   UNL     1       5.604   3.998  14.100  0.00  0.00    +0.000 A 
ENDBRANCH  18  19
ENDBRANCH  17  18
ENDBRANCH  16  17
ENDBRANCH   5  16
TORSDOF 6
ENDMDL
MODEL 8
REMARK VINA RESULT:      -7.0      4.708      6.287
REMARK  Name = 
REMARK  7 active torsions:
REMARK  status: ('A' for Active; 'I' for Inactive)
REMARK    1  A    between atoms: C_1  and  C_2
REMARK    2  A    between atoms: C_2  and  C_3
REMARK    3  A    between atoms: C_3  and  N_4
REMARK    4  A    between atoms: C_8  and  S_9
REMARK    5  A    between atoms: S_9  and  C_10
REMARK    6  A    between atoms: C_10  and  C_11
REMARK    7  A    between atoms: C_11  and  C_12
REMARK                            x       y       z     vdW  Elec       q    Type
REMARK                         _______ _______ _______ _____ _____    ______ ____
ROOT
ATOM      1  N   UNL     1       3.197   3.806  20.106  0.00  0.00    +0.000 N 
ATOM      2  C   UNL     1       4.377   3.112  20.073  0.00  0.00    +0.000 A 
ATOM      3  N   UNL     1       5.296   3.740  19.371  0.00  0.00    +0.000 NA
ATOM      4  C   UNL     1       4.682   4.897  18.925  0.00  0.00    +0.000 A 
ATOM      5  C   UNL     1       5.096   5.981  18.148  0.00  0.00    +0.000 A 
ATOM      6  N   UNL     1       4.222   6.986  17.880  0.00  0.00    +0.000 NA
ATOM      7  C   UNL     1       2.982   6.911  18.393  0.00  0.00    +0.000 A 
ATOM      8  N   UNL     1       2.127   7.955  18.097  0.00  0.00    +0.000 N 
ATOM      9  N   UNL     1       2.475   5.917  19.135  0.00  0.00    +0.000 NA
ATOM     10  C   UNL     1       3.371   4.948  19.373  0.00  0.00    +0.000 A 
ATOM     11  H   UNL     1       2.419   8.414  17.245  0.00  0.00    +0.000 HD
ATOM     12  H   UNL     1       1.167   7.645  18.153  0.00  0.00    +0.000 HD
ENDROOT
BRANCH   1  13
ATOM     13  C   UNL     1       1.990   3.395  20.787  0.00  0.00    +0.000 C 
BRANCH  13  15
ATOM     14  C   UNL     1       0.984   2.170  18.793  0.00  0.00    +0.000 C 
ATOM     15  C   UNL     1       0.779   3.229  19.867  0.00  0.00    +0.000 C 
ENDBRANCH  13  15
ENDBRANCH   1  13
BRANCH   5  16
ATOM     16  S   UNL     1       6.732   5.995  17.477  0.00  0.00    +0.000 S 
BRANCH  16  17
ATOM     17  C   UNL     1       6.799   4.355  16.675  0.00  0.00    +0.000 C 
BRANCH  17  18
ATOM     18  C   UNL     1       5.711   4.286  15.601  0.00  0.00    +0.000 C 
BRANCH  18  19
ATOM     19  C   UNL     1       6.270   4.276  14.197  0.00  0.00    +0.000 A 
ATOM     20  C   UNL     1       5.724   3.437  13.216  0.00  0.00    +0.000 A 
ATOM     21  C   UNL     1       6.226   3.451  11.913  0.00  0.00    +0.000 A 
ATOM     22  C   UNL     1       7.280   4.299  11.578  0.00  0.00    +0.000 A 
ATOM     23  C   UNL     1       7.836   5.132  12.548  0.00  0.00    +0.000 A 
ATOM     24  C   UNL     1       7.336   5.120  13.852  0.00  0.00    +0.000 A 
ENDBRANCH  18  19
ENDBRANCH  17  18
ENDBRANCH  16  17
ENDBRANCH   5  16
TORSDOF 6
ENDMDL
MODEL 9
REMARK VINA RESULT:      -6.9      2.142      2.945
REMARK  Name = 
REMARK  7 active torsions:
REMARK  status: ('A' for Active; 'I' for Inactive)
REMARK    1  A    between atoms: C_1  and  C_2
REMARK    2  A    between atoms: C_2  and  C_3
REMARK    3  A    between atoms: C_3  and  N_4
REMARK    4  A    between atoms: C_8  and  S_9
REMARK    5  A    between atoms: S_9  and  C_10
REMARK    6  A    between atoms: C_10  and  C_11
REMARK    7  A    between atoms: C_11  and  C_12
REMARK                            x       y       z     vdW  Elec       q    Type
REMARK                         _______ _______ _______ _____ _____    ______ ____
ROOT
ATOM      1  N   UNL     1       2.944   3.850  18.752  0.00  0.00    +0.000 N 
ATOM      2  C   UNL     1       4.079   3.083  18.770  0.00  0.00    +0.000 A 
ATOM      3  N   UNL     1       5.142   3.775  18.421  0.00  0.00    +0.000 NA
ATOM      4  C   UNL     1       4.675   5.051  18.161  0.00  0.00    +0.000 A 
ATOM      5  C   UNL     1       5.277   6.244  17.756  0.00  0.00    +0.000 A 
ATOM      6  N   UNL     1       4.513   7.354  17.581  0.00  0.00    +0.000 NA
ATOM      7  C   UNL     1       3.195   7.270  17.825  0.00  0.00    +0.000 A 
ATOM      8  N   UNL     1       2.457   8.423  17.636  0.00  0.00    +0.000 N 
ATOM      9  N   UNL     1       2.511   6.179  18.200  0.00  0.00    +0.000 NA
ATOM     10  C   UNL     1       3.304   5.110  18.359  0.00  0.00    +0.000 A 
ATOM     11  H   UNL     1       2.930   9.037  16.988  0.00  0.00    +0.000 HD
ATOM     12  H   UNL     1       1.493   8.191  17.439  0.00  0.00    +0.000 HD
ENDROOT
BRANCH   1  13
ATOM     13  C   UNL     1       1.610   3.398  19.080  0.00  0.00    +0.000 C 
BRANCH  13  15
ATOM     14  C   UNL     1       1.585   2.796  21.555  0.00  0.00    +0.000 C 
ATOM     15  C   UNL     1       1.147   3.787  20.485  0.00  0.00    +0.000 C 
ENDBRANCH  13  15
ENDBRANCH   1  13
BRANCH   5  16
ATOM     16  S   UNL     1       7.013   6.272  17.421  0.00  0.00    +0.000 S 
BRANCH  16  17
ATOM     17  C   UNL     1       7.355   8.065  17.476  0.00  0.00    +0.000 C 
BRANCH  17  18
ATOM     18  C   UNL     1       8.485   8.322  18.477  0.00  0.00    +0.000 C 
BRANCH  18  19
ATOM     19  C   UNL     1       8.808   9.789  18.637  0.00  0.00    +0.000 A 
ATOM     20  C   UNL     1       8.483  10.707  17.630  0.00  0.00    +0.000 A 
ATOM     21  C   UNL     1       8.759  12.066  17.794  0.00  0.00    +0.000 A 
ATOM     22  C   UNL     1       9.365  12.520  18.964  0.00  0.00    +0.000 A 
ATOM     23  C   UNL     1       9.701  11.615  19.969  0.00  0.00    +0.000 A 
ATOM     24  C   UNL     1       9.426  10.255  19.807  0.00  0.00    +0.000 A 
ENDBRANCH  18  19
ENDBRANCH  17  18
ENDBRANCH  16  17
ENDBRANCH   5  16
TORSDOF 6
ENDMDL
