MODEL 1
REMARK VINA RESULT:      -8.9      0.000      0.000
REMARK  Name = 
REMARK  5 active torsions:
REMARK  status: ('A' for Active; 'I' for Inactive)
REMARK    1  A    between atoms: C_1  and  N_2
REMARK    2  A    between atoms: C_6  and  C_7
REMARK    3  A    between atoms: C_7  and  N_8
REMARK    4  A    between atoms: C_7  and  C_23
REMARK    5  A    between atoms: C_9  and  C_11
REMARK                            x       y       z     vdW  Elec       q    Type
REMARK                         _______ _______ _______ _____ _____    ______ ____
ROOT
ATOM      1  N   UNL     1       0.495   9.627  19.113  0.00  0.00    +0.000 N 
ATOM      2  C   UNL     1       1.659   9.394  18.423  0.00  0.00    +0.000 C 
ATOM      3  O   UNL     1       2.219  10.245  17.743  0.00  0.00    +0.000 OA
ATOM      4  H   UNL     1       0.170   8.987  19.829  0.00  0.00    +0.000 HD
ENDROOT
BRANCH   2   5
ATOM      5  C   UNL     1       2.259   8.030  18.545  0.00  0.00    +0.000 A 
ATOM      6  C   UNL     1       3.235   7.564  17.652  0.00  0.00    +0.000 A 
ATOM      7  C   UNL     1       3.817   6.304  17.837  0.00  0.00    +0.000 A 
ATOM      8  C   UNL     1       3.430   5.511  18.916  0.00  0.00    +0.000 A 
ATOM      9  N   UNL     1       4.034   4.269  19.115  0.00  0.00    +0.000 N 
ATOM     10  C   UNL     1       3.724   3.436  20.171  0.00  0.00    +0.000 A 
ATOM     11  O   UNL     1       4.288   2.362  20.327  0.00  0.00    +0.000 OA
ATOM     12  C   UNL     1       2.625   3.927  21.144  0.00  0.00    +0.000 A 
ATOM     13  O   UNL     1       2.264   3.247  22.096  0.00  0.00    +0.000 OA
ATOM     14  N   UNL     1       2.071   5.165  20.886  0.00  0.00    +0.000 N 
ATOM     15  C   UNL     1       2.454   5.968  19.805  0.00  0.00    +0.000 A 
ATOM     16  C   UNL     1       1.870   7.222  19.627  0.00  0.00    +0.000 A 
ATOM     17  H   UNL     1       4.757   3.934  18.493  0.00  0.00    +0.000 HD
ATOM     18  H   UNL     1       1.363   5.473  21.538  0.00  0.00    +0.000 HD
ENDBRANCH   2   5
BRANCH   1  19
ATOM     19  C   UNL     1      -0.185  10.914  19.114  0.00  0.00    +0.000 C 
BRANCH  19  20
ATOM     20  C   UNL     1      -1.465  10.860  18.281  0.00  0.00    +0.000 A 
ATOM     21  C   UNL     1      -2.579  11.624  18.684  0.00  0.00    +0.000 A 
ATOM     22  C   UNL     1      -3.794  11.557  17.994  0.00  0.00    +0.000 A 
ATOM     23  C   UNL     1      -3.915  10.732  16.880  0.00  0.00    +0.000 A 
ATOM     24  C   UNL     1      -2.809  10.014  16.445  0.00  0.00    +0.000 A 
ATOM     25  F   UNL     1      -2.922   9.231  15.363  0.00  0.00    +0.000 F 
ATOM     26  C   UNL     1      -1.590  10.081  17.119  0.00  0.00    +0.000 A 
ENDBRANCH  19  20
BRANCH  19  32
ATOM     27  C   UNL     1      -0.103  13.782  20.372  0.00  0.00    +0.000 C 
ATOM     28  N   UNL     1      -0.353  12.553  21.087  0.00  0.00    +0.000 N 
ATOM     29  C   UNL     1      -0.572  12.471  22.435  0.00  0.00    +0.000 A 
ATOM     30  C   UNL     1      -0.759  11.136  22.691  0.00  0.00    +0.000 A 
ATOM     31  N   UNL     1      -0.654  10.402  21.541  0.00  0.00    +0.000 NA
ATOM     32  C   UNL     1      -0.407  11.275  20.571  0.00  0.00    +0.000 A 
ENDBRANCH  19  32
ENDBRANCH   1  19
TORSDOF 4
ENDMDL
MODEL 2
REMARK VINA RESULT:      -8.9      0.844      1.227
REMARK  Name = 
REMARK  5 active torsions:
REMARK  status: ('A' for Active; 'I' for Inactive)
REMARK    1  A    between atoms: C_1  and  N_2
REMARK    2  A    between atoms: C_6  and  C_7
REMARK    3  A    between atoms: C_7  and  N_8
REMARK    4  A    between atoms: C_7  and  C_23
REMARK    5  A    between atoms: C_9  and  C_11
REMARK                            x       y       z     vdW  Elec       q    Type
REMARK                         _______ _______ _______ _____ _____    ______ ____
ROOT
ATOM      1  N   UNL     1       0.432   9.613  19.037  0.00  0.00    +0.000 N 
ATOM      2  C   UNL     1       1.628   9.395  18.402  0.00  0.00    +0.000 C 
ATOM      3  O   UNL     1       2.219  10.257  17.762  0.00  0.00    +0.000 OA
ATOM      4  H   UNL     1       0.074   8.962  19.727  0.00  0.00    +0.000 HD
ENDROOT
BRANCH   2   5
ATOM      5  C   UNL     1       2.227   8.031  18.532  0.00  0.00    +0.000 A 
ATOM      6  C   UNL     1       3.201   7.557  17.641  0.00  0.00    +0.000 A 
ATOM      7  C   UNL     1       3.782   6.297  17.833  0.00  0.00    +0.000 A 
ATOM      8  C   UNL     1       3.396   5.513  18.919  0.00  0.00    +0.000 A 
ATOM      9  N   UNL     1       3.998   4.272  19.127  0.00  0.00    +0.000 N 
ATOM     10  C   UNL     1       3.690   3.447  20.189  0.00  0.00    +0.000 A 
ATOM     11  O   UNL     1       4.253   2.373  20.353  0.00  0.00    +0.000 OA
ATOM     12  C   UNL     1       2.594   3.947  21.162  0.00  0.00    +0.000 A 
ATOM     13  O   UNL     1       2.235   3.274  22.120  0.00  0.00    +0.000 OA
ATOM     14  N   UNL     1       2.041   5.184  20.896  0.00  0.00    +0.000 N 
ATOM     15  C   UNL     1       2.423   5.978  19.808  0.00  0.00    +0.000 A 
ATOM     16  C   UNL     1       1.840   7.231  19.621  0.00  0.00    +0.000 A 
ATOM     17  H   UNL     1       4.720   3.931  18.505  0.00  0.00    +0.000 HD
ATOM     18  H   UNL     1       1.335   5.497  21.547  0.00  0.00    +0.000 HD
ENDBRANCH   2   5
BRANCH   1  19
ATOM     19  C   UNL     1      -0.252  10.898  19.023  0.00  0.00    +0.000 C 
BRANCH  19  20
ATOM     20  C   UNL     1      -1.552  10.821  18.223  0.00  0.00    +0.000 A 
ATOM     21  C   UNL     1      -1.622   9.958  17.111  0.00  0.00    +0.000 A 
ATOM     22  C   UNL     1      -2.767   9.901  16.308  0.00  0.00    +0.000 A 
ATOM     23  C   UNL     1      -3.866  10.698  16.608  0.00  0.00    +0.000 A 
ATOM     24  C   UNL     1      -3.825  11.515  17.730  0.00  0.00    +0.000 A 
ATOM     25  F   UNL     1      -4.891  12.272  18.027  0.00  0.00    +0.000 F 
ATOM     26  C   UNL     1      -2.695  11.572  18.544  0.00  0.00    +0.000 A 
ENDBRANCH  19  20
BRANCH  19  32
ATOM     27  C   UNL     1      -0.237  13.802  20.198  0.00  0.00    +0.000 C 
ATOM     28  N   UNL     1      -0.419  12.587  20.954  0.00  0.00    +0.000 N 
ATOM     29  C   UNL     1      -0.590  12.536  22.311  0.00  0.00    +0.000 A 
ATOM     30  C   UNL     1      -0.719  11.203  22.610  0.00  0.00    +0.000 A 
ATOM     31  N   UNL     1      -0.624  10.440  21.478  0.00  0.00    +0.000 NA
ATOM     32  C   UNL     1      -0.441  11.293  20.477  0.00  0.00    +0.000 A 
ENDBRANCH  19  32
ENDBRANCH   1  19
TORSDOF 4
ENDMDL
MODEL 3
REMARK VINA RESULT:      -8.7      3.460      8.190
REMARK  Name = 
REMARK  5 active torsions:
REMARK  status: ('A' for Active; 'I' for Inactive)
REMARK    1  A    between atoms: C_1  and  N_2
REMARK    2  A    between atoms: C_6  and  C_7
REMARK    3  A    between atoms: C_7  and  N_8
REMARK    4  A    between atoms: C_7  and  C_23
REMARK    5  A    between atoms: C_9  and  C_11
REMARK                            x       y       z     vdW  Elec       q    Type
REMARK                         _______ _______ _______ _____ _____    ______ ____
ROOT
ATOM      1  N   UNL     1       3.035   6.662  18.388  0.00  0.00    +0.000 N 
ATOM      2  C   UNL     1       2.635   7.863  17.858  0.00  0.00    +0.000 C 
ATOM      3  O   UNL     1       2.966   8.250  16.743  0.00  0.00    +0.000 OA
ATOM      4  H   UNL     1       2.584   6.272  19.208  0.00  0.00    +0.000 HD
ENDROOT
BRANCH   2   5
ATOM      5  C   UNL     1       1.735   8.710  18.698  0.00  0.00    +0.000 A 
ATOM      6  C   UNL     1       0.823   9.614  18.133  0.00  0.00    +0.000 A 
ATOM      7  C   UNL     1      -0.047  10.345  18.953  0.00  0.00    +0.000 A 
ATOM      8  C   UNL     1      -0.011  10.169  20.335  0.00  0.00    +0.000 A 
ATOM      9  N   UNL     1      -0.899  10.876  21.147  0.00  0.00    +0.000 N 
ATOM     10  C   UNL     1      -0.943  10.741  22.520  0.00  0.00    +0.000 A 
ATOM     11  O   UNL     1      -1.749  11.360  23.200  0.00  0.00    +0.000 OA
ATOM     12  C   UNL     1       0.080   9.769  23.156  0.00  0.00    +0.000 A 
ATOM     13  O   UNL     1       0.135   9.601  24.367  0.00  0.00    +0.000 OA
ATOM     14  N   UNL     1       0.929   9.103  22.292  0.00  0.00    +0.000 N 
ATOM     15  C   UNL     1       0.899   9.274  20.903  0.00  0.00    +0.000 A 
ATOM     16  C   UNL     1       1.769   8.543  20.093  0.00  0.00    +0.000 A 
ATOM     17  H   UNL     1      -1.578  11.511  20.749  0.00  0.00    +0.000 HD
ATOM     18  H   UNL     1       1.583   8.466  22.725  0.00  0.00    +0.000 HD
ENDBRANCH   2   5
BRANCH   1  19
ATOM     19  C   UNL     1       3.885   5.720  17.673  0.00  0.00    +0.000 C 
BRANCH  19  20
ATOM     20  C   UNL     1       5.359   5.956  17.997  0.00  0.00    +0.000 A 
ATOM     21  C   UNL     1       5.955   5.234  19.050  0.00  0.00    +0.000 A 
ATOM     22  C   UNL     1       7.283   5.461  19.428  0.00  0.00    +0.000 A 
ATOM     23  C   UNL     1       8.043   6.410  18.752  0.00  0.00    +0.000 A 
ATOM     24  C   UNL     1       7.482   7.092  17.680  0.00  0.00    +0.000 A 
ATOM     25  F   UNL     1       8.221   7.994  17.020  0.00  0.00    +0.000 F 
ATOM     26  C   UNL     1       6.163   6.865  17.289  0.00  0.00    +0.000 A 
ENDBRANCH  19  20
BRANCH  19  32
ATOM     27  C   UNL     1       2.601   4.843  20.392  0.00  0.00    +0.000 C 
ATOM     28  N   UNL     1       2.831   3.988  19.253  0.00  0.00    +0.000 N 
ATOM     29  C   UNL     1       2.534   2.653  19.213  0.00  0.00    +0.000 A 
ATOM     30  C   UNL     1       2.912   2.235  17.962  0.00  0.00    +0.000 A 
ATOM     31  N   UNL     1       3.437   3.273  17.242  0.00  0.00    +0.000 NA
ATOM     32  C   UNL     1       3.383   4.335  18.038  0.00  0.00    +0.000 A 
ENDBRANCH  19  32
ENDBRANCH   1  19
TORSDOF 4
ENDMDL
MODEL 4
REMARK VINA RESULT:      -8.6      2.256      3.027
REMARK  Name = 
REMARK  5 active torsions:
REMARK  status: ('A' for Active; 'I' for Inactive)
REMARK    1  A    between atoms: C_1  and  N_2
REMARK    2  A    between atoms: C_6  and  C_7
REMARK    3  A    between atoms: C_7  and  N_8
REMARK    4  A    between atoms: C_7  and  C_23
REMARK    5  A    between atoms: C_9  and  C_11
REMARK                            x       y       z     vdW  Elec       q    Type
REMARK                         _______ _______ _______ _____ _____    ______ ____
ROOT
ATOM      1  N   UNL     1       0.841   9.100  18.968  0.00  0.00    +0.000 N 
ATOM      2  C   UNL     1       1.977   9.145  18.200  0.00  0.00    +0.000 C 
ATOM      3  O   UNL     1       2.454  10.187  17.764  0.00  0.00    +0.000 OA
ATOM      4  H   UNL     1       0.589   8.267  19.488  0.00  0.00    +0.000 HD
ENDROOT
BRANCH   2   5
ATOM      5  C   UNL     1       2.657   7.845  17.916  0.00  0.00    +0.000 A 
ATOM      6  C   UNL     1       2.108   6.616  18.310  0.00  0.00    +0.000 A 
ATOM      7  C   UNL     1       2.746   5.416  17.971  0.00  0.00    +0.000 A 
ATOM      8  C   UNL     1       3.928   5.442  17.233  0.00  0.00    +0.000 A 
ATOM      9  N   UNL     1       4.545   4.244  16.869  0.00  0.00    +0.000 N 
ATOM     10  C   UNL     1       5.703   4.184  16.121  0.00  0.00    +0.000 A 
ATOM     11  O   UNL     1       6.205   3.115  15.802  0.00  0.00    +0.000 OA
ATOM     12  C   UNL     1       6.334   5.535  15.708  0.00  0.00    +0.000 A 
ATOM     13  O   UNL     1       7.375   5.584  15.064  0.00  0.00    +0.000 OA
ATOM     14  N   UNL     1       5.670   6.681  16.102  0.00  0.00    +0.000 N 
ATOM     15  C   UNL     1       4.482   6.664  16.842  0.00  0.00    +0.000 A 
ATOM     16  C   UNL     1       3.853   7.862  17.177  0.00  0.00    +0.000 A 
ATOM     17  H   UNL     1       4.144   3.351  17.126  0.00  0.00    +0.000 HD
ATOM     18  H   UNL     1       6.092   7.552  15.814  0.00  0.00    +0.000 HD
ENDBRANCH   2   5
BRANCH   1  19
ATOM     19  C   UNL     1       0.092  10.288  19.351  0.00  0.00    +0.000 C 
BRANCH  19  20
ATOM     20  C   UNL     1      -1.153  10.457  18.481  0.00  0.00    +0.000 A 
ATOM     21  C   UNL     1      -2.168  11.340  18.900  0.00  0.00    +0.000 A 
ATOM     22  C   UNL     1      -3.355  11.480  18.173  0.00  0.00    +0.000 A 
ATOM     23  C   UNL     1      -3.545  10.747  17.006  0.00  0.00    +0.000 A 
ATOM     24  C   UNL     1      -2.530   9.911  16.558  0.00  0.00    +0.000 A 
ATOM     25  F   UNL     1      -2.708   9.216  15.425  0.00  0.00    +0.000 F 
ATOM     26  C   UNL     1      -1.340   9.772  17.269  0.00  0.00    +0.000 A 
ENDBRANCH  19  20
BRANCH  19  32
ATOM     27  C   UNL     1      -0.084  12.595  21.463  0.00  0.00    +0.000 C 
ATOM     28  N   UNL     1      -0.262  11.188  21.732  0.00  0.00    +0.000 N 
ATOM     29  C   UNL     1      -0.515  10.661  22.970  0.00  0.00    +0.000 A 
ATOM     30  C   UNL     1      -0.607   9.306  22.775  0.00  0.00    +0.000 A 
ATOM     31  N   UNL     1      -0.411   8.991  21.458  0.00  0.00    +0.000 NA
ATOM     32  C   UNL     1      -0.202  10.144  20.833  0.00  0.00    +0.000 A 
ENDBRANCH  19  32
ENDBRANCH   1  19
TORSDOF 4
ENDMDL
MODEL 5
REMARK VINA RESULT:      -8.6      3.626      8.647
REMARK  Name = 
REMARK  5 active torsions:
REMARK  status: ('A' for Active; 'I' for Inactive)
REMARK    1  A    between atoms: C_1  and  N_2
REMARK    2  A    between atoms: C_6  and  C_7
REMARK    3  A    between atoms: C_7  and  N_8
REMARK    4  A    between atoms: C_7  and  C_23
REMARK    5  A    between atoms: C_9  and  C_11
REMARK                            x       y       z     vdW  Elec       q    Type
REMARK                         _______ _______ _______ _____ _____    ______ ____
ROOT
ATOM      1  N   UNL     1       2.829   6.863  18.779  0.00  0.00    +0.000 N 
ATOM      2  C   UNL     1       2.262   8.076  18.479  0.00  0.00    +0.000 C 
ATOM      3  O   UNL     1       2.341   8.602  17.375  0.00  0.00    +0.000 OA
ATOM      4  H   UNL     1       2.573   6.355  19.618  0.00  0.00    +0.000 HD
ENDROOT
BRANCH   2   5
ATOM      5  C   UNL     1       1.497   8.757  19.569  0.00  0.00    +0.000 A 
ATOM      6  C   UNL     1       1.430   8.234  20.869  0.00  0.00    +0.000 A 
ATOM      7  C   UNL     1       0.754   8.933  21.877  0.00  0.00    +0.000 A 
ATOM      8  C   UNL     1       0.152  10.157  21.590  0.00  0.00    +0.000 A 
ATOM      9  N   UNL     1      -0.494  10.867  22.603  0.00  0.00    +0.000 N 
ATOM     10  C   UNL     1      -1.094  12.094  22.406  0.00  0.00    +0.000 A 
ATOM     11  O   UNL     1      -1.633  12.699  23.323  0.00  0.00    +0.000 OA
ATOM     12  C   UNL     1      -1.052  12.665  20.968  0.00  0.00    +0.000 A 
ATOM     13  O   UNL     1      -1.578  13.735  20.690  0.00  0.00    +0.000 OA
ATOM     14  N   UNL     1      -0.396  11.910  20.015  0.00  0.00    +0.000 N 
ATOM     15  C   UNL     1       0.212  10.680  20.295  0.00  0.00    +0.000 A 
ATOM     16  C   UNL     1       0.882   9.989  19.286  0.00  0.00    +0.000 A 
ATOM     17  H   UNL     1      -0.527  10.512  23.550  0.00  0.00    +0.000 HD
ATOM     18  H   UNL     1      -0.371  12.303  19.085  0.00  0.00    +0.000 HD
ENDBRANCH   2   5
BRANCH   1  19
ATOM     19  C   UNL     1       3.574   6.073  17.810  0.00  0.00    +0.000 C 
BRANCH  19  20
ATOM     20  C   UNL     1       5.076   6.150  18.077  0.00  0.00    +0.000 A 
ATOM     21  C   UNL     1       5.625   5.398  19.135  0.00  0.00    +0.000 A 
ATOM     22  C   UNL     1       6.983   5.486  19.461  0.00  0.00    +0.000 A 
ATOM     23  C   UNL     1       7.820   6.320  18.727  0.00  0.00    +0.000 A 
ATOM     24  C   UNL     1       7.300   7.028  17.652  0.00  0.00    +0.000 A 
ATOM     25  F   UNL     1       8.111   7.820  16.936  0.00  0.00    +0.000 F 
ATOM     26  C   UNL     1       5.951   6.940  17.311  0.00  0.00    +0.000 A 
ENDBRANCH  19  20
BRANCH  19  32
ATOM     27  C   UNL     1       4.534   3.572  16.186  0.00  0.00    +0.000 C 
ATOM     28  N   UNL     1       3.450   3.594  17.139  0.00  0.00    +0.000 N 
ATOM     29  C   UNL     1       2.670   2.515  17.452  0.00  0.00    +0.000 A 
ATOM     30  C   UNL     1       1.774   2.974  18.384  0.00  0.00    +0.000 A 
ATOM     31  N   UNL     1       1.980   4.301  18.643  0.00  0.00    +0.000 NA
ATOM     32  C   UNL     1       3.003   4.668  17.879  0.00  0.00    +0.000 A 
ENDBRANCH  19  32
ENDBRANCH   1  19
TORSDOF 4
ENDMDL
MODEL 6
REMARK VINA RESULT:      -8.5      3.640      8.286
REMARK  Name = 
REMARK  5 active torsions:
REMARK  status: ('A' for Active; 'I' for Inactive)
REMARK    1  A    between atoms: C_1  and  N_2
REMARK    2  A    between atoms: C_6  and  C_7
REMARK    3  A    between atoms: C_7  and  N_8
REMARK    4  A    between atoms: C_7  and  C_23
REMARK    5  A    between atoms: C_9  and  C_11
REMARK                            x       y       z     vdW  Elec       q    Type
REMARK                         _______ _______ _______ _____ _____    ______ ____
ROOT
ATOM      1  N   UNL     1       2.656   6.014  18.330  0.00  0.00    +0.000 N 
ATOM      2  C   UNL     1       2.793   7.295  17.858  0.00  0.00    +0.000 C 
ATOM      3  O   UNL     1       3.446   7.579  16.860  0.00  0.00    +0.000 OA
ATOM      4  H   UNL     1       1.949   5.778  19.018  0.00  0.00    +0.000 HD
ENDROOT
BRANCH   2   5
ATOM      5  C   UNL     1       2.080   8.375  18.608  0.00  0.00    +0.000 A 
ATOM      6  C   UNL     1       1.614   9.537  17.976  0.00  0.00    +0.000 A 
ATOM      7  C   UNL     1       0.898  10.497  18.702  0.00  0.00    +0.000 A 
ATOM      8  C   UNL     1       0.639  10.294  20.056  0.00  0.00    +0.000 A 
ATOM      9  N   UNL     1      -0.101  11.236  20.770  0.00  0.00    +0.000 N 
ATOM     10  C   UNL     1      -0.419  11.098  22.105  0.00  0.00    +0.000 A 
ATOM     11  O   UNL     1      -1.090  11.934  22.695  0.00  0.00    +0.000 OA
ATOM     12  C   UNL     1       0.116   9.834  22.820  0.00  0.00    +0.000 A 
ATOM     13  O   UNL     1      -0.093   9.635  24.010  0.00  0.00    +0.000 OA
ATOM     14  N   UNL     1       0.842   8.944  22.053  0.00  0.00    +0.000 N 
ATOM     15  C   UNL     1       1.106   9.140  20.692  0.00  0.00    +0.000 A 
ATOM     16  C   UNL     1       1.821   8.180  19.976  0.00  0.00    +0.000 A 
ATOM     17  H   UNL     1      -0.465  12.066  20.318  0.00  0.00    +0.000 HD
ATOM     18  H   UNL     1       1.175   8.120  22.534  0.00  0.00    +0.000 HD
ENDBRANCH   2   5
BRANCH   1  19
ATOM     19  C   UNL     1       3.266   4.860  17.685  0.00  0.00    +0.000 C 
BRANCH  19  20
ATOM     20  C   UNL     1       4.790   4.921  17.777  0.00  0.00    +0.000 A 
ATOM     21  C   UNL     1       5.560   4.551  16.656  0.00  0.00    +0.000 A 
ATOM     22  C   UNL     1       6.958   4.527  16.712  0.00  0.00    +0.000 A 
ATOM     23  C   UNL     1       7.613   4.881  17.887  0.00  0.00    +0.000 A 
ATOM     24  C   UNL     1       6.865   5.295  18.981  0.00  0.00    +0.000 A 
ATOM     25  F   UNL     1       7.497   5.651  20.108  0.00  0.00    +0.000 F 
ATOM     26  C   UNL     1       5.472   5.333  18.934  0.00  0.00    +0.000 A 
ENDBRANCH  19  20
BRANCH  19  32
ATOM     27  C   UNL     1       2.450   4.549  20.694  0.00  0.00    +0.000 C 
ATOM     28  N   UNL     1       2.316   3.537  19.674  0.00  0.00    +0.000 N 
ATOM     29  C   UNL     1       1.826   2.278  19.891  0.00  0.00    +0.000 A 
ATOM     30  C   UNL     1       1.877   1.654  18.669  0.00  0.00    +0.000 A 
ATOM     31  N   UNL     1       2.389   2.493  17.717  0.00  0.00    +0.000 NA
ATOM     32  C   UNL     1       2.653   3.636  18.340  0.00  0.00    +0.000 A 
ENDBRANCH  19  32
ENDBRANCH   1  19
TORSDOF 4
ENDMDL
MODEL 7
REMARK VINA RESULT:      -8.5      3.621      8.263
REMARK  Name = 
REMARK  5 active torsions:
REMARK  status: ('A' for Active; 'I' for Inactive)
REMARK    1  A    between atoms: C_1  and  N_2
REMARK    2  A    between atoms: C_6  and  C_7
REMARK    3  A    between atoms: C_7  and  N_8
REMARK    4  A    between atoms: C_7  and  C_23
REMARK    5  A    between atoms: C_9  and  C_11
REMARK                            x       y       z     vdW  Elec       q    Type
REMARK                         _______ _______ _______ _____ _____    ______ ____
ROOT
ATOM      1  N   UNL     1       2.474   6.465  18.702  0.00  0.00    +0.000 N 
ATOM      2  C   UNL     1       2.549   7.631  17.982  0.00  0.00    +0.000 C 
ATOM      3  O   UNL     1       3.015   7.696  16.851  0.00  0.00    +0.000 OA
ATOM      4  H   UNL     1       1.899   6.395  19.534  0.00  0.00    +0.000 HD
ENDROOT
BRANCH   2   5
ATOM      5  C   UNL     1       2.006   8.865  18.631  0.00  0.00    +0.000 A 
ATOM      6  C   UNL     1       2.042  10.116  17.997  0.00  0.00    +0.000 A 
ATOM      7  C   UNL     1       1.469  11.236  18.612  0.00  0.00    +0.000 A 
ATOM      8  C   UNL     1       0.852  11.106  19.855  0.00  0.00    +0.000 A 
ATOM      9  N   UNL     1       0.254  12.216  20.452  0.00  0.00    +0.000 N 
ATOM     10  C   UNL     1      -0.395  12.166  21.669  0.00  0.00    +0.000 A 
ATOM     11  O   UNL     1      -0.928  13.155  22.153  0.00  0.00    +0.000 OA
ATOM     12  C   UNL     1      -0.414  10.797  22.391  0.00  0.00    +0.000 A 
ATOM     13  O   UNL     1      -0.944  10.659  23.485  0.00  0.00    +0.000 OA
ATOM     14  N   UNL     1       0.197   9.742  21.742  0.00  0.00    +0.000 N 
ATOM     15  C   UNL     1       0.818   9.863  20.493  0.00  0.00    +0.000 A 
ATOM     16  C   UNL     1       1.388   8.744  19.887  0.00  0.00    +0.000 A 
ATOM     17  H   UNL     1       0.252  13.118  19.993  0.00  0.00    +0.000 HD
ATOM     18  H   UNL     1       0.166   8.854  22.225  0.00  0.00    +0.000 HD
ENDBRANCH   2   5
BRANCH   1  19
ATOM     19  C   UNL     1       2.933   5.183  18.187  0.00  0.00    +0.000 C 
BRANCH  19  20
ATOM     20  C   UNL     1       4.459   5.127  18.132  0.00  0.00    +0.000 A 
ATOM     21  C   UNL     1       5.198   5.402  19.301  0.00  0.00    +0.000 A 
ATOM     22  C   UNL     1       6.597   5.428  19.286  0.00  0.00    +0.000 A 
ATOM     23  C   UNL     1       7.284   5.171  18.104  0.00  0.00    +0.000 A 
ATOM     24  C   UNL     1       6.566   4.850  16.959  0.00  0.00    +0.000 A 
ATOM     25  F   UNL     1       7.229   4.587  15.824  0.00  0.00    +0.000 F 
ATOM     26  C   UNL     1       5.173   4.811  16.965  0.00  0.00    +0.000 A 
ENDBRANCH  19  20
BRANCH  19  32
ATOM     27  C   UNL     1       2.670   2.126  17.555  0.00  0.00    +0.000 C 
ATOM     28  N   UNL     1       2.201   2.785  18.752  0.00  0.00    +0.000 N 
ATOM     29  C   UNL     1       1.549   2.157  19.777  0.00  0.00    +0.000 A 
ATOM     30  C   UNL     1       1.285   3.142  20.695  0.00  0.00    +0.000 A 
ATOM     31  N   UNL     1       1.749   4.351  20.256  0.00  0.00    +0.000 NA
ATOM     32  C   UNL     1       2.305   4.122  19.072  0.00  0.00    +0.000 A 
ENDBRANCH  19  32
ENDBRANCH   1  19
TORSDOF 4
ENDMDL
MODEL 8
REMARK VINA RESULT:      -8.5      1.497      1.532
REMARK  Name = 
REMARK  5 active torsions:
REMARK  status: ('A' for Active; 'I' for Inactive)
REMARK    1  A    between atoms: C_1  and  N_2
REMARK    2  A    between atoms: C_6  and  C_7
REMARK    3  A    between atoms: C_7  and  N_8
REMARK    4  A    between atoms: C_7  and  C_23
REMARK    5  A    between atoms: C_9  and  C_11
REMARK                            x       y       z     vdW  Elec       q    Type
REMARK                         _______ _______ _______ _____ _____    ______ ____
ROOT
ATOM      1  N   UNL     1       0.759   9.071  18.970  0.00  0.00    +0.000 N 
ATOM      2  C   UNL     1       1.843   8.985  18.133  0.00  0.00    +0.000 C 
ATOM      3  O   UNL     1       2.335   9.954  17.568  0.00  0.00    +0.000 OA
ATOM      4  H   UNL     1       0.506   8.306  19.585  0.00  0.00    +0.000 HD
ENDROOT
BRANCH   2   5
ATOM      5  C   UNL     1       2.444   7.630  17.938  0.00  0.00    +0.000 A 
ATOM      6  C   UNL     1       3.770   7.458  17.513  0.00  0.00    +0.000 A 
ATOM      7  C   UNL     1       4.315   6.173  17.401  0.00  0.00    +0.000 A 
ATOM      8  C   UNL     1       3.539   5.060  17.720  0.00  0.00    +0.000 A 
ATOM      9  N   UNL     1       4.094   3.782  17.638  0.00  0.00    +0.000 N 
ATOM     10  C   UNL     1       3.401   2.632  17.957  0.00  0.00    +0.000 A 
ATOM     11  O   UNL     1       3.926   1.529  17.894  0.00  0.00    +0.000 OA
ATOM     12  C   UNL     1       1.928   2.808  18.398  0.00  0.00    +0.000 A 
ATOM     13  O   UNL     1       1.225   1.846  18.678  0.00  0.00    +0.000 OA
ATOM     14  N   UNL     1       1.445   4.101  18.457  0.00  0.00    +0.000 N 
ATOM     15  C   UNL     1       2.216   5.225  18.139  0.00  0.00    +0.000 A 
ATOM     16  C   UNL     1       1.667   6.502  18.252  0.00  0.00    +0.000 A 
ATOM     17  H   UNL     1       5.057   3.648  17.357  0.00  0.00    +0.000 HD
ATOM     18  H   UNL     1       0.484   4.196  18.755  0.00  0.00    +0.000 HD
ENDBRANCH   2   5
BRANCH   1  19
ATOM     19  C   UNL     1       0.090  10.327  19.279  0.00  0.00    +0.000 C 
BRANCH  19  20
ATOM     20  C   UNL     1      -1.149  10.520  18.406  0.00  0.00    +0.000 A 
ATOM     21  C   UNL     1      -2.141  11.433  18.815  0.00  0.00    +0.000 A 
ATOM     22  C   UNL     1      -3.324  11.596  18.085  0.00  0.00    +0.000 A 
ATOM     23  C   UNL     1      -3.531  10.855  16.925  0.00  0.00    +0.000 A 
ATOM     24  C   UNL     1      -2.538   9.990  16.487  0.00  0.00    +0.000 A 
ATOM     25  F   UNL     1      -2.732   9.288  15.361  0.00  0.00    +0.000 F 
ATOM     26  C   UNL     1      -1.352   9.827  17.201  0.00  0.00    +0.000 A 
ENDBRANCH  19  20
BRANCH  19  32
ATOM     27  C   UNL     1       0.013  12.780  21.225  0.00  0.00    +0.000 C 
ATOM     28  N   UNL     1      -0.215  11.403  21.593  0.00  0.00    +0.000 N 
ATOM     29  C   UNL     1      -0.478  10.974  22.865  0.00  0.00    +0.000 A 
ATOM     30  C   UNL     1      -0.622   9.613  22.766  0.00  0.00    +0.000 A 
ATOM     31  N   UNL     1      -0.446   9.200  21.474  0.00  0.00    +0.000 NA
ATOM     32  C   UNL     1      -0.199  10.298  20.769  0.00  0.00    +0.000 A 
ENDBRANCH  19  32
ENDBRANCH   1  19
TORSDOF 4
ENDMDL
MODEL 9
REMARK VINA RESULT:      -8.5      3.688      8.342
REMARK  Name = 
REMARK  5 active torsions:
REMARK  status: ('A' for Active; 'I' for Inactive)
REMARK    1  A    between atoms: C_1  and  N_2
REMARK    2  A    between atoms: C_6  and  C_7
REMARK    3  A    between atoms: C_7  and  N_8
REMARK    4  A    between atoms: C_7  and  C_23
REMARK    5  A    between atoms: C_9  and  C_11
REMARK                            x       y       z     vdW  Elec       q    Type
REMARK                         _______ _______ _______ _____ _____    ______ ____
ROOT
ATOM      1  N   UNL     1       2.501   6.506  18.776  0.00  0.00    +0.000 N 
ATOM      2  C   UNL     1       2.543   7.655  18.027  0.00  0.00    +0.000 C 
ATOM      3  O   UNL     1       2.990   7.699  16.887  0.00  0.00    +0.000 OA
ATOM      4  H   UNL     1       1.941   6.446  19.619  0.00  0.00    +0.000 HD
ENDROOT
BRANCH   2   5
ATOM      5  C   UNL     1       1.991   8.895  18.654  0.00  0.00    +0.000 A 
ATOM      6  C   UNL     1       2.008  10.133  17.996  0.00  0.00    +0.000 A 
ATOM      7  C   UNL     1       1.424  11.258  18.592  0.00  0.00    +0.000 A 
ATOM      8  C   UNL     1       0.818  11.146  19.842  0.00  0.00    +0.000 A 
ATOM      9  N   UNL     1       0.211  12.261  20.420  0.00  0.00    +0.000 N 
ATOM     10  C   UNL     1      -0.430  12.228  21.642  0.00  0.00    +0.000 A 
ATOM     11  O   UNL     1      -0.971  13.220  22.110  0.00  0.00    +0.000 OA
ATOM     12  C   UNL     1      -0.428  10.874  22.391  0.00  0.00    +0.000 A 
ATOM     13  O   UNL     1      -0.949  10.751  23.492  0.00  0.00    +0.000 OA
ATOM     14  N   UNL     1       0.192   9.812  21.760  0.00  0.00    +0.000 N 
ATOM     15  C   UNL     1       0.803   9.916  20.504  0.00  0.00    +0.000 A 
ATOM     16  C   UNL     1       1.382   8.792  19.917  0.00  0.00    +0.000 A 
ATOM     17  H   UNL     1       0.194  13.153  19.943  0.00  0.00    +0.000 HD
ATOM     18  H   UNL     1       0.175   8.935  22.260  0.00  0.00    +0.000 HD
ENDBRANCH   2   5
BRANCH   1  19
ATOM     19  C   UNL     1       2.973   5.219  18.285  0.00  0.00    +0.000 C 
BRANCH  19  20
ATOM     20  C   UNL     1       4.495   5.205  18.156  0.00  0.00    +0.000 A 
ATOM     21  C   UNL     1       5.076   4.874  16.915  0.00  0.00    +0.000 A 
ATOM     22  C   UNL     1       6.464   4.783  16.764  0.00  0.00    +0.000 A 
ATOM     23  C   UNL     1       7.298   5.033  17.848  0.00  0.00    +0.000 A 
ATOM     24  C   UNL     1       6.739   5.409  19.062  0.00  0.00    +0.000 A 
ATOM     25  F   UNL     1       7.544   5.664  20.103  0.00  0.00    +0.000 F 
ATOM     26  C   UNL     1       5.358   5.513  19.221  0.00  0.00    +0.000 A 
ENDBRANCH  19  20
BRANCH  19  32
ATOM     27  C   UNL     1       2.461   2.193  17.659  0.00  0.00    +0.000 C 
ATOM     28  N   UNL     1       2.203   2.850  18.918  0.00  0.00    +0.000 N 
ATOM     29  C   UNL     1       1.672   2.235  20.019  0.00  0.00    +0.000 A 
ATOM     30  C   UNL     1       1.593   3.214  20.978  0.00  0.00    +0.000 A 
ATOM     31  N   UNL     1       2.053   4.407  20.491  0.00  0.00    +0.000 NA
ATOM     32  C   UNL     1       2.422   4.174  19.237  0.00  0.00    +0.000 A 
ENDBRANCH  19  32
ENDBRANCH   1  19
TORSDOF 4
ENDMDL
