MODEL 1
REMARK VINA RESULT:      -7.4      0.000      0.000
REMARK  Name = 
REMARK  10 active torsions:
REMARK  status: ('A' for Active; 'I' for Inactive)
REMARK    1  A    between atoms: C_1  and  O_2
REMARK    2  A    between atoms: O_2  and  C_3
REMARK    3  A    between atoms: C_6  and  C_7
REMARK    4  A    between atoms: C_9  and  C_10
REMARK    5  A    between atoms: N_12  and  C_13
REMARK    6  A    between atoms: C_15  and  C_16
REMARK    7  A    between atoms: C_17  and  C_18
REMARK    8  A    between atoms: C_19  and  C_20
REMARK    9  A    between atoms: C_30  and  O_31
REMARK   10  A    between atoms: O_31  and  C_32
REMARK                            x       y       z     vdW  Elec       q    Type
REMARK                         _______ _______ _______ _____ _____    ______ ____
ROOT
ATOM      1  C   UNL     1       0.615   9.926  19.980  0.00  0.00    +0.000 A 
ATOM      2  C   UNL     1      -0.238  10.489  19.058  0.00  0.00    +0.000 A 
ATOM      3  C   UNL     1      -0.974  11.592  19.440  0.00  0.00    +0.000 A 
ATOM      4  C   UNL     1      -1.401  11.648  20.751  0.00  0.00    +0.000 A 
ATOM      5  C   UNL     1      -2.556  12.377  21.090  0.00  0.00    +0.000 A 
ATOM      6  C   UNL     1      -2.991  12.414  22.401  0.00  0.00    +0.000 A 
ATOM      7  C   UNL     1      -2.237  11.762  23.369  0.00  0.00    +0.000 A 
ATOM      8  C   UNL     1      -1.071  11.059  23.019  0.00  0.00    +0.000 A 
ATOM      9  C   UNL     1      -0.640  10.941  21.693  0.00  0.00    +0.000 A 
ATOM     10  N   UNL     1       0.428  10.177  21.305  0.00  0.00    +0.000 NA
ENDROOT
BRANCH   1  14
ATOM     11  C   UNL     1       2.904   6.524  18.547  0.00  0.00    +0.000 A 
ATOM     12  C   UNL     1       2.845   7.714  17.802  0.00  0.00    +0.000 A 
ATOM     13  C   UNL     1       2.181   8.846  18.293  0.00  0.00    +0.000 A 
ATOM     14  C   UNL     1       1.509   8.834  19.536  0.00  0.00    +0.000 A 
ATOM     15  C   UNL     1       1.642   7.675  20.287  0.00  0.00    +0.000 A 
ATOM     16  C   UNL     1       2.285   6.518  19.807  0.00  0.00    +0.000 A 
BRANCH  11  18
ATOM     17  C   UNL     1       4.856   5.148  18.515  0.00  0.00    +0.000 C 
ATOM     18  O   UNL     1       3.515   5.391  18.072  0.00  0.00    +0.000 OA
ENDBRANCH  11  18
BRANCH  16  19
ATOM     19  O   UNL     1       2.170   5.539  20.749  0.00  0.00    +0.000 OA
ATOM     20  C   UNL     1       1.297   4.447  20.579  0.00  0.00    +0.000 C 
ENDBRANCH  16  19
ENDBRANCH   1  14
BRANCH   3  21
ATOM     21  C   UNL     1      -0.463  12.898  18.898  0.00  0.00    +0.000 C 
ATOM     22  O   UNL     1      -0.689  13.233  17.740  0.00  0.00    +0.000 OA
ATOM     23  N   UNL     1       0.282  13.650  19.794  0.00  0.00    +0.000 N 
ATOM     24  H   UNL     1       0.817  13.139  20.485  0.00  0.00    +0.000 HD
BRANCH  23  25
ATOM     25  C   UNL     1       0.819  14.828  19.330  0.00  0.00    +0.000 A 
ATOM     26  S   UNL     1       2.426  14.694  18.832  0.00  0.00    +0.000 S 
ATOM     27  C   UNL     1       2.374  16.245  18.110  0.00  0.00    +0.000 A 
ATOM     28  C   UNL     1       3.514  16.700  17.262  0.00  0.00    +0.000 C 
ATOM     29  C   UNL     1       1.210  16.936  18.434  0.00  0.00    +0.000 A 
ATOM     30  C   UNL     1       0.915  18.351  18.058  0.00  0.00    +0.000 C 
ATOM     31  C   UNL     1       0.287  16.084  19.154  0.00  0.00    +0.000 A 
BRANCH  31  32
ATOM     32  C   UNL     1      -0.995  16.485  19.656  0.00  0.00    +0.000 C 
ATOM     33  N   UNL     1      -2.068  16.842  19.969  0.00  0.00    +0.000 NA
ENDBRANCH  31  32
ENDBRANCH  23  25
ENDBRANCH   3  21
TORSDOF 6
ENDMDL
MODEL 2
REMARK VINA RESULT:      -7.2      3.576      7.415
REMARK  Name = 
REMARK  10 active torsions:
REMARK  status: ('A' for Active; 'I' for Inactive)
REMARK    1  A    between atoms: C_1  and  O_2
REMARK    2  A    between atoms: O_2  and  C_3
REMARK    3  A    between atoms: C_6  and  C_7
REMARK    4  A    between atoms: C_9  and  C_10
REMARK    5  A    between atoms: N_12  and  C_13
REMARK    6  A    between atoms: C_15  and  C_16
REMARK    7  A    between atoms: C_17  and  C_18
REMARK    8  A    between atoms: C_19  and  C_20
REMARK    9  A    between atoms: C_30  and  O_31
REMARK   10  A    between atoms: O_31  and  C_32
REMARK                            x       y       z     vdW  Elec       q    Type
REMARK                         _______ _______ _______ _____ _____    ______ ____
ROOT
ATOM      1  C   UNL     1       4.409   4.641  17.626  0.00  0.00    +0.000 A 
ATOM      2  C   UNL     1       3.197   5.267  17.446  0.00  0.00    +0.000 A 
ATOM      3  C   UNL     1       2.389   5.451  18.551  0.00  0.00    +0.000 A 
ATOM      4  C   UNL     1       2.410   4.473  19.523  0.00  0.00    +0.000 A 
ATOM      5  C   UNL     1       1.291   4.275  20.354  0.00  0.00    +0.000 A 
ATOM      6  C   UNL     1       1.309   3.280  21.314  0.00  0.00    +0.000 A 
ATOM      7  C   UNL     1       2.467   2.528  21.467  0.00  0.00    +0.000 A 
ATOM      8  C   UNL     1       3.586   2.754  20.647  0.00  0.00    +0.000 A 
ATOM      9  C   UNL     1       3.578   3.702  19.619  0.00  0.00    +0.000 A 
ATOM     10  N   UNL     1       4.609   3.875  18.734  0.00  0.00    +0.000 NA
ENDROOT
BRANCH   1  14
ATOM     11  C   UNL     1       6.955   4.758  14.109  0.00  0.00    +0.000 A 
ATOM     12  C   UNL     1       7.428   5.211  15.352  0.00  0.00    +0.000 A 
ATOM     13  C   UNL     1       6.647   5.100  16.511  0.00  0.00    +0.000 A 
ATOM     14  C   UNL     1       5.339   4.566  16.478  0.00  0.00    +0.000 A 
ATOM     15  C   UNL     1       4.921   4.059  15.256  0.00  0.00    +0.000 A 
ATOM     16  C   UNL     1       5.678   4.178  14.075  0.00  0.00    +0.000 A 
BRANCH  11  18
ATOM     17  C   UNL     1       8.628   5.968  12.909  0.00  0.00    +0.000 C 
ATOM     18  O   UNL     1       7.685   4.891  12.955  0.00  0.00    +0.000 OA
ENDBRANCH  11  18
BRANCH  16  19
ATOM     19  O   UNL     1       4.954   3.656  13.045  0.00  0.00    +0.000 OA
ATOM     20  C   UNL     1       5.574   3.067  11.926  0.00  0.00    +0.000 C 
ENDBRANCH  16  19
ENDBRANCH   1  14
BRANCH   3  21
ATOM     21  C   UNL     1       2.377   6.856  19.084  0.00  0.00    +0.000 C 
ATOM     22  O   UNL     1       3.086   7.178  20.033  0.00  0.00    +0.000 OA
ATOM     23  N   UNL     1       1.503   7.717  18.439  0.00  0.00    +0.000 N 
ATOM     24  H   UNL     1       0.659   7.309  18.056  0.00  0.00    +0.000 HD
BRANCH  23  25
ATOM     25  C   UNL     1       1.413   9.001  18.925  0.00  0.00    +0.000 A 
ATOM     26  S   UNL     1       2.242  10.140  17.997  0.00  0.00    +0.000 S 
ATOM     27  C   UNL     1       1.504  11.430  18.846  0.00  0.00    +0.000 A 
ATOM     28  C   UNL     1       1.681  12.828  18.357  0.00  0.00    +0.000 C 
ATOM     29  C   UNL     1       0.799  10.989  19.961  0.00  0.00    +0.000 A 
ATOM     30  C   UNL     1       0.141  11.872  20.970  0.00  0.00    +0.000 C 
ATOM     31  C   UNL     1       0.743   9.542  19.998  0.00  0.00    +0.000 A 
BRANCH  31  32
ATOM     32  C   UNL     1       0.114   8.761  21.022  0.00  0.00    +0.000 C 
ATOM     33  N   UNL     1      -0.494   8.158  21.826  0.00  0.00    +0.000 NA
ENDBRANCH  31  32
ENDBRANCH  23  25
ENDBRANCH   3  21
TORSDOF 6
ENDMDL
MODEL 3
REMARK VINA RESULT:      -7.0      1.950      2.675
REMARK  Name = 
REMARK  10 active torsions:
REMARK  status: ('A' for Active; 'I' for Inactive)
REMARK    1  A    between atoms: C_1  and  O_2
REMARK    2  A    between atoms: O_2  and  C_3
REMARK    3  A    between atoms: C_6  and  C_7
REMARK    4  A    between atoms: C_9  and  C_10
REMARK    5  A    between atoms: N_12  and  C_13
REMARK    6  A    between atoms: C_15  and  C_16
REMARK    7  A    between atoms: C_17  and  C_18
REMARK    8  A    between atoms: C_19  and  C_20
REMARK    9  A    between atoms: C_30  and  O_31
REMARK   10  A    between atoms: O_31  and  C_32
REMARK                            x       y       z     vdW  Elec       q    Type
REMARK                         _______ _______ _______ _____ _____    ______ ____
ROOT
ATOM      1  C   UNL     1       1.634   8.432  20.027  0.00  0.00    +0.000 A 
ATOM      2  C   UNL     1       1.092   9.209  19.028  0.00  0.00    +0.000 A 
ATOM      3  C   UNL     1       0.625  10.464  19.362  0.00  0.00    +0.000 A 
ATOM      4  C   UNL     1       0.053  10.620  20.607  0.00  0.00    +0.000 A 
ATOM      5  C   UNL     1      -0.907  11.626  20.826  0.00  0.00    +0.000 A 
ATOM      6  C   UNL     1      -1.492  11.764  22.070  0.00  0.00    +0.000 A 
ATOM      7  C   UNL     1      -1.074  10.927  23.097  0.00  0.00    +0.000 A 
ATOM      8  C   UNL     1      -0.097   9.943  22.870  0.00  0.00    +0.000 A 
ATOM      9  C   UNL     1       0.465   9.727  21.607  0.00  0.00    +0.000 A 
ATOM     10  N   UNL     1       1.339   8.711  21.327  0.00  0.00    +0.000 NA
ENDROOT
BRANCH   1  14
ATOM     11  C   UNL     1       3.105   4.521  18.840  0.00  0.00    +0.000 A 
ATOM     12  C   UNL     1       3.231   5.626  17.980  0.00  0.00    +0.000 A 
ATOM     13  C   UNL     1       2.837   6.909  18.385  0.00  0.00    +0.000 A 
ATOM     14  C   UNL     1       2.263   7.146  19.654  0.00  0.00    +0.000 A 
ATOM     15  C   UNL     1       2.217   6.056  20.512  0.00  0.00    +0.000 A 
ATOM     16  C   UNL     1       2.586   4.755  20.123  0.00  0.00    +0.000 A 
BRANCH  11  18
ATOM     17  C   UNL     1       2.494   2.540  17.655  0.00  0.00    +0.000 C 
ATOM     18  O   UNL     1       3.448   3.250  18.454  0.00  0.00    +0.000 OA
ENDBRANCH  11  18
BRANCH  16  19
ATOM     19  O   UNL     1       2.346   3.909  21.164  0.00  0.00    +0.000 OA
ATOM     20  C   UNL     1       1.283   2.985  21.139  0.00  0.00    +0.000 C 
ENDBRANCH  16  19
ENDBRANCH   1  14
BRANCH   3  21
ATOM     21  C   UNL     1       1.529  11.593  18.950  0.00  0.00    +0.000 C 
ATOM     22  O   UNL     1       2.377  11.437  18.077  0.00  0.00    +0.000 OA
ATOM     23  N   UNL     1       1.334  12.778  19.642  0.00  0.00    +0.000 N 
ATOM     24  H   UNL     1       1.018  12.701  20.601  0.00  0.00    +0.000 HD
BRANCH  23  25
ATOM     25  C   UNL     1       2.173  13.826  19.341  0.00  0.00    +0.000 A 
ATOM     26  S   UNL     1       1.884  14.517  17.829  0.00  0.00    +0.000 S 
ATOM     27  C   UNL     1       2.906  15.841  18.194  0.00  0.00    +0.000 A 
ATOM     28  C   UNL     1       2.951  17.011  17.270  0.00  0.00    +0.000 C 
ATOM     29  C   UNL     1       3.620  15.644  19.372  0.00  0.00    +0.000 A 
ATOM     30  C   UNL     1       4.676  16.558  19.903  0.00  0.00    +0.000 C 
ATOM     31  C   UNL     1       3.174  14.446  20.052  0.00  0.00    +0.000 A 
BRANCH  31  32
ATOM     32  C   UNL     1       3.713  13.939  21.280  0.00  0.00    +0.000 C 
ATOM     33  N   UNL     1       4.240  13.582  22.267  0.00  0.00    +0.000 NA
ENDBRANCH  31  32
ENDBRANCH  23  25
ENDBRANCH   3  21
TORSDOF 6
ENDMDL
MODEL 4
REMARK VINA RESULT:      -7.0      1.035      1.875
REMARK  Name = 
REMARK  10 active torsions:
REMARK  status: ('A' for Active; 'I' for Inactive)
REMARK    1  A    between atoms: C_1  and  O_2
REMARK    2  A    between atoms: O_2  and  C_3
REMARK    3  A    between atoms: C_6  and  C_7
REMARK    4  A    between atoms: C_9  and  C_10
REMARK    5  A    between atoms: N_12  and  C_13
REMARK    6  A    between atoms: C_15  and  C_16
REMARK    7  A    between atoms: C_17  and  C_18
REMARK    8  A    between atoms: C_19  and  C_20
REMARK    9  A    between atoms: C_30  and  O_31
REMARK   10  A    between atoms: O_31  and  C_32
REMARK                            x       y       z     vdW  Elec       q    Type
REMARK                         _______ _______ _______ _____ _____    ______ ____
ROOT
ATOM      1  C   UNL     1       0.556   9.861  20.013  0.00  0.00    +0.000 A 
ATOM      2  C   UNL     1      -0.326  10.375  19.090  0.00  0.00    +0.000 A 
ATOM      3  C   UNL     1      -1.059  11.490  19.442  0.00  0.00    +0.000 A 
ATOM      4  C   UNL     1      -1.450  11.604  20.760  0.00  0.00    +0.000 A 
ATOM      5  C   UNL     1      -2.601  12.341  21.097  0.00  0.00    +0.000 A 
ATOM      6  C   UNL     1      -3.001  12.435  22.417  0.00  0.00    +0.000 A 
ATOM      7  C   UNL     1      -2.215  11.833  23.392  0.00  0.00    +0.000 A 
ATOM      8  C   UNL     1      -1.055  11.122  23.042  0.00  0.00    +0.000 A 
ATOM      9  C   UNL     1      -0.659  10.946  21.713  0.00  0.00    +0.000 A 
ATOM     10  N   UNL     1       0.403  10.172  21.330  0.00  0.00    +0.000 NA
ENDROOT
BRANCH   1  14
ATOM     11  C   UNL     1       2.832   6.418  18.658  0.00  0.00    +0.000 A 
ATOM     12  C   UNL     1       2.788   7.596  17.892  0.00  0.00    +0.000 A 
ATOM     13  C   UNL     1       2.128   8.741  18.358  0.00  0.00    +0.000 A 
ATOM     14  C   UNL     1       1.446   8.755  19.596  0.00  0.00    +0.000 A 
ATOM     15  C   UNL     1       1.564   7.607  20.367  0.00  0.00    +0.000 A 
ATOM     16  C   UNL     1       2.202   6.439  19.912  0.00  0.00    +0.000 A 
BRANCH  11  18
ATOM     17  C   UNL     1       4.865   5.213  18.319  0.00  0.00    +0.000 C 
ATOM     18  O   UNL     1       3.438   5.273  18.207  0.00  0.00    +0.000 OA
ENDBRANCH  11  18
BRANCH  16  19
ATOM     19  O   UNL     1       2.072   5.476  20.869  0.00  0.00    +0.000 OA
ATOM     20  C   UNL     1       1.294   4.321  20.658  0.00  0.00    +0.000 C 
ENDBRANCH  16  19
ENDBRANCH   1  14
BRANCH   3  21
ATOM     21  C   UNL     1      -0.573  12.773  18.826  0.00  0.00    +0.000 C 
ATOM     22  O   UNL     1      -0.784  13.026  17.645  0.00  0.00    +0.000 OA
ATOM     23  N   UNL     1       0.131  13.602  19.686  0.00  0.00    +0.000 N 
ATOM     24  H   UNL     1       0.666  13.152  20.419  0.00  0.00    +0.000 HD
BRANCH  23  25
ATOM     25  C   UNL     1       0.645  14.763  19.158  0.00  0.00    +0.000 A 
ATOM     26  S   UNL     1      -0.414  16.074  19.235  0.00  0.00    +0.000 S 
ATOM     27  C   UNL     1       0.834  17.161  18.798  0.00  0.00    +0.000 A 
ATOM     28  C   UNL     1       0.587  18.630  18.869  0.00  0.00    +0.000 C 
ATOM     29  C   UNL     1       1.989  16.498  18.394  0.00  0.00    +0.000 A 
ATOM     30  C   UNL     1       3.213  17.156  17.845  0.00  0.00    +0.000 C 
ATOM     31  C   UNL     1       1.872  15.073  18.617  0.00  0.00    +0.000 A 
BRANCH  31  32
ATOM     32  C   UNL     1       2.870  14.096  18.292  0.00  0.00    +0.000 C 
ATOM     33  N   UNL     1       3.644  13.291  17.930  0.00  0.00    +0.000 NA
ENDBRANCH  31  32
ENDBRANCH  23  25
ENDBRANCH   3  21
TORSDOF 6
ENDMDL
MODEL 5
REMARK VINA RESULT:      -7.0      3.338      7.024
REMARK  Name = 
REMARK  10 active torsions:
REMARK  status: ('A' for Active; 'I' for Inactive)
REMARK    1  A    between atoms: C_1  and  O_2
REMARK    2  A    between atoms: O_2  and  C_3
REMARK    3  A    between atoms: C_6  and  C_7
REMARK    4  A    between atoms: C_9  and  C_10
REMARK    5  A    between atoms: N_12  and  C_13
REMARK    6  A    between atoms: C_15  and  C_16
REMARK    7  A    between atoms: C_17  and  C_18
REMARK    8  A    between atoms: C_19  and  C_20
REMARK    9  A    between atoms: C_30  and  O_31
REMARK   10  A    between atoms: O_31  and  C_32
REMARK                            x       y       z     vdW  Elec       q    Type
REMARK                         _______ _______ _______ _____ _____    ______ ____
ROOT
ATOM      1  C   UNL     1       4.084   5.183  17.990  0.00  0.00    +0.000 A 
ATOM      2  C   UNL     1       2.839   5.750  17.839  0.00  0.00    +0.000 A 
ATOM      3  C   UNL     1       1.993   5.764  18.929  0.00  0.00    +0.000 A 
ATOM      4  C   UNL     1       2.052   4.689  19.793  0.00  0.00    +0.000 A 
ATOM      5  C   UNL     1       0.927   4.335  20.561  0.00  0.00    +0.000 A 
ATOM      6  C   UNL     1       0.984   3.246  21.410  0.00  0.00    +0.000 A 
ATOM      7  C   UNL     1       2.183   2.553  21.519  0.00  0.00    +0.000 A 
ATOM      8  C   UNL     1       3.305   2.934  20.765  0.00  0.00    +0.000 A 
ATOM      9  C   UNL     1       3.264   3.986  19.843  0.00  0.00    +0.000 A 
ATOM     10  N   UNL     1       4.304   4.316  19.017  0.00  0.00    +0.000 NA
ENDROOT
BRANCH   1  14
ATOM     11  C   UNL     1       7.168   5.273  14.933  0.00  0.00    +0.000 A 
ATOM     12  C   UNL     1       6.068   4.406  14.816  0.00  0.00    +0.000 A 
ATOM     13  C   UNL     1       5.024   4.428  15.752  0.00  0.00    +0.000 A 
ATOM     14  C   UNL     1       5.046   5.290  16.871  0.00  0.00    +0.000 A 
ATOM     15  C   UNL     1       6.104   6.187  16.926  0.00  0.00    +0.000 A 
ATOM     16  C   UNL     1       7.173   6.170  16.012  0.00  0.00    +0.000 A 
BRANCH  11  18
ATOM     17  C   UNL     1       7.892   5.239  12.657  0.00  0.00    +0.000 C 
ATOM     18  O   UNL     1       8.220   5.244  14.052  0.00  0.00    +0.000 OA
ENDBRANCH  11  18
BRANCH  16  19
ATOM     19  O   UNL     1       8.079   7.116  16.392  0.00  0.00    +0.000 OA
ATOM     20  C   UNL     1       7.856   7.954  17.501  0.00  0.00    +0.000 C 
ENDBRANCH  16  19
ENDBRANCH   1  14
BRANCH   3  21
ATOM     21  C   UNL     1       1.877   7.100  19.609  0.00  0.00    +0.000 C 
ATOM     22  O   UNL     1       2.255   7.255  20.765  0.00  0.00    +0.000 OA
ATOM     23  N   UNL     1       1.301   8.098  18.838  0.00  0.00    +0.000 N 
ATOM     24  H   UNL     1       0.608   7.809  18.158  0.00  0.00    +0.000 HD
BRANCH  23  25
ATOM     25  C   UNL     1       1.122   9.325  19.432  0.00  0.00    +0.000 A 
ATOM     26  S   UNL     1       1.912  10.588  18.639  0.00  0.00    +0.000 S 
ATOM     27  C   UNL     1       1.074  11.753  19.571  0.00  0.00    +0.000 A 
ATOM     28  C   UNL     1       1.184  13.198  19.216  0.00  0.00    +0.000 C 
ATOM     29  C   UNL     1       0.361  11.174  20.617  0.00  0.00    +0.000 A 
ATOM     30  C   UNL     1      -0.379  11.925  21.676  0.00  0.00    +0.000 C 
ATOM     31  C   UNL     1       0.388   9.729  20.523  0.00  0.00    +0.000 A 
BRANCH  31  32
ATOM     32  C   UNL     1      -0.226   8.825  21.451  0.00  0.00    +0.000 C 
ATOM     33  N   UNL     1      -0.754   8.168  22.268  0.00  0.00    +0.000 NA
ENDBRANCH  31  32
ENDBRANCH  23  25
ENDBRANCH   3  21
TORSDOF 6
ENDMDL
MODEL 6
REMARK VINA RESULT:      -7.0      1.587      1.587
REMARK  Name = 
REMARK  10 active torsions:
REMARK  status: ('A' for Active; 'I' for Inactive)
REMARK    1  A    between atoms: C_1  and  O_2
REMARK    2  A    between atoms: O_2  and  C_3
REMARK    3  A    between atoms: C_6  and  C_7
REMARK    4  A    between atoms: C_9  and  C_10
REMARK    5  A    between atoms: N_12  and  C_13
REMARK    6  A    between atoms: C_15  and  C_16
REMARK    7  A    between atoms: C_17  and  C_18
REMARK    8  A    between atoms: C_19  and  C_20
REMARK    9  A    between atoms: C_30  and  O_31
REMARK   10  A    between atoms: O_31  and  C_32
REMARK                            x       y       z     vdW  Elec       q    Type
REMARK                         _______ _______ _______ _____ _____    ______ ____
ROOT
ATOM      1  C   UNL     1       0.935   9.380  20.153  0.00  0.00    +0.000 A 
ATOM      2  C   UNL     1       0.292  10.158  19.217  0.00  0.00    +0.000 A 
ATOM      3  C   UNL     1      -0.322  11.318  19.646  0.00  0.00    +0.000 A 
ATOM      4  C   UNL     1      -0.896  11.307  20.900  0.00  0.00    +0.000 A 
ATOM      5  C   UNL     1      -1.970  12.168  21.196  0.00  0.00    +0.000 A 
ATOM      6  C   UNL     1      -2.555  12.140  22.448  0.00  0.00    +0.000 A 
ATOM      7  C   UNL     1      -2.026  11.286  23.408  0.00  0.00    +0.000 A 
ATOM      8  C   UNL     1      -0.937  10.450  23.105  0.00  0.00    +0.000 A 
ATOM      9  C   UNL     1      -0.367  10.400  21.829  0.00  0.00    +0.000 A 
ATOM     10  N   UNL     1       0.622   9.523  21.471  0.00  0.00    +0.000 NA
ENDROOT
BRANCH   1  14
ATOM     11  C   UNL     1       2.863   5.783  18.667  0.00  0.00    +0.000 A 
ATOM     12  C   UNL     1       2.855   6.961  17.901  0.00  0.00    +0.000 A 
ATOM     13  C   UNL     1       2.311   8.151  18.405  0.00  0.00    +0.000 A 
ATOM     14  C   UNL     1       1.714   8.214  19.684  0.00  0.00    +0.000 A 
ATOM     15  C   UNL     1       1.799   7.060  20.450  0.00  0.00    +0.000 A 
ATOM     16  C   UNL     1       2.320   5.848  19.960  0.00  0.00    +0.000 A 
BRANCH  11  18
ATOM     17  C   UNL     1       4.708   4.274  18.524  0.00  0.00    +0.000 C 
ATOM     18  O   UNL     1       3.355   4.597  18.183  0.00  0.00    +0.000 OA
ENDBRANCH  11  18
BRANCH  16  19
ATOM     19  O   UNL     1       2.183   4.897  20.927  0.00  0.00    +0.000 OA
ATOM     20  C   UNL     1       1.245   3.853  20.814  0.00  0.00    +0.000 C 
ENDBRANCH  16  19
ENDBRANCH   1  14
BRANCH   3  21
ATOM     21  C   UNL     1       0.431  12.576  19.319  0.00  0.00    +0.000 C 
ATOM     22  O   UNL     1       0.110  13.275  18.363  0.00  0.00    +0.000 OA
ATOM     23  N   UNL     1       1.501  12.850  20.158  0.00  0.00    +0.000 N 
ATOM     24  H   UNL     1       1.983  12.055  20.558  0.00  0.00    +0.000 HD
BRANCH  23  25
ATOM     25  C   UNL     1       2.257  13.961  19.869  0.00  0.00    +0.000 A 
ATOM     26  S   UNL     1       3.152  13.824  18.444  0.00  0.00    +0.000 S 
ATOM     27  C   UNL     1       3.534  15.492  18.475  0.00  0.00    +0.000 A 
ATOM     28  C   UNL     1       4.208  16.114  17.299  0.00  0.00    +0.000 C 
ATOM     29  C   UNL     1       3.158  16.095  19.672  0.00  0.00    +0.000 A 
ATOM     30  C   UNL     1       3.454  17.508  20.056  0.00  0.00    +0.000 C 
ATOM     31  C   UNL     1       2.393  15.180  20.493  0.00  0.00    +0.000 A 
BRANCH  31  32
ATOM     32  C   UNL     1       1.870  15.471  21.796  0.00  0.00    +0.000 C 
ATOM     33  N   UNL     1       1.360  15.649  22.838  0.00  0.00    +0.000 NA
ENDBRANCH  31  32
ENDBRANCH  23  25
ENDBRANCH   3  21
TORSDOF 6
ENDMDL
MODEL 7
REMARK VINA RESULT:      -7.0      1.749      2.024
REMARK  Name = 
REMARK  10 active torsions:
REMARK  status: ('A' for Active; 'I' for Inactive)
REMARK    1  A    between atoms: C_1  and  O_2
REMARK    2  A    between atoms: O_2  and  C_3
REMARK    3  A    between atoms: C_6  and  C_7
REMARK    4  A    between atoms: C_9  and  C_10
REMARK    5  A    between atoms: N_12  and  C_13
REMARK    6  A    between atoms: C_15  and  C_16
REMARK    7  A    between atoms: C_17  and  C_18
REMARK    8  A    between atoms: C_19  and  C_20
REMARK    9  A    between atoms: C_30  and  O_31
REMARK   10  A    between atoms: O_31  and  C_32
REMARK                            x       y       z     vdW  Elec       q    Type
REMARK                         _______ _______ _______ _____ _____    ______ ____
ROOT
ATOM      1  C   UNL     1       1.441   8.686  20.188  0.00  0.00    +0.000 A 
ATOM      2  C   UNL     1       0.919   9.542  19.245  0.00  0.00    +0.000 A 
ATOM      3  C   UNL     1       0.406  10.749  19.674  0.00  0.00    +0.000 A 
ATOM      4  C   UNL     1      -0.221  10.772  20.903  0.00  0.00    +0.000 A 
ATOM      5  C   UNL     1      -1.215  11.731  21.174  0.00  0.00    +0.000 A 
ATOM      6  C   UNL     1      -1.854  11.737  22.399  0.00  0.00    +0.000 A 
ATOM      7  C   UNL     1      -1.455  10.817  23.360  0.00  0.00    +0.000 A 
ATOM      8  C   UNL     1      -0.443   9.882  23.084  0.00  0.00    +0.000 A 
ATOM      9  C   UNL     1       0.175   9.799  21.832  0.00  0.00    +0.000 A 
ATOM     10  N   UNL     1       1.087   8.835  21.495  0.00  0.00    +0.000 NA
ENDROOT
BRANCH   1  14
ATOM     11  C   UNL     1       3.062   4.931  18.727  0.00  0.00    +0.000 A 
ATOM     12  C   UNL     1       3.134   6.096  17.944  0.00  0.00    +0.000 A 
ATOM     13  C   UNL     1       2.691   7.331  18.438  0.00  0.00    +0.000 A 
ATOM     14  C   UNL     1       2.120   7.456  19.724  0.00  0.00    +0.000 A 
ATOM     15  C   UNL     1       2.126   6.309  20.506  0.00  0.00    +0.000 A 
ATOM     16  C   UNL     1       2.544   5.055  20.025  0.00  0.00    +0.000 A 
BRANCH  11  18
ATOM     17  C   UNL     1       2.516   3.005  17.423  0.00  0.00    +0.000 C 
ATOM     18  O   UNL     1       3.453   3.704  18.252  0.00  0.00    +0.000 OA
ENDBRANCH  11  18
BRANCH  16  19
ATOM     19  O   UNL     1       2.348   4.130  21.008  0.00  0.00    +0.000 OA
ATOM     20  C   UNL     1       1.269   3.225  20.970  0.00  0.00    +0.000 C 
ENDBRANCH  16  19
ENDBRANCH   1  14
BRANCH   3  21
ATOM     21  C   UNL     1       1.294  11.932  19.408  0.00  0.00    +0.000 C 
ATOM     22  O   UNL     1       2.015  11.971  18.416  0.00  0.00    +0.000 OA
ATOM     23  N   UNL     1       1.241  12.928  20.371  0.00  0.00    +0.000 N 
ATOM     24  H   UNL     1       1.049  12.637  21.321  0.00  0.00    +0.000 HD
BRANCH  23  25
ATOM     25  C   UNL     1       2.077  14.008  20.203  0.00  0.00    +0.000 A 
ATOM     26  S   UNL     1       3.557  13.854  21.000  0.00  0.00    +0.000 S 
ATOM     27  C   UNL     1       4.189  15.213  20.174  0.00  0.00    +0.000 A 
ATOM     28  C   UNL     1       5.641  15.536  20.294  0.00  0.00    +0.000 C 
ATOM     29  C   UNL     1       3.210  15.896  19.460  0.00  0.00    +0.000 A 
ATOM     30  C   UNL     1       3.415  17.183  18.730  0.00  0.00    +0.000 C 
ATOM     31  C   UNL     1       1.957  15.170  19.476  0.00  0.00    +0.000 A 
BRANCH  31  32
ATOM     32  C   UNL     1       0.738  15.602  18.858  0.00  0.00    +0.000 C 
ATOM     33  N   UNL     1      -0.225  16.054  18.361  0.00  0.00    +0.000 NA
ENDBRANCH  31  32
ENDBRANCH  23  25
ENDBRANCH   3  21
TORSDOF 6
ENDMDL
MODEL 8
REMARK VINA RESULT:      -7.0      4.343      9.476
REMARK  Name = 
REMARK  10 active torsions:
REMARK  status: ('A' for Active; 'I' for Inactive)
REMARK    1  A    between atoms: C_1  and  O_2
REMARK    2  A    between atoms: O_2  and  C_3
REMARK    3  A    between atoms: C_6  and  C_7
REMARK    4  A    between atoms: C_9  and  C_10
REMARK    5  A    between atoms: N_12  and  C_13
REMARK    6  A    between atoms: C_15  and  C_16
REMARK    7  A    between atoms: C_17  and  C_18
REMARK    8  A    between atoms: C_19  and  C_20
REMARK    9  A    between atoms: C_30  and  O_31
REMARK   10  A    between atoms: O_31  and  C_32
REMARK                            x       y       z     vdW  Elec       q    Type
REMARK                         _______ _______ _______ _____ _____    ______ ____
ROOT
ATOM      1  C   UNL     1       2.334   6.770  19.194  0.00  0.00    +0.000 A 
ATOM      2  C   UNL     1       3.624   6.540  19.615  0.00  0.00    +0.000 A 
ATOM      3  C   UNL     1       4.075   5.236  19.647  0.00  0.00    +0.000 A 
ATOM      4  C   UNL     1       3.162   4.255  19.976  0.00  0.00    +0.000 A 
ATOM      5  C   UNL     1       3.596   3.051  20.563  0.00  0.00    +0.000 A 
ATOM      6  C   UNL     1       2.676   2.080  20.910  0.00  0.00    +0.000 A 
ATOM      7  C   UNL     1       1.336   2.302  20.619  0.00  0.00    +0.000 A 
ATOM      8  C   UNL     1       0.921   3.499  20.010  0.00  0.00    +0.000 A 
ATOM      9  C   UNL     1       1.814   4.533  19.711  0.00  0.00    +0.000 A 
ATOM     10  N   UNL     1       1.431   5.751  19.216  0.00  0.00    +0.000 NA
ENDROOT
BRANCH   1  14
ATOM     11  C   UNL     1       1.352  10.992  18.918  0.00  0.00    +0.000 A 
ATOM     12  C   UNL     1       1.973  10.329  17.846  0.00  0.00    +0.000 A 
ATOM     13  C   UNL     1       2.218   8.949  17.890  0.00  0.00    +0.000 A 
ATOM     14  C   UNL     1       1.889   8.170  19.022  0.00  0.00    +0.000 A 
ATOM     15  C   UNL     1       1.211   8.831  20.037  0.00  0.00    +0.000 A 
ATOM     16  C   UNL     1       0.973  10.217  20.026  0.00  0.00    +0.000 A 
BRANCH  11  18
ATOM     17  C   UNL     1      -0.170  12.790  18.526  0.00  0.00    +0.000 C 
ATOM     18  O   UNL     1       1.136  12.347  18.915  0.00  0.00    +0.000 OA
ENDBRANCH  11  18
BRANCH  16  19
ATOM     19  O   UNL     1       0.366  10.560  21.197  0.00  0.00    +0.000 OA
ATOM     20  C   UNL     1       0.311   9.675  22.291  0.00  0.00    +0.000 C 
ENDBRANCH  16  19
ENDBRANCH   1  14
BRANCH   3  21
ATOM     21  C   UNL     1       4.998   4.870  18.518  0.00  0.00    +0.000 C 
ATOM     22  O   UNL     1       6.070   4.312  18.734  0.00  0.00    +0.000 OA
ATOM     23  N   UNL     1       4.549   5.232  17.258  0.00  0.00    +0.000 N 
ATOM     24  H   UNL     1       3.974   6.062  17.198  0.00  0.00    +0.000 HD
BRANCH  23  25
ATOM     25  C   UNL     1       5.382   4.969  16.195  0.00  0.00    +0.000 A 
ATOM     26  S   UNL     1       4.906   3.642  15.268  0.00  0.00    +0.000 S 
ATOM     27  C   UNL     1       6.030   4.043  14.042  0.00  0.00    +0.000 A 
ATOM     28  C   UNL     1       5.993   3.312  12.742  0.00  0.00    +0.000 C 
ATOM     29  C   UNL     1       6.900   5.054  14.438  0.00  0.00    +0.000 A 
ATOM     30  C   UNL     1       8.064   5.550  13.644  0.00  0.00    +0.000 C 
ATOM     31  C   UNL     1       6.505   5.605  15.717  0.00  0.00    +0.000 A 
BRANCH  31  32
ATOM     32  C   UNL     1       7.194   6.644  16.424  0.00  0.00    +0.000 C 
ATOM     33  N   UNL     1       7.665   7.538  17.022  0.00  0.00    +0.000 NA
ENDBRANCH  31  32
ENDBRANCH  23  25
ENDBRANCH   3  21
TORSDOF 6
ENDMDL
MODEL 9
REMARK VINA RESULT:      -6.9      1.444      2.037
REMARK  Name = 
REMARK  10 active torsions:
REMARK  status: ('A' for Active; 'I' for Inactive)
REMARK    1  A    between atoms: C_1  and  O_2
REMARK    2  A    between atoms: O_2  and  C_3
REMARK    3  A    between atoms: C_6  and  C_7
REMARK    4  A    between atoms: C_9  and  C_10
REMARK    5  A    between atoms: N_12  and  C_13
REMARK    6  A    between atoms: C_15  and  C_16
REMARK    7  A    between atoms: C_17  and  C_18
REMARK    8  A    between atoms: C_19  and  C_20
REMARK    9  A    between atoms: C_30  and  O_31
REMARK   10  A    between atoms: O_31  and  C_32
REMARK                            x       y       z     vdW  Elec       q    Type
REMARK                         _______ _______ _______ _____ _____    ______ ____
ROOT
ATOM      1  C   UNL     1       1.113   9.289  20.098  0.00  0.00    +0.000 A 
ATOM      2  C   UNL     1       0.490  10.079  19.159  0.00  0.00    +0.000 A 
ATOM      3  C   UNL     1      -0.110  11.247  19.585  0.00  0.00    +0.000 A 
ATOM      4  C   UNL     1      -0.695  11.242  20.835  0.00  0.00    +0.000 A 
ATOM      5  C   UNL     1      -1.757  12.118  21.124  0.00  0.00    +0.000 A 
ATOM      6  C   UNL     1      -2.353  12.096  22.370  0.00  0.00    +0.000 A 
ATOM      7  C   UNL     1      -1.846  11.231  23.332  0.00  0.00    +0.000 A 
ATOM      8  C   UNL     1      -0.768  10.379  23.036  0.00  0.00    +0.000 A 
ATOM      9  C   UNL     1      -0.187  10.324  21.765  0.00  0.00    +0.000 A 
ATOM     10  N   UNL     1       0.791   9.433  21.413  0.00  0.00    +0.000 NA
ENDROOT
BRANCH   1  14
ATOM     11  C   UNL     1       2.998   5.666  18.619  0.00  0.00    +0.000 A 
ATOM     12  C   UNL     1       3.010   6.844  17.854  0.00  0.00    +0.000 A 
ATOM     13  C   UNL     1       2.481   8.042  18.355  0.00  0.00    +0.000 A 
ATOM     14  C   UNL     1       1.878   8.112  19.631  0.00  0.00    +0.000 A 
ATOM     15  C   UNL     1       1.942   6.956  20.398  0.00  0.00    +0.000 A 
ATOM     16  C   UNL     1       2.449   5.738  19.909  0.00  0.00    +0.000 A 
BRANCH  11  18
ATOM     17  C   UNL     1       4.788   4.086  18.561  0.00  0.00    +0.000 C 
ATOM     18  O   UNL     1       3.476   4.474  18.137  0.00  0.00    +0.000 OA
ENDBRANCH  11  18
BRANCH  16  19
ATOM     19  O   UNL     1       2.294   4.788  20.875  0.00  0.00    +0.000 OA
ATOM     20  C   UNL     1       1.301   3.793  20.784  0.00  0.00    +0.000 C 
ENDBRANCH  16  19
ENDBRANCH   1  14
BRANCH   3  21
ATOM     21  C   UNL     1       0.666  12.495  19.268  0.00  0.00    +0.000 C 
ATOM     22  O   UNL     1       1.571  12.483  18.440  0.00  0.00    +0.000 OA
ATOM     23  N   UNL     1       0.289  13.615  19.993  0.00  0.00    +0.000 N 
ATOM     24  H   UNL     1      -0.064  13.457  20.929  0.00  0.00    +0.000 HD
BRANCH  23  25
ATOM     25  C   UNL     1       1.005  14.770  19.781  0.00  0.00    +0.000 A 
ATOM     26  S   UNL     1       0.285  15.825  18.678  0.00  0.00    +0.000 S 
ATOM     27  C   UNL     1       1.373  17.076  19.102  0.00  0.00    +0.000 A 
ATOM     28  C   UNL     1       1.147  18.455  18.580  0.00  0.00    +0.000 C 
ATOM     29  C   UNL     1       2.403  16.622  19.920  0.00  0.00    +0.000 A 
ATOM     30  C   UNL     1       3.571  17.437  20.368  0.00  0.00    +0.000 C 
ATOM     31  C   UNL     1       2.174  15.250  20.325  0.00  0.00    +0.000 A 
BRANCH  31  32
ATOM     32  C   UNL     1       3.050  14.470  21.149  0.00  0.00    +0.000 C 
ATOM     33  N   UNL     1       3.799  13.782  21.736  0.00  0.00    +0.000 NA
ENDBRANCH  31  32
ENDBRANCH  23  25
ENDBRANCH   3  21
TORSDOF 6
ENDMDL
