MODEL 1
REMARK VINA RESULT:      -4.9      0.000      0.000
REMARK  Name = 
REMARK  1 active torsions:
REMARK  status: ('A' for Active; 'I' for Inactive)
REMARK    1  A    between atoms: N_2  and  C_4
REMARK                            x       y       z     vdW  Elec       q    Type
REMARK                         _______ _______ _______ _____ _____    ______ ____
ROOT
ATOM      1  C   UNL     1       6.630   6.204  17.726  0.00  0.00    +0.000 C 
ATOM      2 BR   UNL     1       7.680   7.850  17.624  0.00  0.00    +0.000 Br
ATOM      3  C   UNL     1       5.149   6.496  17.532  0.00  0.00    +0.000 C 
ATOM      4  O   UNL     1       4.335   5.357  17.831  0.00  0.00    +0.000 OA
ATOM      5  C   UNL     1       4.574   4.866  19.144  0.00  0.00    +0.000 C 
ATOM      6  O   UNL     1       5.926   4.454  19.301  0.00  0.00    +0.000 OA
ATOM      7  C   UNL     1       6.843   5.528  19.078  0.00  0.00    +0.000 C 
ENDROOT
BRANCH   1   9
ATOM      8  O   UNL     1       7.956   4.442  16.869  0.00  0.00    +0.000 OA
ATOM      9  N   UNL     1       7.143   5.339  16.595  0.00  0.00    +0.000 N 
ATOM     10  O   UNL     1       6.786   5.617  15.440  0.00  0.00    +0.000 OA
ENDBRANCH   1   9
TORSDOF 1
ENDMDL
MODEL 2
REMARK VINA RESULT:      -4.8      1.409      1.721
REMARK  Name = 
REMARK  1 active torsions:
REMARK  status: ('A' for Active; 'I' for Inactive)
REMARK    1  A    between atoms: N_2  and  C_4
REMARK                            x       y       z     vdW  Elec       q    Type
REMARK                         _______ _______ _______ _____ _____    ______ ____
ROOT
ATOM      1  C   UNL     1       6.154   5.291  17.668  0.00  0.00    +0.000 C 
ATOM      2 BR   UNL     1       6.457   7.194  17.337  0.00  0.00    +0.000 Br
ATOM      3  C   UNL     1       5.054   4.755  16.764  0.00  0.00    +0.000 C 
ATOM      4  O   UNL     1       4.648   3.434  17.139  0.00  0.00    +0.000 OA
ATOM      5  C   UNL     1       4.243   3.373  18.500  0.00  0.00    +0.000 C 
ATOM      6  O   UNL     1       5.307   3.736  19.371  0.00  0.00    +0.000 OA
ATOM      7  C   UNL     1       5.768   5.067  19.128  0.00  0.00    +0.000 C 
ENDROOT
BRANCH   1   9
ATOM      8  O   UNL     1       7.716   4.364  16.152  0.00  0.00    +0.000 OA
ATOM      9  N   UNL     1       7.471   4.620  17.342  0.00  0.00    +0.000 N 
ATOM     10  O   UNL     1       8.208   4.292  18.284  0.00  0.00    +0.000 OA
ENDBRANCH   1   9
TORSDOF 1
ENDMDL
MODEL 3
REMARK VINA RESULT:      -4.8      2.302      3.194
REMARK  Name = 
REMARK  1 active torsions:
REMARK  status: ('A' for Active; 'I' for Inactive)
REMARK    1  A    between atoms: N_2  and  C_4
REMARK                            x       y       z     vdW  Elec       q    Type
REMARK                         _______ _______ _______ _____ _____    ______ ____
ROOT
ATOM      1  C   UNL     1       6.422   5.679  17.490  0.00  0.00    +0.000 C 
ATOM      2 BR   UNL     1       5.432   5.331  19.141  0.00  0.00    +0.000 Br
ATOM      3  C   UNL     1       5.468   5.990  16.346  0.00  0.00    +0.000 C 
ATOM      4  O   UNL     1       6.140   6.019  15.082  0.00  0.00    +0.000 OA
ATOM      5  C   UNL     1       6.840   4.809  14.828  0.00  0.00    +0.000 C 
ATOM      6  O   UNL     1       7.837   4.573  15.815  0.00  0.00    +0.000 OA
ATOM      7  C   UNL     1       7.278   4.470  17.127  0.00  0.00    +0.000 C 
ENDROOT
BRANCH   1   9
ATOM      8  O   UNL     1       7.141   7.897  17.087  0.00  0.00    +0.000 OA
ATOM      9  N   UNL     1       7.281   6.887  17.795  0.00  0.00    +0.000 N 
ATOM     10  O   UNL     1       8.135   6.785  18.689  0.00  0.00    +0.000 OA
ENDBRANCH   1   9
TORSDOF 1
ENDMDL
MODEL 4
REMARK VINA RESULT:      -4.8      2.267      2.643
REMARK  Name = 
REMARK  1 active torsions:
REMARK  status: ('A' for Active; 'I' for Inactive)
REMARK    1  A    between atoms: N_2  and  C_4
REMARK                            x       y       z     vdW  Elec       q    Type
REMARK                         _______ _______ _______ _____ _____    ______ ____
ROOT
ATOM      1  C   UNL     1       5.857   5.066  16.054  0.00  0.00    +0.000 C 
ATOM      2 BR   UNL     1       6.079   4.203  14.313  0.00  0.00    +0.000 Br
ATOM      3  C   UNL     1       5.147   4.139  17.029  0.00  0.00    +0.000 C 
ATOM      4  O   UNL     1       4.762   4.818  18.229  0.00  0.00    +0.000 OA
ATOM      5  C   UNL     1       3.960   5.959  17.958  0.00  0.00    +0.000 C 
ATOM      6  O   UNL     1       4.663   6.905  17.161  0.00  0.00    +0.000 OA
ATOM      7  C   UNL     1       5.057   6.356  15.901  0.00  0.00    +0.000 C 
ENDROOT
BRANCH   1   9
ATOM      8  O   UNL     1       7.917   4.407  17.013  0.00  0.00    +0.000 OA
ATOM      9  N   UNL     1       7.264   5.348  16.534  0.00  0.00    +0.000 N 
ATOM     10  O   UNL     1       7.670   6.520  16.495  0.00  0.00    +0.000 OA
ENDBRANCH   1   9
TORSDOF 1
ENDMDL
MODEL 5
REMARK VINA RESULT:      -4.8      2.235      3.396
REMARK  Name = 
REMARK  1 active torsions:
REMARK  status: ('A' for Active; 'I' for Inactive)
REMARK    1  A    between atoms: N_2  and  C_4
REMARK                            x       y       z     vdW  Elec       q    Type
REMARK                         _______ _______ _______ _____ _____    ______ ____
ROOT
ATOM      1  C   UNL     1       5.271   5.342  17.695  0.00  0.00    +0.000 C 
ATOM      2 BR   UNL     1       3.643   6.292  18.215  0.00  0.00    +0.000 Br
ATOM      3  C   UNL     1       6.317   6.314  17.169  0.00  0.00    +0.000 C 
ATOM      4  O   UNL     1       7.424   5.635  16.566  0.00  0.00    +0.000 OA
ATOM      5  C   UNL     1       7.004   4.754  15.533  0.00  0.00    +0.000 C 
ATOM      6  O   UNL     1       6.133   3.748  16.036  0.00  0.00    +0.000 OA
ATOM      7  C   UNL     1       4.954   4.305  16.622  0.00  0.00    +0.000 C 
ENDROOT
BRANCH   1   9
ATOM      8  O   UNL     1       5.289   3.578  19.271  0.00  0.00    +0.000 OA
ATOM      9  N   UNL     1       5.764   4.683  18.965  0.00  0.00    +0.000 N 
ATOM     10  O   UNL     1       6.563   5.311  19.676  0.00  0.00    +0.000 OA
ENDBRANCH   1   9
TORSDOF 1
ENDMDL
MODEL 6
REMARK VINA RESULT:      -4.8      3.896      5.002
REMARK  Name = 
REMARK  1 active torsions:
REMARK  status: ('A' for Active; 'I' for Inactive)
REMARK    1  A    between atoms: N_2  and  C_4
REMARK                            x       y       z     vdW  Elec       q    Type
REMARK                         _______ _______ _______ _____ _____    ______ ____
ROOT
ATOM      1  C   UNL     1       2.727   3.638  19.411  0.00  0.00    +0.000 C 
ATOM      2 BR   UNL     1       1.291   3.103  20.626  0.00  0.00    +0.000 Br
ATOM      3  C   UNL     1       4.041   2.982  19.807  0.00  0.00    +0.000 C 
ATOM      4  O   UNL     1       5.151   3.529  19.088  0.00  0.00    +0.000 OA
ATOM      5  C   UNL     1       5.237   4.940  19.241  0.00  0.00    +0.000 C 
ATOM      6  O   UNL     1       4.070   5.584  18.744  0.00  0.00    +0.000 OA
ATOM      7  C   UNL     1       2.889   5.155  19.427  0.00  0.00    +0.000 C 
ENDROOT
BRANCH   1   9
ATOM      8  O   UNL     1       1.528   3.871  17.384  0.00  0.00    +0.000 OA
ATOM      9  N   UNL     1       2.290   3.149  18.047  0.00  0.00    +0.000 N 
ATOM     10  O   UNL     1       2.653   2.018  17.689  0.00  0.00    +0.000 OA
ENDBRANCH   1   9
TORSDOF 1
ENDMDL
MODEL 7
REMARK VINA RESULT:      -4.7      1.872      1.958
REMARK  Name = 
REMARK  1 active torsions:
REMARK  status: ('A' for Active; 'I' for Inactive)
REMARK    1  A    between atoms: N_2  and  C_4
REMARK                            x       y       z     vdW  Elec       q    Type
REMARK                         _______ _______ _______ _____ _____    ______ ____
ROOT
ATOM      1  C   UNL     1       5.333   4.896  17.198  0.00  0.00    +0.000 C 
ATOM      2 BR   UNL     1       5.095   6.651  16.367  0.00  0.00    +0.000 Br
ATOM      3  C   UNL     1       4.071   4.059  17.061  0.00  0.00    +0.000 C 
ATOM      4  O   UNL     1       4.129   2.870  17.856  0.00  0.00    +0.000 OA
ATOM      5  C   UNL     1       4.384   3.159  19.224  0.00  0.00    +0.000 C 
ATOM      6  O   UNL     1       5.633   3.819  19.385  0.00  0.00    +0.000 OA
ATOM      7  C   UNL     1       5.680   5.059  18.675  0.00  0.00    +0.000 C 
ENDROOT
BRANCH   1   9
ATOM      8  O   UNL     1       7.631   4.476  16.820  0.00  0.00    +0.000 OA
ATOM      9  N   UNL     1       6.472   4.252  16.437  0.00  0.00    +0.000 N 
ATOM     10  O   UNL     1       6.195   3.592  15.423  0.00  0.00    +0.000 OA
ENDBRANCH   1   9
TORSDOF 1
ENDMDL
MODEL 8
REMARK VINA RESULT:      -4.7      4.260      5.512
REMARK  Name = 
REMARK  1 active torsions:
REMARK  status: ('A' for Active; 'I' for Inactive)
REMARK    1  A    between atoms: N_2  and  C_4
REMARK                            x       y       z     vdW  Elec       q    Type
REMARK                         _______ _______ _______ _____ _____    ______ ____
ROOT
ATOM      1  C   UNL     1       2.751   3.316  19.665  0.00  0.00    +0.000 C 
ATOM      2 BR   UNL     1       1.129   2.466  18.978  0.00  0.00    +0.000 Br
ATOM      3  C   UNL     1       2.974   4.667  19.001  0.00  0.00    +0.000 C 
ATOM      4  O   UNL     1       4.265   5.206  19.306  0.00  0.00    +0.000 OA
ATOM      5  C   UNL     1       5.309   4.306  18.961  0.00  0.00    +0.000 C 
ATOM      6  O   UNL     1       5.196   3.085  19.682  0.00  0.00    +0.000 OA
ATOM      7  C   UNL     1       3.959   2.419  19.417  0.00  0.00    +0.000 C 
ENDROOT
BRANCH   1   9
ATOM      8  O   UNL     1       2.118   4.612  21.541  0.00  0.00    +0.000 OA
ATOM      9  N   UNL     1       2.500   3.499  21.147  0.00  0.00    +0.000 N 
ATOM     10  O   UNL     1       2.760   2.551  21.903  0.00  0.00    +0.000 OA
ENDBRANCH   1   9
TORSDOF 1
ENDMDL
MODEL 9
REMARK VINA RESULT:      -4.7      3.668      4.583
REMARK  Name = 
REMARK  1 active torsions:
REMARK  status: ('A' for Active; 'I' for Inactive)
REMARK    1  A    between atoms: N_2  and  C_4
REMARK                            x       y       z     vdW  Elec       q    Type
REMARK                         _______ _______ _______ _____ _____    ______ ____
ROOT
ATOM      1  C   UNL     1       3.568   3.635  17.976  0.00  0.00    +0.000 C 
ATOM      2 BR   UNL     1       4.741   4.080  16.475  0.00  0.00    +0.000 Br
ATOM      3  C   UNL     1       3.263   2.144  17.997  0.00  0.00    +0.000 C 
ATOM      4  O   UNL     1       2.229   1.823  18.934  0.00  0.00    +0.000 OA
ATOM      5  C   UNL     1       1.044   2.567  18.689  0.00  0.00    +0.000 C 
ATOM      6  O   UNL     1       1.280   3.965  18.805  0.00  0.00    +0.000 OA
ATOM      7  C   UNL     1       2.265   4.421  17.874  0.00  0.00    +0.000 C 
ENDROOT
BRANCH   1   9
ATOM      8  O   UNL     1       4.222   5.183  19.641  0.00  0.00    +0.000 OA
ATOM      9  N   UNL     1       4.348   4.025  19.213  0.00  0.00    +0.000 N 
ATOM     10  O   UNL     1       5.132   3.193  19.694  0.00  0.00    +0.000 OA
ENDBRANCH   1   9
TORSDOF 1
ENDMDL
