MODEL 1
REMARK VINA RESULT:      -6.3      0.000      0.000
REMARK  Name = 
REMARK  4 active torsions:
REMARK  status: ('A' for Active; 'I' for Inactive)
REMARK    1  A    between atoms: C_1  and  C_2
REMARK    2  A    between atoms: C_2  and  O_3
REMARK    3  A    between atoms: O_3  and  C_4
REMARK    4  A    between atoms: C_4  and  C_6
REMARK                            x       y       z     vdW  Elec       q    Type
REMARK                         _______ _______ _______ _____ _____    ______ ____
ROOT
ATOM      1  C   UNL     1       4.829   4.177  19.084  0.00  0.00    +0.000 C 
ATOM      2  C   UNL     1       3.760   4.703  18.112  0.00  0.00    +0.000 C 
ATOM      3  S   UNL     1       3.892   6.480  17.731  0.00  0.00    +0.000 S 
ATOM      4  C   UNL     1       5.155   6.522  16.414  0.00  0.00    +0.000 C 
ATOM      5  C   UNL     1       6.108   5.364  16.220  0.00  0.00    +0.000 C 
ATOM      6  S   UNL     1       7.043   4.937  17.668  0.00  0.00    +0.000 S 
ATOM      7  O   UNL     1       8.219   4.214  17.233  0.00  0.00    +0.000 OA
ATOM      8  O   UNL     1       7.145   6.059  18.567  0.00  0.00    +0.000 OA
ATOM      9  N   UNL     1       6.064   3.791  18.364  0.00  0.00    +0.000 NA
ATOM     10  H   UNL     1       6.558   2.961  18.710  0.00  0.00    +0.000 HD
ENDROOT
BRANCH   1  11
ATOM     11  C   UNL     1       4.273   2.897  19.718  0.00  0.00    +0.000 C 
ATOM     12  O   UNL     1       4.955   2.050  20.285  0.00  0.00    +0.000 OA
BRANCH  11  13
ATOM     13  O   UNL     1       2.932   2.798  19.492  0.00  0.00    +0.000 OA
BRANCH  13  15
ATOM     14  C   UNL     1       0.976   3.749  20.482  0.00  0.00    +0.000 C 
ATOM     15  C   UNL     1       2.110   2.754  20.667  0.00  0.00    +0.000 C 
ENDBRANCH  13  15
ENDBRANCH  11  13
ENDBRANCH   1  11
TORSDOF 3
ENDMDL
MODEL 2
REMARK VINA RESULT:      -6.0      1.935      4.971
REMARK  Name = 
REMARK  4 active torsions:
REMARK  status: ('A' for Active; 'I' for Inactive)
REMARK    1  A    between atoms: C_1  and  C_2
REMARK    2  A    between atoms: C_2  and  O_3
REMARK    3  A    between atoms: O_3  and  C_4
REMARK    4  A    between atoms: C_4  and  C_6
REMARK                            x       y       z     vdW  Elec       q    Type
REMARK                         _______ _______ _______ _____ _____    ______ ____
ROOT
ATOM      1  C   UNL     1       4.804   4.046  17.666  0.00  0.00    +0.000 C 
ATOM      2  C   UNL     1       3.604   4.983  17.885  0.00  0.00    +0.000 C 
ATOM      3  S   UNL     1       1.979   4.162  17.804  0.00  0.00    +0.000 S 
ATOM      4  C   UNL     1       1.787   3.472  19.483  0.00  0.00    +0.000 C 
ATOM      5  C   UNL     1       2.989   3.266  20.376  0.00  0.00    +0.000 C 
ATOM      6  S   UNL     1       4.264   2.257  19.665  0.00  0.00    +0.000 S 
ATOM      7  O   UNL     1       5.067   1.733  20.750  0.00  0.00    +0.000 OA
ATOM      8  O   UNL     1       3.728   1.389  18.645  0.00  0.00    +0.000 OA
ATOM      9  N   UNL     1       5.219   3.402  18.934  0.00  0.00    +0.000 NA
ATOM     10  H   UNL     1       6.227   3.270  19.074  0.00  0.00    +0.000 HD
ENDROOT
BRANCH   1  11
ATOM     11  C   UNL     1       5.981   4.917  17.212  0.00  0.00    +0.000 C 
ATOM     12  O   UNL     1       6.125   6.098  17.508  0.00  0.00    +0.000 OA
BRANCH  11  13
ATOM     13  O   UNL     1       6.795   4.216  16.373  0.00  0.00    +0.000 OA
BRANCH  13  15
ATOM     14  C   UNL     1       6.079   3.995  14.103  0.00  0.00    +0.000 C 
ATOM     15  C   UNL     1       6.960   4.777  15.063  0.00  0.00    +0.000 C 
ENDBRANCH  13  15
ENDBRANCH  11  13
ENDBRANCH   1  11
TORSDOF 3
ENDMDL
MODEL 3
REMARK VINA RESULT:      -5.9      2.889      5.427
REMARK  Name = 
REMARK  4 active torsions:
REMARK  status: ('A' for Active; 'I' for Inactive)
REMARK    1  A    between atoms: C_1  and  C_2
REMARK    2  A    between atoms: C_2  and  O_3
REMARK    3  A    between atoms: O_3  and  C_4
REMARK    4  A    between atoms: C_4  and  C_6
REMARK                            x       y       z     vdW  Elec       q    Type
REMARK                         _______ _______ _______ _____ _____    ______ ____
ROOT
ATOM      1  C   UNL     1       6.742   4.590  15.679  0.00  0.00    +0.000 C 
ATOM      2  C   UNL     1       5.216   4.495  15.848  0.00  0.00    +0.000 C 
ATOM      3  S   UNL     1       4.675   3.668  17.379  0.00  0.00    +0.000 S 
ATOM      4  C   UNL     1       4.761   5.006  18.618  0.00  0.00    +0.000 C 
ATOM      5  C   UNL     1       5.600   6.238  18.367  0.00  0.00    +0.000 C 
ATOM      6  S   UNL     1       7.306   5.901  18.012  0.00  0.00    +0.000 S 
ATOM      7  O   UNL     1       8.061   7.103  18.299  0.00  0.00    +0.000 OA
ATOM      8  O   UNL     1       7.703   4.623  18.551  0.00  0.00    +0.000 OA
ATOM      9  N   UNL     1       7.282   5.791  16.356  0.00  0.00    +0.000 NA
ATOM     10  H   UNL     1       8.053   6.277  15.885  0.00  0.00    +0.000 HD
ENDROOT
BRANCH   1  11
ATOM     11  C   UNL     1       7.020   4.768  14.182  0.00  0.00    +0.000 C 
ATOM     12  O   UNL     1       7.901   5.486  13.721  0.00  0.00    +0.000 OA
BRANCH  11  13
ATOM     13  O   UNL     1       6.103   4.082  13.443  0.00  0.00    +0.000 OA
BRANCH  13  15
ATOM     14  C   UNL     1       5.557   2.553  11.689  0.00  0.00    +0.000 C 
ATOM     15  C   UNL     1       6.587   3.545  12.204  0.00  0.00    +0.000 C 
ENDBRANCH  13  15
ENDBRANCH  11  13
ENDBRANCH   1  11
TORSDOF 3
ENDMDL
MODEL 4
REMARK VINA RESULT:      -5.9      0.836      1.012
REMARK  Name = 
REMARK  4 active torsions:
REMARK  status: ('A' for Active; 'I' for Inactive)
REMARK    1  A    between atoms: C_1  and  C_2
REMARK    2  A    between atoms: C_2  and  O_3
REMARK    3  A    between atoms: O_3  and  C_4
REMARK    4  A    between atoms: C_4  and  C_6
REMARK                            x       y       z     vdW  Elec       q    Type
REMARK                         _______ _______ _______ _____ _____    ______ ____
ROOT
ATOM      1  C   UNL     1       4.536   4.036  18.636  0.00  0.00    +0.000 C 
ATOM      2  C   UNL     1       3.773   4.840  17.569  0.00  0.00    +0.000 C 
ATOM      3  S   UNL     1       4.049   6.640  17.636  0.00  0.00    +0.000 S 
ATOM      4  C   UNL     1       5.614   6.847  16.719  0.00  0.00    +0.000 C 
ATOM      5  C   UNL     1       6.552   5.679  16.519  0.00  0.00    +0.000 C 
ATOM      6  S   UNL     1       7.063   4.884  18.022  0.00  0.00    +0.000 S 
ATOM      7  O   UNL     1       8.292   4.171  17.747  0.00  0.00    +0.000 OA
ATOM      8  O   UNL     1       6.957   5.785  19.144  0.00  0.00    +0.000 OA
ATOM      9  N   UNL     1       5.905   3.706  18.180  0.00  0.00    +0.000 NA
ATOM     10  H   UNL     1       6.269   2.784  18.447  0.00  0.00    +0.000 HD
ENDROOT
BRANCH   1  11
ATOM     11  C   UNL     1       3.798   2.704  18.811  0.00  0.00    +0.000 C 
ATOM     12  O   UNL     1       3.618   1.887  17.915  0.00  0.00    +0.000 OA
BRANCH  11  13
ATOM     13  O   UNL     1       3.307   2.596  20.078  0.00  0.00    +0.000 OA
BRANCH  13  15
ATOM     14  C   UNL     1       1.502   2.760  21.636  0.00  0.00    +0.000 C 
ATOM     15  C   UNL     1       1.878   2.527  20.182  0.00  0.00    +0.000 C 
ENDBRANCH  13  15
ENDBRANCH  11  13
ENDBRANCH   1  11
TORSDOF 3
ENDMDL
MODEL 5
REMARK VINA RESULT:      -5.8      2.009      4.725
REMARK  Name = 
REMARK  4 active torsions:
REMARK  status: ('A' for Active; 'I' for Inactive)
REMARK    1  A    between atoms: C_1  and  C_2
REMARK    2  A    between atoms: C_2  and  O_3
REMARK    3  A    between atoms: O_3  and  C_4
REMARK    4  A    between atoms: C_4  and  C_6
REMARK                            x       y       z     vdW  Elec       q    Type
REMARK                         _______ _______ _______ _____ _____    ______ ____
ROOT
ATOM      1  C   UNL     1       5.195   4.735  18.559  0.00  0.00    +0.000 C 
ATOM      2  C   UNL     1       4.320   5.564  19.514  0.00  0.00    +0.000 C 
ATOM      3  S   UNL     1       2.619   5.850  18.926  0.00  0.00    +0.000 S 
ATOM      4  C   UNL     1       1.756   4.318  19.413  0.00  0.00    +0.000 C 
ATOM      5  C   UNL     1       2.532   3.055  19.712  0.00  0.00    +0.000 C 
ATOM      6  S   UNL     1       3.596   2.522  18.395  0.00  0.00    +0.000 S 
ATOM      7  O   UNL     1       3.859   1.111  18.586  0.00  0.00    +0.000 OA
ATOM      8  O   UNL     1       3.141   3.032  17.125  0.00  0.00    +0.000 OA
ATOM      9  N   UNL     1       5.016   3.284  18.791  0.00  0.00    +0.000 NA
ATOM     10  H   UNL     1       5.854   2.697  18.705  0.00  0.00    +0.000 HD
ENDROOT
BRANCH   1  11
ATOM     11  C   UNL     1       6.656   5.056  18.892  0.00  0.00    +0.000 C 
ATOM     12  O   UNL     1       7.079   5.276  20.022  0.00  0.00    +0.000 OA
BRANCH  11  13
ATOM     13  O   UNL     1       7.397   5.138  17.751  0.00  0.00    +0.000 OA
BRANCH  13  15
ATOM     14  C   UNL     1       7.593   7.510  17.534  0.00  0.00    +0.000 C 
ATOM     15  C   UNL     1       7.078   6.236  16.885  0.00  0.00    +0.000 C 
ENDBRANCH  13  15
ENDBRANCH  11  13
ENDBRANCH   1  11
TORSDOF 3
ENDMDL
MODEL 6
REMARK VINA RESULT:      -5.8      2.805      5.552
REMARK  Name = 
REMARK  4 active torsions:
REMARK  status: ('A' for Active; 'I' for Inactive)
REMARK    1  A    between atoms: C_1  and  C_2
REMARK    2  A    between atoms: C_2  and  O_3
REMARK    3  A    between atoms: O_3  and  C_4
REMARK    4  A    between atoms: C_4  and  C_6
REMARK                            x       y       z     vdW  Elec       q    Type
REMARK                         _______ _______ _______ _____ _____    ______ ____
ROOT
ATOM      1  C   UNL     1       6.209   5.213  15.779  0.00  0.00    +0.000 C 
ATOM      2  C   UNL     1       7.284   5.003  16.858  0.00  0.00    +0.000 C 
ATOM      3  S   UNL     1       7.044   5.994  18.368  0.00  0.00    +0.000 S 
ATOM      4  C   UNL     1       5.849   4.998  19.323  0.00  0.00    +0.000 C 
ATOM      5  C   UNL     1       4.992   3.955  18.640  0.00  0.00    +0.000 C 
ATOM      6  S   UNL     1       4.019   4.577  17.291  0.00  0.00    +0.000 S 
ATOM      7  O   UNL     1       2.921   3.658  17.081  0.00  0.00    +0.000 OA
ATOM      8  O   UNL     1       3.792   5.994  17.429  0.00  0.00    +0.000 OA
ATOM      9  N   UNL     1       5.042   4.329  16.007  0.00  0.00    +0.000 NA
ATOM     10  H   UNL     1       4.592   3.936  15.173  0.00  0.00    +0.000 HD
ENDROOT
BRANCH   1  11
ATOM     11  C   UNL     1       6.823   4.789  14.440  0.00  0.00    +0.000 C 
ATOM     12  O   UNL     1       7.775   5.348  13.905  0.00  0.00    +0.000 OA
BRANCH  11  13
ATOM     13  O   UNL     1       6.113   3.761  13.895  0.00  0.00    +0.000 OA
BRANCH  13  15
ATOM     14  C   UNL     1       4.976   3.195  11.871  0.00  0.00    +0.000 C 
ATOM     15  C   UNL     1       6.318   3.545  12.492  0.00  0.00    +0.000 C 
ENDBRANCH  13  15
ENDBRANCH  11  13
ENDBRANCH   1  11
TORSDOF 3
ENDMDL
MODEL 7
REMARK VINA RESULT:      -5.8      2.234      4.861
REMARK  Name = 
REMARK  4 active torsions:
REMARK  status: ('A' for Active; 'I' for Inactive)
REMARK    1  A    between atoms: C_1  and  C_2
REMARK    2  A    between atoms: C_2  and  O_3
REMARK    3  A    between atoms: O_3  and  C_4
REMARK    4  A    between atoms: C_4  and  C_6
REMARK                            x       y       z     vdW  Elec       q    Type
REMARK                         _______ _______ _______ _____ _____    ______ ____
ROOT
ATOM      1  C   UNL     1       4.318   4.065  17.496  0.00  0.00    +0.000 C 
ATOM      2  C   UNL     1       3.098   4.928  17.860  0.00  0.00    +0.000 C 
ATOM      3  S   UNL     1       1.529   4.010  17.972  0.00  0.00    +0.000 S 
ATOM      4  C   UNL     1       1.581   3.318  19.660  0.00  0.00    +0.000 C 
ATOM      5  C   UNL     1       2.892   3.190  20.403  0.00  0.00    +0.000 C 
ATOM      6  S   UNL     1       4.132   2.257  19.541  0.00  0.00    +0.000 S 
ATOM      7  O   UNL     1       5.090   1.788  20.520  0.00  0.00    +0.000 OA
ATOM      8  O   UNL     1       3.532   1.353  18.591  0.00  0.00    +0.000 OA
ATOM      9  N   UNL     1       4.921   3.453  18.703  0.00  0.00    +0.000 NA
ATOM     10  H   UNL     1       5.945   3.384  18.722  0.00  0.00    +0.000 HD
ENDROOT
BRANCH   1  11
ATOM     11  C   UNL     1       5.377   5.003  16.906  0.00  0.00    +0.000 C 
ATOM     12  O   UNL     1       5.156   5.839  16.037  0.00  0.00    +0.000 OA
BRANCH  11  13
ATOM     13  O   UNL     1       6.605   4.721  17.425  0.00  0.00    +0.000 OA
BRANCH  13  15
ATOM     14  C   UNL     1       7.818   5.825  19.164  0.00  0.00    +0.000 C 
ATOM     15  C   UNL     1       7.437   5.859  17.693  0.00  0.00    +0.000 C 
ENDBRANCH  13  15
ENDBRANCH  11  13
ENDBRANCH   1  11
TORSDOF 3
ENDMDL
MODEL 8
REMARK VINA RESULT:      -5.8      1.752      4.758
REMARK  Name = 
REMARK  4 active torsions:
REMARK  status: ('A' for Active; 'I' for Inactive)
REMARK    1  A    between atoms: C_1  and  C_2
REMARK    2  A    between atoms: C_2  and  O_3
REMARK    3  A    between atoms: O_3  and  C_4
REMARK    4  A    between atoms: C_4  and  C_6
REMARK                            x       y       z     vdW  Elec       q    Type
REMARK                         _______ _______ _______ _____ _____    ______ ____
ROOT
ATOM      1  C   UNL     1       5.684   4.536  17.904  0.00  0.00    +0.000 C 
ATOM      2  C   UNL     1       4.846   5.794  18.193  0.00  0.00    +0.000 C 
ATOM      3  S   UNL     1       3.065   5.611  17.854  0.00  0.00    +0.000 S 
ATOM      4  C   UNL     1       2.442   4.810  19.371  0.00  0.00    +0.000 C 
ATOM      5  C   UNL     1       3.383   4.078  20.301  0.00  0.00    +0.000 C 
ATOM      6  S   UNL     1       4.330   2.794  19.521  0.00  0.00    +0.000 S 
ATOM      7  O   UNL     1       4.767   1.881  20.555  0.00  0.00    +0.000 OA
ATOM      8  O   UNL     1       3.669   2.315  18.332  0.00  0.00    +0.000 OA
ATOM      9  N   UNL     1       5.695   3.622  19.069  0.00  0.00    +0.000 NA
ATOM     10  H   UNL     1       6.576   3.129  19.258  0.00  0.00    +0.000 HD
ENDROOT
BRANCH   1  11
ATOM     11  C   UNL     1       7.130   4.995  17.693  0.00  0.00    +0.000 C 
ATOM     12  O   UNL     1       7.796   5.599  18.527  0.00  0.00    +0.000 OA
BRANCH  11  13
ATOM     13  O   UNL     1       7.540   4.708  16.425  0.00  0.00    +0.000 OA
BRANCH  13  15
ATOM     14  C   UNL     1       6.715   4.630  14.183  0.00  0.00    +0.000 C 
ATOM     15  C   UNL     1       6.562   4.074  15.589  0.00  0.00    +0.000 C 
ENDBRANCH  13  15
ENDBRANCH  11  13
ENDBRANCH   1  11
TORSDOF 3
ENDMDL
MODEL 9
REMARK VINA RESULT:      -5.7      2.256      5.165
REMARK  Name = 
REMARK  4 active torsions:
REMARK  status: ('A' for Active; 'I' for Inactive)
REMARK    1  A    between atoms: C_1  and  C_2
REMARK    2  A    between atoms: C_2  and  O_3
REMARK    3  A    between atoms: O_3  and  C_4
REMARK    4  A    between atoms: C_4  and  C_6
REMARK                            x       y       z     vdW  Elec       q    Type
REMARK                         _______ _______ _______ _____ _____    ______ ____
ROOT
ATOM      1  C   UNL     1       5.145   4.637  16.564  0.00  0.00    +0.000 C 
ATOM      2  C   UNL     1       5.104   5.765  17.608  0.00  0.00    +0.000 C 
ATOM      3  S   UNL     1       3.433   6.389  17.983  0.00  0.00    +0.000 S 
ATOM      4  C   UNL     1       2.815   5.188  19.210  0.00  0.00    +0.000 C 
ATOM      5  C   UNL     1       3.444   3.818  19.336  0.00  0.00    +0.000 C 
ATOM      6  S   UNL     1       3.468   2.883  17.827  0.00  0.00    +0.000 S 
ATOM      7  O   UNL     1       3.601   1.485  18.178  0.00  0.00    +0.000 OA
ATOM      8  O   UNL     1       2.436   3.332  16.925  0.00  0.00    +0.000 OA
ATOM      9  N   UNL     1       4.942   3.314  17.197  0.00  0.00    +0.000 NA
ATOM     10  H   UNL     1       5.488   2.533  16.816  0.00  0.00    +0.000 HD
ENDROOT
BRANCH   1  11
ATOM     11  C   UNL     1       6.556   4.625  15.967  0.00  0.00    +0.000 C 
ATOM     12  O   UNL     1       7.585   4.475  16.618  0.00  0.00    +0.000 OA
BRANCH  11  13
ATOM     13  O   UNL     1       6.509   4.883  14.629  0.00  0.00    +0.000 OA
BRANCH  13  15
ATOM     14  C   UNL     1       6.635   3.793  12.506  0.00  0.00    +0.000 C 
ATOM     15  C   UNL     1       5.887   3.870  13.827  0.00  0.00    +0.000 C 
ENDBRANCH  13  15
ENDBRANCH  11  13
ENDBRANCH   1  11
TORSDOF 3
ENDMDL
