MODEL 1
REMARK VINA RESULT:      -9.6      0.000      0.000
REMARK  Name = 
REMARK  6 active torsions:
REMARK  status: ('A' for Active; 'I' for Inactive)
REMARK    1  A    between atoms: C_1  and  N_2
REMARK    2  A    between atoms: C_11  and  C_12
REMARK    3  A    between atoms: C_12  and  N_13
REMARK    4  A    between atoms: N_16  and  C_17
REMARK    5  A    between atoms: N_26  and  C_27
REMARK    6  A    between atoms: C_27  and  C_28
REMARK                            x       y       z     vdW  Elec       q    Type
REMARK                         _______ _______ _______ _____ _____    ______ ____
ROOT
ATOM      1  C   UNL     1       7.602   6.787  18.194  0.00  0.00    +0.000 C 
ATOM      2  N   UNL     1       6.597   5.919  17.618  0.00  0.00    +0.000 N 
ATOM      3  C   UNL     1       6.976   4.640  17.200  0.00  0.00    +0.000 A 
ATOM      4  O   UNL     1       8.129   4.214  17.231  0.00  0.00    +0.000 OA
ATOM      5  N   UNL     1       5.980   3.793  16.769  0.00  0.00    +0.000 N 
ATOM      6  C   UNL     1       4.642   3.977  16.978  0.00  0.00    +0.000 A 
ATOM      7  O   UNL     1       3.859   3.034  16.918  0.00  0.00    +0.000 OA
ATOM      8  C   UNL     1       4.309   5.321  17.326  0.00  0.00    +0.000 A 
ATOM      9  C   UNL     1       5.251   6.265  17.614  0.00  0.00    +0.000 A 
ATOM     10  N   UNL     1       4.666   7.453  18.001  0.00  0.00    +0.000 NA
ATOM     11  C   UNL     1       3.346   7.263  17.939  0.00  0.00    +0.000 A 
ATOM     12  N   UNL     1       3.105   5.922  17.571  0.00  0.00    +0.000 N 
ATOM     13  H   UNL     1       6.274   2.853  16.568  0.00  0.00    +0.000 HD
ENDROOT
BRANCH  11  14
ATOM     14  C   UNL     1       2.190   8.140  18.447  0.00  0.00    +0.000 C 
BRANCH  14  15
ATOM     15  N   UNL     1       1.653   9.340  17.814  0.00  0.00    +0.000 NA
ATOM     16  C   UNL     1       0.264   9.383  17.414  0.00  0.00    +0.000 C 
ATOM     17  C   UNL     1      -0.679   9.903  18.501  0.00  0.00    +0.000 C 
ATOM     18  N   UNL     1      -0.200  11.070  19.293  0.00  0.00    +0.000 N 
ATOM     19  C   UNL     1       1.255  11.373  19.288  0.00  0.00    +0.000 C 
ATOM     20  C   UNL     1       2.103  10.660  18.223  0.00  0.00    +0.000 C 
BRANCH  18  21
ATOM     21  C   UNL     1      -0.791  11.190  20.589  0.00  0.00    +0.000 A 
ATOM     22  C   UNL     1      -1.723  12.216  20.863  0.00  0.00    +0.000 A 
ATOM     23  C   UNL     1      -2.148  12.510  22.165  0.00  0.00    +0.000 A 
ATOM     24  C   UNL     1      -1.687  11.755  23.236  0.00  0.00    +0.000 A 
ATOM     25  C   UNL     1      -0.889  10.651  22.988  0.00  0.00    +0.000 A 
ATOM     26  C   UNL     1      -0.485  10.352  21.685  0.00  0.00    +0.000 A 
ATOM     27  F   UNL     1       0.233   9.227  21.538  0.00  0.00    +0.000 F 
ENDBRANCH  18  21
ENDBRANCH  14  15
ENDBRANCH  11  14
BRANCH  12  28
ATOM     28  C   UNL     1       1.857   5.191  17.739  0.00  0.00    +0.000 C 
BRANCH  28  29
ATOM     29  C   UNL     1       1.715   4.477  19.056  0.00  0.00    +0.000 A 
ATOM     30  C   UNL     1       2.226   4.965  20.271  0.00  0.00    +0.000 A 
ATOM     31  C   UNL     1       2.245   4.137  21.392  0.00  0.00    +0.000 A 
ATOM     32  C   UNL     1       1.721   2.850  21.304  0.00  0.00    +0.000 A 
ATOM     33  F   UNL     1       1.814   2.024  22.353  0.00  0.00    +0.000 F 
ATOM     34  C   UNL     1       1.105   2.398  20.140  0.00  0.00    +0.000 A 
ATOM     35  C   UNL     1       1.091   3.222  19.022  0.00  0.00    +0.000 A 
ENDBRANCH  28  29
ENDBRANCH  12  28
TORSDOF 5
ENDMDL
MODEL 2
REMARK VINA RESULT:      -9.5      1.527      2.215
REMARK  Name = 
REMARK  6 active torsions:
REMARK  status: ('A' for Active; 'I' for Inactive)
REMARK    1  A    between atoms: C_1  and  N_2
REMARK    2  A    between atoms: C_11  and  C_12
REMARK    3  A    between atoms: C_12  and  N_13
REMARK    4  A    between atoms: N_16  and  C_17
REMARK    5  A    between atoms: N_26  and  C_27
REMARK    6  A    between atoms: C_27  and  C_28
REMARK                            x       y       z     vdW  Elec       q    Type
REMARK                         _______ _______ _______ _____ _____    ______ ____
ROOT
ATOM      1  C   UNL     1       7.474   6.890  18.107  0.00  0.00    +0.000 C 
ATOM      2  N   UNL     1       6.524   5.927  17.591  0.00  0.00    +0.000 N 
ATOM      3  C   UNL     1       6.968   4.631  17.312  0.00  0.00    +0.000 A 
ATOM      4  O   UNL     1       8.135   4.260  17.419  0.00  0.00    +0.000 OA
ATOM      5  N   UNL     1       6.021   3.705  16.939  0.00  0.00    +0.000 N 
ATOM      6  C   UNL     1       4.671   3.850  17.090  0.00  0.00    +0.000 A 
ATOM      7  O   UNL     1       3.928   2.874  17.100  0.00  0.00    +0.000 OA
ATOM      8  C   UNL     1       4.273   5.207  17.293  0.00  0.00    +0.000 A 
ATOM      9  C   UNL     1       5.166   6.214  17.513  0.00  0.00    +0.000 A 
ATOM     10  N   UNL     1       4.522   7.408  17.764  0.00  0.00    +0.000 NA
ATOM     11  C   UNL     1       3.214   7.156  17.682  0.00  0.00    +0.000 A 
ATOM     12  N   UNL     1       3.038   5.776  17.441  0.00  0.00    +0.000 N 
ATOM     13  H   UNL     1       6.359   2.763  16.840  0.00  0.00    +0.000 HD
ENDROOT
BRANCH  11  14
ATOM     14  C   UNL     1       2.008   8.028  18.067  0.00  0.00    +0.000 C 
BRANCH  14  15
ATOM     15  N   UNL     1       1.980   9.109  19.047  0.00  0.00    +0.000 NA
ATOM     16  C   UNL     1       2.075  10.483  18.608  0.00  0.00    +0.000 C 
ATOM     17  C   UNL     1       0.723  11.132  18.305  0.00  0.00    +0.000 C 
ATOM     18  N   UNL     1      -0.384  10.835  19.257  0.00  0.00    +0.000 N 
ATOM     19  C   UNL     1      -0.248   9.650  20.143  0.00  0.00    +0.000 C 
ATOM     20  C   UNL     1       1.146   9.014  20.234  0.00  0.00    +0.000 C 
BRANCH  18  21
ATOM     21  C   UNL     1      -1.695  10.972  18.703  0.00  0.00    +0.000 A 
ATOM     22  C   UNL     1      -2.597  11.928  19.219  0.00  0.00    +0.000 A 
ATOM     23  C   UNL     1      -3.954  11.941  18.867  0.00  0.00    +0.000 A 
ATOM     24  C   UNL     1      -4.444  11.022  17.948  0.00  0.00    +0.000 A 
ATOM     25  C   UNL     1      -3.558  10.167  17.313  0.00  0.00    +0.000 A 
ATOM     26  C   UNL     1      -2.205  10.172  17.655  0.00  0.00    +0.000 A 
ATOM     27  F   UNL     1      -1.416   9.355  16.939  0.00  0.00    +0.000 F 
ENDBRANCH  18  21
ENDBRANCH  14  15
ENDBRANCH  11  14
BRANCH  12  28
ATOM     28  C   UNL     1       1.815   5.013  17.645  0.00  0.00    +0.000 C 
BRANCH  28  29
ATOM     29  C   UNL     1       1.682   4.384  19.005  0.00  0.00    +0.000 A 
ATOM     30  C   UNL     1       2.203   4.945  20.183  0.00  0.00    +0.000 A 
ATOM     31  C   UNL     1       2.228   4.189  21.354  0.00  0.00    +0.000 A 
ATOM     32  C   UNL     1       1.701   2.900  21.351  0.00  0.00    +0.000 A 
ATOM     33  F   UNL     1       1.801   2.142  22.449  0.00  0.00    +0.000 F 
ATOM     34  C   UNL     1       1.076   2.378  20.221  0.00  0.00    +0.000 A 
ATOM     35  C   UNL     1       1.056   3.130  19.054  0.00  0.00    +0.000 A 
ENDBRANCH  28  29
ENDBRANCH  12  28
TORSDOF 5
ENDMDL
MODEL 3
REMARK VINA RESULT:      -9.4      1.538      2.381
REMARK  Name = 
REMARK  6 active torsions:
REMARK  status: ('A' for Active; 'I' for Inactive)
REMARK    1  A    between atoms: C_1  and  N_2
REMARK    2  A    between atoms: C_11  and  C_12
REMARK    3  A    between atoms: C_12  and  N_13
REMARK    4  A    between atoms: N_16  and  C_17
REMARK    5  A    between atoms: N_26  and  C_27
REMARK    6  A    between atoms: C_27  and  C_28
REMARK                            x       y       z     vdW  Elec       q    Type
REMARK                         _______ _______ _______ _____ _____    ______ ____
ROOT
ATOM      1  C   UNL     1       7.478   6.809  18.190  0.00  0.00    +0.000 C 
ATOM      2  N   UNL     1       6.556   5.858  17.607  0.00  0.00    +0.000 N 
ATOM      3  C   UNL     1       7.035   4.593  17.251  0.00  0.00    +0.000 A 
ATOM      4  O   UNL     1       8.211   4.246  17.342  0.00  0.00    +0.000 OA
ATOM      5  N   UNL     1       6.116   3.668  16.813  0.00  0.00    +0.000 N 
ATOM      6  C   UNL     1       4.761   3.770  16.962  0.00  0.00    +0.000 A 
ATOM      7  O   UNL     1       4.044   2.775  16.905  0.00  0.00    +0.000 OA
ATOM      8  C   UNL     1       4.326   5.100  17.247  0.00  0.00    +0.000 A 
ATOM      9  C   UNL     1       5.192   6.113  17.537  0.00  0.00    +0.000 A 
ATOM     10  N   UNL     1       4.516   7.272  17.858  0.00  0.00    +0.000 NA
ATOM     11  C   UNL     1       3.215   6.992  17.751  0.00  0.00    +0.000 A 
ATOM     12  N   UNL     1       3.077   5.627  17.422  0.00  0.00    +0.000 N 
ATOM     13  H   UNL     1       6.478   2.743  16.657  0.00  0.00    +0.000 HD
ENDROOT
BRANCH  11  14
ATOM     14  C   UNL     1       1.984   7.808  18.180  0.00  0.00    +0.000 C 
BRANCH  14  15
ATOM     15  N   UNL     1       1.972   9.031  18.976  0.00  0.00    +0.000 NA
ATOM     16  C   UNL     1       2.026  10.318  18.319  0.00  0.00    +0.000 C 
ATOM     17  C   UNL     1       0.651  10.893  17.970  0.00  0.00    +0.000 C 
ATOM     18  N   UNL     1      -0.414  10.739  19.000  0.00  0.00    +0.000 N 
ATOM     19  C   UNL     1      -0.223   9.713  20.059  0.00  0.00    +0.000 C 
ATOM     20  C   UNL     1       1.186   9.117  20.195  0.00  0.00    +0.000 C 
BRANCH  18  21
ATOM     21  C   UNL     1      -1.747  10.769  18.485  0.00  0.00    +0.000 A 
ATOM     22  C   UNL     1      -2.095  10.007  17.348  0.00  0.00    +0.000 A 
ATOM     23  C   UNL     1      -3.314  10.181  16.677  0.00  0.00    +0.000 A 
ATOM     24  C   UNL     1      -4.246  11.095  17.151  0.00  0.00    +0.000 A 
ATOM     25  C   UNL     1      -3.999  11.751  18.346  0.00  0.00    +0.000 A 
ATOM     26  C   UNL     1      -2.790  11.559  19.019  0.00  0.00    +0.000 A 
ATOM     27  F   UNL     1      -2.671  12.188  20.199  0.00  0.00    +0.000 F 
ENDBRANCH  18  21
ENDBRANCH  14  15
ENDBRANCH  11  14
BRANCH  12  28
ATOM     28  C   UNL     1       1.873   4.821  17.568  0.00  0.00    +0.000 C 
BRANCH  28  29
ATOM     29  C   UNL     1       1.681   4.211  18.930  0.00  0.00    +0.000 A 
ATOM     30  C   UNL     1       2.113   4.812  20.125  0.00  0.00    +0.000 A 
ATOM     31  C   UNL     1       2.095   4.078  21.310  0.00  0.00    +0.000 A 
ATOM     32  C   UNL     1       1.615   2.771  21.302  0.00  0.00    +0.000 A 
ATOM     33  F   UNL     1       1.676   2.036  22.418  0.00  0.00    +0.000 F 
ATOM     34  C   UNL     1       1.075   2.207  20.148  0.00  0.00    +0.000 A 
ATOM     35  C   UNL     1       1.097   2.937  18.967  0.00  0.00    +0.000 A 
ENDBRANCH  28  29
ENDBRANCH  12  28
TORSDOF 5
ENDMDL
MODEL 4
REMARK VINA RESULT:      -9.4      0.856      1.447
REMARK  Name = 
REMARK  6 active torsions:
REMARK  status: ('A' for Active; 'I' for Inactive)
REMARK    1  A    between atoms: C_1  and  N_2
REMARK    2  A    between atoms: C_11  and  C_12
REMARK    3  A    between atoms: C_12  and  N_13
REMARK    4  A    between atoms: N_16  and  C_17
REMARK    5  A    between atoms: N_26  and  C_27
REMARK    6  A    between atoms: C_27  and  C_28
REMARK                            x       y       z     vdW  Elec       q    Type
REMARK                         _______ _______ _______ _____ _____    ______ ____
ROOT
ATOM      1  C   UNL     1       7.609   6.839  18.083  0.00  0.00    +0.000 C 
ATOM      2  N   UNL     1       6.603   5.956  17.532  0.00  0.00    +0.000 N 
ATOM      3  C   UNL     1       6.986   4.674  17.127  0.00  0.00    +0.000 A 
ATOM      4  O   UNL     1       8.142   4.256  17.150  0.00  0.00    +0.000 OA
ATOM      5  N   UNL     1       5.992   3.815  16.721  0.00  0.00    +0.000 N 
ATOM      6  C   UNL     1       4.655   3.992  16.944  0.00  0.00    +0.000 A 
ATOM      7  O   UNL     1       3.877   3.044  16.906  0.00  0.00    +0.000 OA
ATOM      8  C   UNL     1       4.316   5.339  17.276  0.00  0.00    +0.000 A 
ATOM      9  C   UNL     1       5.255   6.294  17.538  0.00  0.00    +0.000 A 
ATOM     10  N   UNL     1       4.667   7.483  17.916  0.00  0.00    +0.000 NA
ATOM     11  C   UNL     1       3.348   7.283  17.872  0.00  0.00    +0.000 A 
ATOM     12  N   UNL     1       3.111   5.935  17.526  0.00  0.00    +0.000 N 
ATOM     13  H   UNL     1       6.289   2.874  16.529  0.00  0.00    +0.000 HD
ENDROOT
BRANCH  11  14
ATOM     14  C   UNL     1       2.191   8.160  18.381  0.00  0.00    +0.000 C 
BRANCH  14  15
ATOM     15  N   UNL     1       1.644   9.352  17.742  0.00  0.00    +0.000 NA
ATOM     16  C   UNL     1       0.229   9.427  17.452  0.00  0.00    +0.000 C 
ATOM     17  C   UNL     1      -0.605  10.024  18.587  0.00  0.00    +0.000 C 
ATOM     18  N   UNL     1      -0.027  11.205  19.286  0.00  0.00    +0.000 N 
ATOM     19  C   UNL     1       1.432  11.455  19.153  0.00  0.00    +0.000 C 
ATOM     20  C   UNL     1       2.167  10.671  18.056  0.00  0.00    +0.000 C 
BRANCH  18  21
ATOM     21  C   UNL     1      -0.507  11.398  20.619  0.00  0.00    +0.000 A 
ATOM     22  C   UNL     1      -0.120  10.523  21.657  0.00  0.00    +0.000 A 
ATOM     23  C   UNL     1      -0.739  10.535  22.915  0.00  0.00    +0.000 A 
ATOM     24  C   UNL     1      -1.739  11.459  23.190  0.00  0.00    +0.000 A 
ATOM     25  C   UNL     1      -2.041  12.427  22.246  0.00  0.00    +0.000 A 
ATOM     26  C   UNL     1      -1.406  12.420  21.002  0.00  0.00    +0.000 A 
ATOM     27  F   UNL     1      -1.717  13.435  20.180  0.00  0.00    +0.000 F 
ENDBRANCH  18  21
ENDBRANCH  14  15
ENDBRANCH  11  14
BRANCH  12  28
ATOM     28  C   UNL     1       1.870   5.199  17.721  0.00  0.00    +0.000 C 
BRANCH  28  29
ATOM     29  C   UNL     1       1.845   4.311  18.935  0.00  0.00    +0.000 A 
ATOM     30  C   UNL     1       1.271   3.028  18.956  0.00  0.00    +0.000 A 
ATOM     31  C   UNL     1       1.095   2.373  20.173  0.00  0.00    +0.000 A 
ATOM     32  C   UNL     1       1.524   2.981  21.350  0.00  0.00    +0.000 A 
ATOM     33  F   UNL     1       1.280   2.393  22.527  0.00  0.00    +0.000 F 
ATOM     34  C   UNL     1       2.201   4.199  21.329  0.00  0.00    +0.000 A 
ATOM     35  C   UNL     1       2.372   4.853  20.116  0.00  0.00    +0.000 A 
ENDBRANCH  28  29
ENDBRANCH  12  28
TORSDOF 5
ENDMDL
MODEL 5
REMARK VINA RESULT:      -7.8      2.028      2.882
REMARK  Name = 
REMARK  6 active torsions:
REMARK  status: ('A' for Active; 'I' for Inactive)
REMARK    1  A    between atoms: C_1  and  N_2
REMARK    2  A    between atoms: C_11  and  C_12
REMARK    3  A    between atoms: C_12  and  N_13
REMARK    4  A    between atoms: N_16  and  C_17
REMARK    5  A    between atoms: N_26  and  C_27
REMARK    6  A    between atoms: C_27  and  C_28
REMARK                            x       y       z     vdW  Elec       q    Type
REMARK                         _______ _______ _______ _____ _____    ______ ____
ROOT
ATOM      1  C   UNL     1       7.584   7.232  17.051  0.00  0.00    +0.000 C 
ATOM      2  N   UNL     1       6.668   6.264  17.615  0.00  0.00    +0.000 N 
ATOM      3  C   UNL     1       7.189   5.083  18.153  0.00  0.00    +0.000 A 
ATOM      4  O   UNL     1       8.378   4.775  18.128  0.00  0.00    +0.000 OA
ATOM      5  N   UNL     1       6.311   4.236  18.790  0.00  0.00    +0.000 N 
ATOM      6  C   UNL     1       5.048   4.567  19.196  0.00  0.00    +0.000 A 
ATOM      7  O   UNL     1       4.477   3.922  20.070  0.00  0.00    +0.000 OA
ATOM      8  C   UNL     1       4.542   5.737  18.553  0.00  0.00    +0.000 A 
ATOM      9  C   UNL     1       5.316   6.545  17.773  0.00  0.00    +0.000 A 
ATOM     10  N   UNL     1       4.611   7.650  17.343  0.00  0.00    +0.000 NA
ATOM     11  C   UNL     1       3.378   7.529  17.841  0.00  0.00    +0.000 A 
ATOM     12  N   UNL     1       3.332   6.368  18.642  0.00  0.00    +0.000 N 
ATOM     13  H   UNL     1       6.732   3.446  19.247  0.00  0.00    +0.000 HD
ENDROOT
BRANCH  11  14
ATOM     14  C   UNL     1       2.219   8.538  17.883  0.00  0.00    +0.000 C 
BRANCH  14  15
ATOM     15  N   UNL     1       1.969   9.549  18.905  0.00  0.00    +0.000 NA
ATOM     16  C   UNL     1       1.883  10.944  18.533  0.00  0.00    +0.000 C 
ATOM     17  C   UNL     1       0.469  11.401  18.167  0.00  0.00    +0.000 C 
ATOM     18  N   UNL     1      -0.636  10.895  19.028  0.00  0.00    +0.000 N 
ATOM     19  C   UNL     1      -0.378   9.697  19.869  0.00  0.00    +0.000 C 
ATOM     20  C   UNL     1       1.089   9.270  20.027  0.00  0.00    +0.000 C 
BRANCH  18  21
ATOM     21  C   UNL     1      -1.917  10.866  18.393  0.00  0.00    +0.000 A 
ATOM     22  C   UNL     1      -2.120  10.110  17.216  0.00  0.00    +0.000 A 
ATOM     23  C   UNL     1      -3.280  10.235  16.440  0.00  0.00    +0.000 A 
ATOM     24  C   UNL     1      -4.299  11.088  16.841  0.00  0.00    +0.000 A 
ATOM     25  C   UNL     1      -4.197  11.732  18.064  0.00  0.00    +0.000 A 
ATOM     26  C   UNL     1      -3.046  11.589  18.842  0.00  0.00    +0.000 A 
ATOM     27  F   UNL     1      -3.067  12.198  20.038  0.00  0.00    +0.000 F 
ENDBRANCH  18  21
ENDBRANCH  14  15
ENDBRANCH  11  14
BRANCH  12  28
ATOM     28  C   UNL     1       2.329   6.054  19.650  0.00  0.00    +0.000 C 
BRANCH  28  29
ATOM     29  C   UNL     1       1.634   4.733  19.461  0.00  0.00    +0.000 A 
ATOM     30  C   UNL     1       1.141   3.948  20.517  0.00  0.00    +0.000 A 
ATOM     31  C   UNL     1       0.717   2.644  20.268  0.00  0.00    +0.000 A 
ATOM     32  C   UNL     1       0.750   2.149  18.966  0.00  0.00    +0.000 A 
ATOM     33  F   UNL     1       0.424   0.872  18.736  0.00  0.00    +0.000 F 
ATOM     34  C   UNL     1       1.125   2.956  17.895  0.00  0.00    +0.000 A 
ATOM     35  C   UNL     1       1.552   4.253  18.146  0.00  0.00    +0.000 A 
ENDBRANCH  28  29
ENDBRANCH  12  28
TORSDOF 5
ENDMDL
MODEL 6
REMARK VINA RESULT:      -7.7      3.760      8.404
REMARK  Name = 
REMARK  6 active torsions:
REMARK  status: ('A' for Active; 'I' for Inactive)
REMARK    1  A    between atoms: C_1  and  N_2
REMARK    2  A    between atoms: C_11  and  C_12
REMARK    3  A    between atoms: C_12  and  N_13
REMARK    4  A    between atoms: N_16  and  C_17
REMARK    5  A    between atoms: N_26  and  C_27
REMARK    6  A    between atoms: C_27  and  C_28
REMARK                            x       y       z     vdW  Elec       q    Type
REMARK                         _______ _______ _______ _____ _____    ______ ____
ROOT
ATOM      1  C   UNL     1      -0.404  10.656  17.644  0.00  0.00    +0.000 C 
ATOM      2  N   UNL     1       0.181  10.068  18.831  0.00  0.00    +0.000 N 
ATOM      3  C   UNL     1      -0.435  10.299  20.065  0.00  0.00    +0.000 A 
ATOM      4  O   UNL     1      -1.415  11.023  20.227  0.00  0.00    +0.000 OA
ATOM      5  N   UNL     1       0.069   9.632  21.158  0.00  0.00    +0.000 N 
ATOM      6  C   UNL     1       0.916   8.560  21.108  0.00  0.00    +0.000 A 
ATOM      7  O   UNL     1       1.019   7.792  22.059  0.00  0.00    +0.000 OA
ATOM      8  C   UNL     1       1.574   8.424  19.847  0.00  0.00    +0.000 A 
ATOM      9  C   UNL     1       1.235   9.166  18.754  0.00  0.00    +0.000 A 
ATOM     10  N   UNL     1       1.960   8.782  17.645  0.00  0.00    +0.000 NA
ATOM     11  C   UNL     1       2.775   7.804  18.046  0.00  0.00    +0.000 A 
ATOM     12  N   UNL     1       2.510   7.531  19.405  0.00  0.00    +0.000 N 
ATOM     13  H   UNL     1      -0.454   9.745  22.009  0.00  0.00    +0.000 HD
ENDROOT
BRANCH  11  14
ATOM     14  C   UNL     1       3.659   6.848  17.229  0.00  0.00    +0.000 C 
BRANCH  14  15
ATOM     15  N   UNL     1       4.998   6.380  17.569  0.00  0.00    +0.000 NA
ATOM     16  C   UNL     1       5.247   4.966  17.737  0.00  0.00    +0.000 C 
ATOM     17  C   UNL     1       5.655   4.251  16.447  0.00  0.00    +0.000 C 
ATOM     18  N   UNL     1       6.612   4.972  15.562  0.00  0.00    +0.000 N 
ATOM     19  C   UNL     1       6.767   6.439  15.745  0.00  0.00    +0.000 C 
ATOM     20  C   UNL     1       6.175   7.040  17.028  0.00  0.00    +0.000 C 
BRANCH  18  21
ATOM     21  C   UNL     1       6.558   4.583  14.188  0.00  0.00    +0.000 A 
ATOM     22  C   UNL     1       5.479   3.813  13.700  0.00  0.00    +0.000 A 
ATOM     23  C   UNL     1       5.498   3.221  12.430  0.00  0.00    +0.000 A 
ATOM     24  C   UNL     1       6.583   3.417  11.585  0.00  0.00    +0.000 A 
ATOM     25  C   UNL     1       7.590   4.286  11.974  0.00  0.00    +0.000 A 
ATOM     26  C   UNL     1       7.555   4.888  13.233  0.00  0.00    +0.000 A 
ATOM     27  F   UNL     1       8.540   5.762  13.492  0.00  0.00    +0.000 F 
ENDBRANCH  18  21
ENDBRANCH  14  15
ENDBRANCH  11  14
BRANCH  12  28
ATOM     28  C   UNL     1       2.886   6.328  20.134  0.00  0.00    +0.000 C 
BRANCH  28  29
ATOM     29  C   UNL     1       2.046   5.117  19.832  0.00  0.00    +0.000 A 
ATOM     30  C   UNL     1       1.574   4.227  20.811  0.00  0.00    +0.000 A 
ATOM     31  C   UNL     1       0.997   3.018  20.423  0.00  0.00    +0.000 A 
ATOM     32  C   UNL     1       0.862   2.726  19.068  0.00  0.00    +0.000 A 
ATOM     33  F   UNL     1       0.387   1.532  18.694  0.00  0.00    +0.000 F 
ATOM     34  C   UNL     1       1.217   3.651  18.090  0.00  0.00    +0.000 A 
ATOM     35  C   UNL     1       1.796   4.852  18.477  0.00  0.00    +0.000 A 
ENDBRANCH  28  29
ENDBRANCH  12  28
TORSDOF 5
ENDMDL
MODEL 7
REMARK VINA RESULT:      -7.5      2.888      5.012
REMARK  Name = 
REMARK  6 active torsions:
REMARK  status: ('A' for Active; 'I' for Inactive)
REMARK    1  A    between atoms: C_1  and  N_2
REMARK    2  A    between atoms: C_11  and  C_12
REMARK    3  A    between atoms: C_12  and  N_13
REMARK    4  A    between atoms: N_16  and  C_17
REMARK    5  A    between atoms: N_26  and  C_27
REMARK    6  A    between atoms: C_27  and  C_28
REMARK                            x       y       z     vdW  Elec       q    Type
REMARK                         _______ _______ _______ _____ _____    ______ ____
ROOT
ATOM      1  C   UNL     1       1.148   2.305  18.818  0.00  0.00    +0.000 C 
ATOM      2  N   UNL     1       2.463   2.852  19.076  0.00  0.00    +0.000 N 
ATOM      3  C   UNL     1       3.527   1.969  19.282  0.00  0.00    +0.000 A 
ATOM      4  O   UNL     1       3.416   0.746  19.319  0.00  0.00    +0.000 OA
ATOM      5  N   UNL     1       4.786   2.512  19.404  0.00  0.00    +0.000 N 
ATOM      6  C   UNL     1       5.132   3.790  19.061  0.00  0.00    +0.000 A 
ATOM      7  O   UNL     1       6.300   4.087  18.833  0.00  0.00    +0.000 OA
ATOM      8  C   UNL     1       4.007   4.662  18.943  0.00  0.00    +0.000 A 
ATOM      9  C   UNL     1       2.719   4.215  18.972  0.00  0.00    +0.000 A 
ATOM     10  N   UNL     1       1.827   5.244  18.751  0.00  0.00    +0.000 NA
ATOM     11  C   UNL     1       2.557   6.351  18.601  0.00  0.00    +0.000 A 
ATOM     12  N   UNL     1       3.922   5.998  18.665  0.00  0.00    +0.000 N 
ATOM     13  H   UNL     1       5.537   1.847  19.454  0.00  0.00    +0.000 HD
ENDROOT
BRANCH  11  14
ATOM     14  C   UNL     1       2.148   7.756  18.128  0.00  0.00    +0.000 C 
BRANCH  14  15
ATOM     15  N   UNL     1       2.054   8.965  18.939  0.00  0.00    +0.000 NA
ATOM     16  C   UNL     1       2.130  10.263  18.308  0.00  0.00    +0.000 C 
ATOM     17  C   UNL     1       0.775  10.819  17.868  0.00  0.00    +0.000 C 
ATOM     18  N   UNL     1      -0.360  10.628  18.813  0.00  0.00    +0.000 N 
ATOM     19  C   UNL     1      -0.229   9.588  19.867  0.00  0.00    +0.000 C 
ATOM     20  C   UNL     1       1.177   9.016  20.098  0.00  0.00    +0.000 C 
BRANCH  18  21
ATOM     21  C   UNL     1      -1.652  10.642  18.200  0.00  0.00    +0.000 A 
ATOM     22  C   UNL     1      -1.907   9.874  17.042  0.00  0.00    +0.000 A 
ATOM     23  C   UNL     1      -3.075  10.034  16.283  0.00  0.00    +0.000 A 
ATOM     24  C   UNL     1      -4.049  10.938  16.684  0.00  0.00    +0.000 A 
ATOM     25  C   UNL     1      -3.898  11.599  17.892  0.00  0.00    +0.000 A 
ATOM     26  C   UNL     1      -2.741  11.422  18.653  0.00  0.00    +0.000 A 
ATOM     27  F   UNL     1      -2.716  12.054  19.837  0.00  0.00    +0.000 F 
ENDBRANCH  18  21
ENDBRANCH  14  15
ENDBRANCH  11  14
BRANCH  12  28
ATOM     28  C   UNL     1       5.044   6.799  18.194  0.00  0.00    +0.000 C 
BRANCH  28  29
ATOM     29  C   UNL     1       5.632   6.354  16.883  0.00  0.00    +0.000 A 
ATOM     30  C   UNL     1       4.867   6.047  15.744  0.00  0.00    +0.000 A 
ATOM     31  C   UNL     1       5.474   5.432  14.651  0.00  0.00    +0.000 A 
ATOM     32  C   UNL     1       6.841   5.163  14.686  0.00  0.00    +0.000 A 
ATOM     33  F   UNL     1       7.409   4.497  13.675  0.00  0.00    +0.000 F 
ATOM     34  C   UNL     1       7.630   5.569  15.759  0.00  0.00    +0.000 A 
ATOM     35  C   UNL     1       7.023   6.178  16.850  0.00  0.00    +0.000 A 
ENDBRANCH  28  29
ENDBRANCH  12  28
TORSDOF 5
ENDMDL
MODEL 8
REMARK VINA RESULT:      -7.5      1.457      2.092
REMARK  Name = 
REMARK  6 active torsions:
REMARK  status: ('A' for Active; 'I' for Inactive)
REMARK    1  A    between atoms: C_1  and  N_2
REMARK    2  A    between atoms: C_11  and  C_12
REMARK    3  A    between atoms: C_12  and  N_13
REMARK    4  A    between atoms: N_16  and  C_17
REMARK    5  A    between atoms: N_26  and  C_27
REMARK    6  A    between atoms: C_27  and  C_28
REMARK                            x       y       z     vdW  Elec       q    Type
REMARK                         _______ _______ _______ _____ _____    ______ ____
ROOT
ATOM      1  C   UNL     1       7.938   6.849  18.286  0.00  0.00    +0.000 C 
ATOM      2  N   UNL     1       6.901   5.981  17.770  0.00  0.00    +0.000 N 
ATOM      3  C   UNL     1       7.187   4.624  17.597  0.00  0.00    +0.000 A 
ATOM      4  O   UNL     1       8.289   4.116  17.798  0.00  0.00    +0.000 OA
ATOM      5  N   UNL     1       6.150   3.801  17.221  0.00  0.00    +0.000 N 
ATOM      6  C   UNL     1       4.824   4.125  17.278  0.00  0.00    +0.000 A 
ATOM      7  O   UNL     1       3.961   3.253  17.300  0.00  0.00    +0.000 OA
ATOM      8  C   UNL     1       4.595   5.532  17.375  0.00  0.00    +0.000 A 
ATOM      9  C   UNL     1       5.598   6.430  17.590  0.00  0.00    +0.000 A 
ATOM     10  N   UNL     1       5.101   7.710  17.728  0.00  0.00    +0.000 NA
ATOM     11  C   UNL     1       3.778   7.620  17.580  0.00  0.00    +0.000 A 
ATOM     12  N   UNL     1       3.438   6.261  17.412  0.00  0.00    +0.000 N 
ATOM     13  H   UNL     1       6.368   2.820  17.199  0.00  0.00    +0.000 HD
ENDROOT
BRANCH  11  14
ATOM     14  C   UNL     1       2.676   8.661  17.836  0.00  0.00    +0.000 C 
BRANCH  14  15
ATOM     15  N   UNL     1       1.425   8.459  18.561  0.00  0.00    +0.000 NA
ATOM     16  C   UNL     1       1.383   8.658  19.992  0.00  0.00    +0.000 C 
ATOM     17  C   UNL     1       1.039  10.090  20.409  0.00  0.00    +0.000 C 
ATOM     18  N   UNL     1      -0.036  10.768  19.632  0.00  0.00    +0.000 N 
ATOM     19  C   UNL     1      -0.389  10.219  18.296  0.00  0.00    +0.000 C 
ATOM     20  C   UNL     1       0.152   8.821  17.961  0.00  0.00    +0.000 C 
BRANCH  18  21
ATOM     21  C   UNL     1       0.030  12.196  19.649  0.00  0.00    +0.000 A 
ATOM     22  C   UNL     1      -0.940  12.952  20.344  0.00  0.00    +0.000 A 
ATOM     23  C   UNL     1      -1.047  14.342  20.199  0.00  0.00    +0.000 A 
ATOM     24  C   UNL     1      -0.156  15.029  19.385  0.00  0.00    +0.000 A 
ATOM     25  C   UNL     1       0.897  14.339  18.806  0.00  0.00    +0.000 A 
ATOM     26  C   UNL     1       1.009  12.957  18.970  0.00  0.00    +0.000 A 
ATOM     27  F   UNL     1       2.096  12.388  18.426  0.00  0.00    +0.000 F 
ENDBRANCH  18  21
ENDBRANCH  14  15
ENDBRANCH  11  14
BRANCH  12  28
ATOM     28  C   UNL     1       2.117   5.673  17.584  0.00  0.00    +0.000 C 
BRANCH  28  29
ATOM     29  C   UNL     1       1.912   4.948  18.886  0.00  0.00    +0.000 A 
ATOM     30  C   UNL     1       2.519   5.325  20.096  0.00  0.00    +0.000 A 
ATOM     31  C   UNL     1       2.452   4.470  21.196  0.00  0.00    +0.000 A 
ATOM     32  C   UNL     1       1.752   3.271  21.091  0.00  0.00    +0.000 A 
ATOM     33  F   UNL     1       1.757   2.410  22.116  0.00  0.00    +0.000 F 
ATOM     34  C   UNL     1       1.048   2.942  19.935  0.00  0.00    +0.000 A 
ATOM     35  C   UNL     1       1.120   3.792  18.839  0.00  0.00    +0.000 A 
ENDBRANCH  28  29
ENDBRANCH  12  28
TORSDOF 5
ENDMDL
MODEL 9
REMARK VINA RESULT:      -7.4      3.515      6.522
REMARK  Name = 
REMARK  6 active torsions:
REMARK  status: ('A' for Active; 'I' for Inactive)
REMARK    1  A    between atoms: C_1  and  N_2
REMARK    2  A    between atoms: C_11  and  C_12
REMARK    3  A    between atoms: C_12  and  N_13
REMARK    4  A    between atoms: N_16  and  C_17
REMARK    5  A    between atoms: N_26  and  C_27
REMARK    6  A    between atoms: C_27  and  C_28
REMARK                            x       y       z     vdW  Elec       q    Type
REMARK                         _______ _______ _______ _____ _____    ______ ____
ROOT
ATOM      1  C   UNL     1       1.792   5.474  20.745  0.00  0.00    +0.000 C 
ATOM      2  N   UNL     1       2.119   6.641  19.954  0.00  0.00    +0.000 N 
ATOM      3  C   UNL     1       2.953   6.485  18.843  0.00  0.00    +0.000 A 
ATOM      4  O   UNL     1       3.485   5.425  18.519  0.00  0.00    +0.000 OA
ATOM      5  N   UNL     1       3.150   7.584  18.039  0.00  0.00    +0.000 N 
ATOM      6  C   UNL     1       2.393   8.722  18.057  0.00  0.00    +0.000 A 
ATOM      7  O   UNL     1       2.370   9.479  17.093  0.00  0.00    +0.000 OA
ATOM      8  C   UNL     1       1.623   8.863  19.252  0.00  0.00    +0.000 A 
ATOM      9  C   UNL     1       1.507   7.868  20.178  0.00  0.00    +0.000 A 
ATOM     10  N   UNL     1       0.641   8.227  21.191  0.00  0.00    +0.000 NA
ATOM     11  C   UNL     1       0.223   9.462  20.911  0.00  0.00    +0.000 A 
ATOM     12  N   UNL     1       0.784   9.856  19.677  0.00  0.00    +0.000 N 
ATOM     13  H   UNL     1       3.676   7.413  17.200  0.00  0.00    +0.000 HD
ENDROOT
BRANCH  11  14
ATOM     14  C   UNL     1      -0.898  10.301  21.547  0.00  0.00    +0.000 C 
BRANCH  14  15
ATOM     15  N   UNL     1      -0.743  11.458  22.422  0.00  0.00    +0.000 NA
ATOM     16  C   UNL     1      -0.324  12.727  21.871  0.00  0.00    +0.000 C 
ATOM     17  C   UNL     1      -1.482  13.615  21.410  0.00  0.00    +0.000 C 
ATOM     18  N   UNL     1      -2.678  13.660  22.296  0.00  0.00    +0.000 N 
ATOM     19  C   UNL     1      -2.856  12.571  23.292  0.00  0.00    +0.000 C 
ATOM     20  C   UNL     1      -1.641  11.666  23.546  0.00  0.00    +0.000 C 
BRANCH  18  21
ATOM     21  C   UNL     1      -3.895  14.015  21.634  0.00  0.00    +0.000 A 
ATOM     22  C   UNL     1      -4.470  13.152  20.676  0.00  0.00    +0.000 A 
ATOM     23  C   UNL     1      -5.523  13.556  19.844  0.00  0.00    +0.000 A 
ATOM     24  C   UNL     1      -6.068  14.827  19.976  0.00  0.00    +0.000 A 
ATOM     25  C   UNL     1      -5.627  15.645  21.003  0.00  0.00    +0.000 A 
ATOM     26  C   UNL     1      -4.590  15.229  21.840  0.00  0.00    +0.000 A 
ATOM     27  F   UNL     1      -4.278  16.062  22.845  0.00  0.00    +0.000 F 
ENDBRANCH  18  21
ENDBRANCH  14  15
ENDBRANCH  11  14
BRANCH  12  28
ATOM     28  C   UNL     1       0.322  10.943  18.826  0.00  0.00    +0.000 C 
BRANCH  28  29
ATOM     29  C   UNL     1      -1.017  10.715  18.179  0.00  0.00    +0.000 A 
ATOM     30  C   UNL     1      -1.309   9.621  17.347  0.00  0.00    +0.000 A 
ATOM     31  C   UNL     1      -2.496   9.608  16.616  0.00  0.00    +0.000 A 
ATOM     32  C   UNL     1      -3.395  10.664  16.748  0.00  0.00    +0.000 A 
ATOM     33  F   UNL     1      -4.493  10.697  15.985  0.00  0.00    +0.000 F 
ATOM     34  C   UNL     1      -3.171  11.695  17.658  0.00  0.00    +0.000 A 
ATOM     35  C   UNL     1      -1.986  11.708  18.382  0.00  0.00    +0.000 A 
ENDBRANCH  28  29
ENDBRANCH  12  28
TORSDOF 5
ENDMDL
