MODEL 1
REMARK VINA RESULT:      -8.2      0.000      0.000
REMARK  Name = 
REMARK  7 active torsions:
REMARK  status: ('A' for Active; 'I' for Inactive)
REMARK    1  A    between atoms: C_1  and  O_2
REMARK    2  A    between atoms: O_2  and  C_3
REMARK    3  A    between atoms: C_3  and  C_5
REMARK    4  A    between atoms: C_6  and  C_7
REMARK    5  A    between atoms: C_17  and  C_18
REMARK    6  A    between atoms: C_19  and  N_20
REMARK    7  A    between atoms: N_20  and  C_21
REMARK                            x       y       z     vdW  Elec       q    Type
REMARK                         _______ _______ _______ _____ _____    ______ ____
ROOT
ATOM      1  C   UNL     1       5.587   5.488  17.783  0.00  0.00    +0.000 A 
ATOM      2  C   UNL     1       4.914   4.732  18.803  0.00  0.00    +0.000 A 
ATOM      3  N   UNL     1       5.643   4.753  19.924  0.00  0.00    +0.000 NA
ATOM      4  O   UNL     1       6.726   5.547  19.679  0.00  0.00    +0.000 OA
ATOM      5  C   UNL     1       6.733   6.005  18.383  0.00  0.00    +0.000 A 
ENDROOT
BRANCH   2   6
ATOM      6  C   UNL     1       3.648   3.981  18.751  0.00  0.00    +0.000 A 
ATOM      7  C   UNL     1       3.596   2.599  19.033  0.00  0.00    +0.000 A 
ATOM      8 CL   UNL     1       4.915   1.720  19.742  0.00  0.00    +0.000 Cl
ATOM      9  C   UNL     1       2.418   1.861  18.845  0.00  0.00    +0.000 A 
ATOM     10  C   UNL     1       1.239   2.496  18.475  0.00  0.00    +0.000 A 
ATOM     11  C   UNL     1       1.237   3.873  18.297  0.00  0.00    +0.000 A 
ATOM     12  C   UNL     1       2.428   4.610  18.412  0.00  0.00    +0.000 A 
ATOM     13 CL   UNL     1       2.274   6.310  18.097  0.00  0.00    +0.000 Cl
ENDBRANCH   2   6
BRANCH   1  14
ATOM     14  C   UNL     1       5.172   5.681  16.412  0.00  0.00    +0.000 C 
ATOM     15  O   UNL     1       4.858   6.772  15.954  0.00  0.00    +0.000 OA
BRANCH  14  17
ATOM     16  C   UNL     1       6.294   3.998  15.203  0.00  0.00    +0.000 C 
ATOM     17  O   UNL     1       5.066   4.501  15.735  0.00  0.00    +0.000 OA
ENDBRANCH  14  17
ENDBRANCH   1  14
BRANCH   5  18
ATOM     18  C   UNL     1       7.756   6.868  17.879  0.00  0.00    +0.000 C 
ATOM     19  C   UNL     1       7.657   8.195  18.056  0.00  0.00    +0.000 C 
BRANCH  19  20
ATOM     20  N   UNL     1       8.506   9.176  17.608  0.00  0.00    +0.000 N 
ATOM     21  H   UNL     1       8.732   9.179  16.620  0.00  0.00    +0.000 HD
BRANCH  20  22
ATOM     22  C   UNL     1       8.958  10.274  18.357  0.00  0.00    +0.000 A 
ATOM     23  C   UNL     1       9.394  10.148  19.682  0.00  0.00    +0.000 A 
ATOM     24  C   UNL     1       9.729  11.265  20.453  0.00  0.00    +0.000 A 
ATOM     25  C   UNL     1       9.626  12.532  19.902  0.00  0.00    +0.000 A 
ATOM     26 CL   UNL     1      10.008  13.913  20.852  0.00  0.00    +0.000 Cl
ATOM     27  C   UNL     1       9.204  12.688  18.584  0.00  0.00    +0.000 A 
ATOM     28  C   UNL     1       8.874  11.563  17.818  0.00  0.00    +0.000 A 
ENDBRANCH  20  22
ENDBRANCH  19  20
ENDBRANCH   5  18
TORSDOF 6
ENDMDL
MODEL 2
REMARK VINA RESULT:      -8.2      1.002      1.992
REMARK  Name = 
REMARK  7 active torsions:
REMARK  status: ('A' for Active; 'I' for Inactive)
REMARK    1  A    between atoms: C_1  and  O_2
REMARK    2  A    between atoms: O_2  and  C_3
REMARK    3  A    between atoms: C_3  and  C_5
REMARK    4  A    between atoms: C_6  and  C_7
REMARK    5  A    between atoms: C_17  and  C_18
REMARK    6  A    between atoms: C_19  and  N_20
REMARK    7  A    between atoms: N_20  and  C_21
REMARK                            x       y       z     vdW  Elec       q    Type
REMARK                         _______ _______ _______ _____ _____    ______ ____
ROOT
ATOM      1  C   UNL     1       5.554   5.998  17.961  0.00  0.00    +0.000 A 
ATOM      2  C   UNL     1       4.976   4.968  18.780  0.00  0.00    +0.000 A 
ATOM      3  N   UNL     1       5.893   4.522  19.645  0.00  0.00    +0.000 NA
ATOM      4  O   UNL     1       7.018   5.272  19.453  0.00  0.00    +0.000 OA
ATOM      5  C   UNL     1       6.855   6.175  18.430  0.00  0.00    +0.000 A 
ENDROOT
BRANCH   2   6
ATOM      6  C   UNL     1       3.626   4.380  18.756  0.00  0.00    +0.000 A 
ATOM      7  C   UNL     1       2.543   4.985  19.429  0.00  0.00    +0.000 A 
ATOM      8 CL   UNL     1       2.606   6.591  20.085  0.00  0.00    +0.000 Cl
ATOM      9  C   UNL     1       1.296   4.349  19.522  0.00  0.00    +0.000 A 
ATOM     10  C   UNL     1       1.065   3.150  18.861  0.00  0.00    +0.000 A 
ATOM     11  C   UNL     1       2.082   2.587  18.100  0.00  0.00    +0.000 A 
ATOM     12  C   UNL     1       3.355   3.178  18.060  0.00  0.00    +0.000 A 
ATOM     13 CL   UNL     1       4.535   2.321  17.120  0.00  0.00    +0.000 Cl
ENDBRANCH   2   6
BRANCH   1  14
ATOM     14  C   UNL     1       4.928   6.713  16.873  0.00  0.00    +0.000 C 
ATOM     15  O   UNL     1       3.876   7.329  16.992  0.00  0.00    +0.000 OA
BRANCH  14  17
ATOM     16  C   UNL     1       5.487   5.207  15.149  0.00  0.00    +0.000 C 
ATOM     17  O   UNL     1       5.583   6.526  15.690  0.00  0.00    +0.000 OA
ENDBRANCH  14  17
ENDBRANCH   1  14
BRANCH   5  18
ATOM     18  C   UNL     1       7.883   7.089  18.040  0.00  0.00    +0.000 C 
ATOM     19  C   UNL     1       7.610   8.400  17.945  0.00  0.00    +0.000 C 
BRANCH  19  20
ATOM     20  N   UNL     1       8.445   9.413  17.545  0.00  0.00    +0.000 N 
ATOM     21  H   UNL     1       8.685   9.456  16.562  0.00  0.00    +0.000 HD
BRANCH  20  22
ATOM     22  C   UNL     1       8.864  10.492  18.340  0.00  0.00    +0.000 A 
ATOM     23  C   UNL     1       8.912  11.805  17.856  0.00  0.00    +0.000 A 
ATOM     24  C   UNL     1       9.442  12.849  18.619  0.00  0.00    +0.000 A 
ATOM     25  C   UNL     1       9.939  12.586  19.886  0.00  0.00    +0.000 A 
ATOM     26 CL   UNL     1      10.620  13.859  20.819  0.00  0.00    +0.000 Cl
ATOM     27  C   UNL     1       9.897  11.292  20.397  0.00  0.00    +0.000 A 
ATOM     28  C   UNL     1       9.360  10.253  19.627  0.00  0.00    +0.000 A 
ENDBRANCH  20  22
ENDBRANCH  19  20
ENDBRANCH   5  18
TORSDOF 6
ENDMDL
MODEL 3
REMARK VINA RESULT:      -7.9      1.199      2.107
REMARK  Name = 
REMARK  7 active torsions:
REMARK  status: ('A' for Active; 'I' for Inactive)
REMARK    1  A    between atoms: C_1  and  O_2
REMARK    2  A    between atoms: O_2  and  C_3
REMARK    3  A    between atoms: C_3  and  C_5
REMARK    4  A    between atoms: C_6  and  C_7
REMARK    5  A    between atoms: C_17  and  C_18
REMARK    6  A    between atoms: C_19  and  N_20
REMARK    7  A    between atoms: N_20  and  C_21
REMARK                            x       y       z     vdW  Elec       q    Type
REMARK                         _______ _______ _______ _____ _____    ______ ____
ROOT
ATOM      1  C   UNL     1       5.135   5.571  18.092  0.00  0.00    +0.000 A 
ATOM      2  C   UNL     1       4.594   4.674  19.074  0.00  0.00    +0.000 A 
ATOM      3  N   UNL     1       5.537   4.383  19.977  0.00  0.00    +0.000 NA
ATOM      4  O   UNL     1       6.644   5.111  19.644  0.00  0.00    +0.000 OA
ATOM      5  C   UNL     1       6.442   5.839  18.496  0.00  0.00    +0.000 A 
ENDROOT
BRANCH   2   6
ATOM      6  C   UNL     1       3.255   4.068  19.175  0.00  0.00    +0.000 A 
ATOM      7  C   UNL     1       2.219   4.681  19.912  0.00  0.00    +0.000 A 
ATOM      8 CL   UNL     1       2.310   6.308  20.512  0.00  0.00    +0.000 Cl
ATOM      9  C   UNL     1       0.993   4.033  20.122  0.00  0.00    +0.000 A 
ATOM     10  C   UNL     1       0.728   2.811  19.518  0.00  0.00    +0.000 A 
ATOM     11  C   UNL     1       1.691   2.237  18.697  0.00  0.00    +0.000 A 
ATOM     12  C   UNL     1       2.949   2.842  18.539  0.00  0.00    +0.000 A 
ATOM     13 CL   UNL     1       4.064   1.971  17.536  0.00  0.00    +0.000 Cl
ENDBRANCH   2   6
BRANCH   1  14
ATOM     14  C   UNL     1       4.474   6.096  16.919  0.00  0.00    +0.000 C 
ATOM     15  O   UNL     1       4.985   6.103  15.807  0.00  0.00    +0.000 OA
BRANCH  14  17
ATOM     16  C   UNL     1       3.355   8.031  17.668  0.00  0.00    +0.000 C 
ATOM     17  O   UNL     1       3.275   6.676  17.221  0.00  0.00    +0.000 OA
ENDBRANCH  14  17
ENDBRANCH   1  14
BRANCH   5  18
ATOM     18  C   UNL     1       7.444   6.696  17.944  0.00  0.00    +0.000 C 
ATOM     19  C   UNL     1       7.251   8.025  17.926  0.00  0.00    +0.000 C 
BRANCH  19  20
ATOM     20  N   UNL     1       8.069   8.994  17.401  0.00  0.00    +0.000 N 
ATOM     21  H   UNL     1       8.159   9.029  16.392  0.00  0.00    +0.000 HD
BRANCH  20  22
ATOM     22  C   UNL     1       8.662  10.044  18.120  0.00  0.00    +0.000 A 
ATOM     23  C   UNL     1       9.238   9.855  19.383  0.00  0.00    +0.000 A 
ATOM     24  C   UNL     1       9.718  10.929  20.138  0.00  0.00    +0.000 A 
ATOM     25  C   UNL     1       9.622  12.216  19.634  0.00  0.00    +0.000 A 
ATOM     26 CL   UNL     1      10.184  13.546  20.568  0.00  0.00    +0.000 Cl
ATOM     27  C   UNL     1       9.063  12.434  18.378  0.00  0.00    +0.000 A 
ATOM     28  C   UNL     1       8.588  11.351  17.627  0.00  0.00    +0.000 A 
ENDBRANCH  20  22
ENDBRANCH  19  20
ENDBRANCH   5  18
TORSDOF 6
ENDMDL
MODEL 4
REMARK VINA RESULT:      -7.7      1.050      1.737
REMARK  Name = 
REMARK  7 active torsions:
REMARK  status: ('A' for Active; 'I' for Inactive)
REMARK    1  A    between atoms: C_1  and  O_2
REMARK    2  A    between atoms: O_2  and  C_3
REMARK    3  A    between atoms: C_3  and  C_5
REMARK    4  A    between atoms: C_6  and  C_7
REMARK    5  A    between atoms: C_17  and  C_18
REMARK    6  A    between atoms: C_19  and  N_20
REMARK    7  A    between atoms: N_20  and  C_21
REMARK                            x       y       z     vdW  Elec       q    Type
REMARK                         _______ _______ _______ _____ _____    ______ ____
ROOT
ATOM      1  C   UNL     1       5.305   5.358  18.037  0.00  0.00    +0.000 A 
ATOM      2  C   UNL     1       4.709   4.534  19.052  0.00  0.00    +0.000 A 
ATOM      3  N   UNL     1       5.578   4.369  20.055  0.00  0.00    +0.000 NA
ATOM      4  O   UNL     1       6.684   5.108  19.750  0.00  0.00    +0.000 OA
ATOM      5  C   UNL     1       6.561   5.718  18.524  0.00  0.00    +0.000 A 
ENDROOT
BRANCH   2   6
ATOM      6  C   UNL     1       3.388   3.885  19.095  0.00  0.00    +0.000 A 
ATOM      7  C   UNL     1       3.135   2.674  18.415  0.00  0.00    +0.000 A 
ATOM      8 CL   UNL     1       4.388   1.689  17.726  0.00  0.00    +0.000 Cl
ATOM      9  C   UNL     1       1.843   2.135  18.342  0.00  0.00    +0.000 A 
ATOM     10  C   UNL     1       0.792   2.728  19.030  0.00  0.00    +0.000 A 
ATOM     11  C   UNL     1       1.035   3.861  19.796  0.00  0.00    +0.000 A 
ATOM     12  C   UNL     1       2.310   4.449  19.817  0.00  0.00    +0.000 A 
ATOM     13 CL   UNL     1       2.438   5.895  20.768  0.00  0.00    +0.000 Cl
ENDBRANCH   2   6
BRANCH   1  14
ATOM     14  C   UNL     1       4.733   5.744  16.767  0.00  0.00    +0.000 C 
ATOM     15  O   UNL     1       4.666   4.991  15.805  0.00  0.00    +0.000 OA
BRANCH  14  17
ATOM     16  C   UNL     1       3.346   7.434  17.648  0.00  0.00    +0.000 C 
ATOM     17  O   UNL     1       4.386   7.064  16.739  0.00  0.00    +0.000 OA
ENDBRANCH  14  17
ENDBRANCH   1  14
BRANCH   5  18
ATOM     18  C   UNL     1       7.579   6.561  17.979  0.00  0.00    +0.000 C 
ATOM     19  C   UNL     1       7.480   7.894  18.108  0.00  0.00    +0.000 C 
BRANCH  19  20
ATOM     20  N   UNL     1       8.325   8.858  17.616  0.00  0.00    +0.000 N 
ATOM     21  H   UNL     1       8.606   8.779  16.646  0.00  0.00    +0.000 HD
BRANCH  20  22
ATOM     22  C   UNL     1       8.704  10.034  18.284  0.00  0.00    +0.000 A 
ATOM     23  C   UNL     1       8.620  11.296  17.683  0.00  0.00    +0.000 A 
ATOM     24  C   UNL     1       9.110  12.443  18.314  0.00  0.00    +0.000 A 
ATOM     25  C   UNL     1       9.700  12.336  19.564  0.00  0.00    +0.000 A 
ATOM     26 CL   UNL     1      10.331  13.736  20.335  0.00  0.00    +0.000 Cl
ATOM     27  C   UNL     1       9.789  11.096  20.190  0.00  0.00    +0.000 A 
ATOM     28  C   UNL     1       9.291   9.953  19.551  0.00  0.00    +0.000 A 
ENDBRANCH  20  22
ENDBRANCH  19  20
ENDBRANCH   5  18
TORSDOF 6
ENDMDL
MODEL 5
REMARK VINA RESULT:      -7.7      3.433     10.417
REMARK  Name = 
REMARK  7 active torsions:
REMARK  status: ('A' for Active; 'I' for Inactive)
REMARK    1  A    between atoms: C_1  and  O_2
REMARK    2  A    between atoms: O_2  and  C_3
REMARK    3  A    between atoms: C_3  and  C_5
REMARK    4  A    between atoms: C_6  and  C_7
REMARK    5  A    between atoms: C_17  and  C_18
REMARK    6  A    between atoms: C_19  and  N_20
REMARK    7  A    between atoms: N_20  and  C_21
REMARK                            x       y       z     vdW  Elec       q    Type
REMARK                         _______ _______ _______ _____ _____    ______ ____
ROOT
ATOM      1  C   UNL     1       9.897  11.973  18.794  0.00  0.00    +0.000 A 
ATOM      2  C   UNL     1       9.450  13.048  17.952  0.00  0.00    +0.000 A 
ATOM      3  N   UNL     1       8.440  12.621  17.186  0.00  0.00    +0.000 NA
ATOM      4  O   UNL     1       8.182  11.331  17.552  0.00  0.00    +0.000 OA
ATOM      5  C   UNL     1       9.055  10.897  18.521  0.00  0.00    +0.000 A 
ENDROOT
BRANCH   2   6
ATOM      6  C   UNL     1       9.951  14.427  17.824  0.00  0.00    +0.000 A 
ATOM      7  C   UNL     1       9.232  15.527  18.341  0.00  0.00    +0.000 A 
ATOM      8 CL   UNL     1       7.876  15.360  19.412  0.00  0.00    +0.000 Cl
ATOM      9  C   UNL     1       9.640  16.846  18.093  0.00  0.00    +0.000 A 
ATOM     10  C   UNL     1      10.826  17.101  17.418  0.00  0.00    +0.000 A 
ATOM     11  C   UNL     1      11.610  16.035  16.994  0.00  0.00    +0.000 A 
ATOM     12  C   UNL     1      11.174  14.713  17.173  0.00  0.00    +0.000 A 
ATOM     13 CL   UNL     1      12.232  13.496  16.532  0.00  0.00    +0.000 Cl
ENDBRANCH   2   6
BRANCH   1  14
ATOM     14  C   UNL     1      10.992  11.990  19.737  0.00  0.00    +0.000 C 
ATOM     15  O   UNL     1      12.166  11.891  19.402  0.00  0.00    +0.000 OA
BRANCH  14  17
ATOM     16  C   UNL     1       9.997  13.257  21.456  0.00  0.00    +0.000 C 
ATOM     17  O   UNL     1      10.558  12.014  21.030  0.00  0.00    +0.000 OA
ENDBRANCH  14  17
ENDBRANCH   1  14
BRANCH   5  18
ATOM     18  C   UNL     1       8.986   9.585  19.085  0.00  0.00    +0.000 C 
ATOM     19  C   UNL     1       8.488   8.571  18.359  0.00  0.00    +0.000 C 
BRANCH  19  20
ATOM     20  N   UNL     1       8.300   7.266  18.741  0.00  0.00    +0.000 N 
ATOM     21  H   UNL     1       8.863   6.922  19.510  0.00  0.00    +0.000 HD
BRANCH  20  22
ATOM     22  C   UNL     1       7.285   6.414  18.277  0.00  0.00    +0.000 A 
ATOM     23  C   UNL     1       6.700   6.566  17.013  0.00  0.00    +0.000 A 
ATOM     24  C   UNL     1       5.611   5.787  16.610  0.00  0.00    +0.000 A 
ATOM     25  C   UNL     1       5.090   4.841  17.479  0.00  0.00    +0.000 A 
ATOM     26 CL   UNL     1       3.733   3.899  17.003  0.00  0.00    +0.000 Cl
ATOM     27  C   UNL     1       5.656   4.661  18.737  0.00  0.00    +0.000 A 
ATOM     28  C   UNL     1       6.749   5.444  19.130  0.00  0.00    +0.000 A 
ENDBRANCH  20  22
ENDBRANCH  19  20
ENDBRANCH   5  18
TORSDOF 6
ENDMDL
MODEL 6
REMARK VINA RESULT:      -7.7      1.668      2.520
REMARK  Name = 
REMARK  7 active torsions:
REMARK  status: ('A' for Active; 'I' for Inactive)
REMARK    1  A    between atoms: C_1  and  O_2
REMARK    2  A    between atoms: O_2  and  C_3
REMARK    3  A    between atoms: C_3  and  C_5
REMARK    4  A    between atoms: C_6  and  C_7
REMARK    5  A    between atoms: C_17  and  C_18
REMARK    6  A    between atoms: C_19  and  N_20
REMARK    7  A    between atoms: N_20  and  C_21
REMARK                            x       y       z     vdW  Elec       q    Type
REMARK                         _______ _______ _______ _____ _____    ______ ____
ROOT
ATOM      1  C   UNL     1       5.100   5.750  18.250  0.00  0.00    +0.000 A 
ATOM      2  C   UNL     1       3.670   5.669  18.147  0.00  0.00    +0.000 A 
ATOM      3  N   UNL     1       3.221   6.681  17.395  0.00  0.00    +0.000 NA
ATOM      4  O   UNL     1       4.318   7.369  16.960  0.00  0.00    +0.000 OA
ATOM      5  C   UNL     1       5.480   6.839  17.468  0.00  0.00    +0.000 A 
ENDROOT
BRANCH   2   6
ATOM      6  C   UNL     1       2.725   4.710  18.746  0.00  0.00    +0.000 A 
ATOM      7  C   UNL     1       2.562   3.409  18.224  0.00  0.00    +0.000 A 
ATOM      8 CL   UNL     1       3.634   2.712  17.050  0.00  0.00    +0.000 Cl
ATOM      9  C   UNL     1       1.563   2.551  18.707  0.00  0.00    +0.000 A 
ATOM     10  C   UNL     1       0.774   2.924  19.787  0.00  0.00    +0.000 A 
ATOM     11  C   UNL     1       0.987   4.158  20.390  0.00  0.00    +0.000 A 
ATOM     12  C   UNL     1       1.935   5.053  19.868  0.00  0.00    +0.000 A 
ATOM     13 CL   UNL     1       2.039   6.577  20.691  0.00  0.00    +0.000 Cl
ENDBRANCH   2   6
BRANCH   1  14
ATOM     14  C   UNL     1       5.979   4.886  19.006  0.00  0.00    +0.000 C 
ATOM     15  O   UNL     1       5.994   3.669  18.879  0.00  0.00    +0.000 OA
BRANCH  14  17
ATOM     16  C   UNL     1       8.115   5.482  19.803  0.00  0.00    +0.000 C 
ATOM     17  O   UNL     1       6.696   5.574  19.942  0.00  0.00    +0.000 OA
ENDBRANCH  14  17
ENDBRANCH   1  14
BRANCH   5  18
ATOM     18  C   UNL     1       6.769   7.370  17.151  0.00  0.00    +0.000 C 
ATOM     19  C   UNL     1       7.235   8.436  17.822  0.00  0.00    +0.000 C 
BRANCH  19  20
ATOM     20  N   UNL     1       8.416   9.109  17.629  0.00  0.00    +0.000 N 
ATOM     21  H   UNL     1       8.979   8.841  16.830  0.00  0.00    +0.000 HD
BRANCH  20  22
ATOM     22  C   UNL     1       8.838  10.244  18.340  0.00  0.00    +0.000 A 
ATOM     23  C   UNL     1       8.894  11.516  17.755  0.00  0.00    +0.000 A 
ATOM     24  C   UNL     1       9.426  12.614  18.437  0.00  0.00    +0.000 A 
ATOM     25  C   UNL     1       9.917  12.448  19.722  0.00  0.00    +0.000 A 
ATOM     26 CL   UNL     1      10.601  13.786  20.557  0.00  0.00    +0.000 Cl
ATOM     27  C   UNL     1       9.867  11.198  20.333  0.00  0.00    +0.000 A 
ATOM     28  C   UNL     1       9.328  10.104  19.643  0.00  0.00    +0.000 A 
ENDBRANCH  20  22
ENDBRANCH  19  20
ENDBRANCH   5  18
TORSDOF 6
ENDMDL
MODEL 7
REMARK VINA RESULT:      -7.7      1.651      2.474
REMARK  Name = 
REMARK  7 active torsions:
REMARK  status: ('A' for Active; 'I' for Inactive)
REMARK    1  A    between atoms: C_1  and  O_2
REMARK    2  A    between atoms: O_2  and  C_3
REMARK    3  A    between atoms: C_3  and  C_5
REMARK    4  A    between atoms: C_6  and  C_7
REMARK    5  A    between atoms: C_17  and  C_18
REMARK    6  A    between atoms: C_19  and  N_20
REMARK    7  A    between atoms: N_20  and  C_21
REMARK                            x       y       z     vdW  Elec       q    Type
REMARK                         _______ _______ _______ _____ _____    ______ ____
ROOT
ATOM      1  C   UNL     1       4.991   5.915  18.215  0.00  0.00    +0.000 A 
ATOM      2  C   UNL     1       3.555   5.861  18.233  0.00  0.00    +0.000 A 
ATOM      3  N   UNL     1       3.063   6.930  17.596  0.00  0.00    +0.000 NA
ATOM      4  O   UNL     1       4.131   7.632  17.116  0.00  0.00    +0.000 OA
ATOM      5  C   UNL     1       5.322   7.052  17.481  0.00  0.00    +0.000 A 
ENDROOT
BRANCH   2   6
ATOM      6  C   UNL     1       2.647   4.875  18.843  0.00  0.00    +0.000 A 
ATOM      7  C   UNL     1       1.938   5.156  20.031  0.00  0.00    +0.000 A 
ATOM      8 CL   UNL     1       1.823   6.747  20.717  0.00  0.00    +0.000 Cl
ATOM      9  C   UNL     1       1.188   4.168  20.683  0.00  0.00    +0.000 A 
ATOM     10  C   UNL     1       1.038   2.908  20.118  0.00  0.00    +0.000 A 
ATOM     11  C   UNL     1       1.637   2.637  18.894  0.00  0.00    +0.000 A 
ATOM     12  C   UNL     1       2.450   3.597  18.269  0.00  0.00    +0.000 A 
ATOM     13 CL   UNL     1       3.178   3.087  16.779  0.00  0.00    +0.000 Cl
ENDBRANCH   2   6
BRANCH   1  14
ATOM     14  C   UNL     1       5.914   4.988  18.828  0.00  0.00    +0.000 C 
ATOM     15  O   UNL     1       6.259   5.061  20.001  0.00  0.00    +0.000 OA
BRANCH  14  17
ATOM     16  C   UNL     1       7.787   4.356  17.545  0.00  0.00    +0.000 C 
ATOM     17  O   UNL     1       6.433   4.105  17.925  0.00  0.00    +0.000 OA
ENDBRANCH  14  17
ENDBRANCH   1  14
BRANCH   5  18
ATOM     18  C   UNL     1       6.589   7.588  17.090  0.00  0.00    +0.000 C 
ATOM     19  C   UNL     1       7.255   8.403  17.923  0.00  0.00    +0.000 C 
BRANCH  19  20
ATOM     20  N   UNL     1       8.449   9.045  17.706  0.00  0.00    +0.000 N 
ATOM     21  H   UNL     1       9.003   8.742  16.914  0.00  0.00    +0.000 HD
BRANCH  20  22
ATOM     22  C   UNL     1       8.896  10.193  18.381  0.00  0.00    +0.000 A 
ATOM     23  C   UNL     1       9.400  10.145  19.687  0.00  0.00    +0.000 A 
ATOM     24  C   UNL     1       9.731  11.308  20.389  0.00  0.00    +0.000 A 
ATOM     25  C   UNL     1       9.555  12.543  19.786  0.00  0.00    +0.000 A 
ATOM     26 CL   UNL     1       9.932  13.980  20.651  0.00  0.00    +0.000 Cl
ATOM     27  C   UNL     1       9.065  12.622  18.485  0.00  0.00    +0.000 A 
ATOM     28  C   UNL     1       8.740  11.451  17.789  0.00  0.00    +0.000 A 
ENDBRANCH  20  22
ENDBRANCH  19  20
ENDBRANCH   5  18
TORSDOF 6
ENDMDL
MODEL 8
REMARK VINA RESULT:      -7.5      1.623      2.595
REMARK  Name = 
REMARK  7 active torsions:
REMARK  status: ('A' for Active; 'I' for Inactive)
REMARK    1  A    between atoms: C_1  and  O_2
REMARK    2  A    between atoms: O_2  and  C_3
REMARK    3  A    between atoms: C_3  and  C_5
REMARK    4  A    between atoms: C_6  and  C_7
REMARK    5  A    between atoms: C_17  and  C_18
REMARK    6  A    between atoms: C_19  and  N_20
REMARK    7  A    between atoms: N_20  and  C_21
REMARK                            x       y       z     vdW  Elec       q    Type
REMARK                         _______ _______ _______ _____ _____    ______ ____
ROOT
ATOM      1  C   UNL     1       5.169   5.961  18.276  0.00  0.00    +0.000 A 
ATOM      2  C   UNL     1       3.735   5.970  18.202  0.00  0.00    +0.000 A 
ATOM      3  N   UNL     1       3.330   7.073  17.563  0.00  0.00    +0.000 NA
ATOM      4  O   UNL     1       4.455   7.739  17.169  0.00  0.00    +0.000 OA
ATOM      5  C   UNL     1       5.595   7.099  17.594  0.00  0.00    +0.000 A 
ENDROOT
BRANCH   2   6
ATOM      6  C   UNL     1       2.749   5.010  18.729  0.00  0.00    +0.000 A 
ATOM      7  C   UNL     1       1.994   5.286  19.889  0.00  0.00    +0.000 A 
ATOM      8 CL   UNL     1       1.922   6.855  20.628  0.00  0.00    +0.000 Cl
ATOM      9  C   UNL     1       1.162   4.315  20.465  0.00  0.00    +0.000 A 
ATOM     10  C   UNL     1       0.980   3.085  19.845  0.00  0.00    +0.000 A 
ATOM     11  C   UNL     1       1.628   2.828  18.644  0.00  0.00    +0.000 A 
ATOM     12  C   UNL     1       2.518   3.766  18.097  0.00  0.00    +0.000 A 
ATOM     13 CL   UNL     1       3.297   3.271  16.627  0.00  0.00    +0.000 Cl
ENDBRANCH   2   6
BRANCH   1  14
ATOM     14  C   UNL     1       6.012   4.980  18.922  0.00  0.00    +0.000 C 
ATOM     15  O   UNL     1       6.549   5.168  20.006  0.00  0.00    +0.000 OA
BRANCH  14  17
ATOM     16  C   UNL     1       6.815   4.159  16.864  0.00  0.00    +0.000 C 
ATOM     17  O   UNL     1       6.222   3.885  18.135  0.00  0.00    +0.000 OA
ENDBRANCH  14  17
ENDBRANCH   1  14
BRANCH   5  18
ATOM     18  C   UNL     1       6.906   7.587  17.297  0.00  0.00    +0.000 C 
ATOM     19  C   UNL     1       7.327   8.741  17.839  0.00  0.00    +0.000 C 
BRANCH  19  20
ATOM     20  N   UNL     1       8.522   9.387  17.637  0.00  0.00    +0.000 N 
ATOM     21  H   UNL     1       9.062   9.121  16.822  0.00  0.00    +0.000 HD
BRANCH  20  22
ATOM     22  C   UNL     1       8.987  10.496  18.362  0.00  0.00    +0.000 A 
ATOM     23  C   UNL     1       9.172  11.752  17.771  0.00  0.00    +0.000 A 
ATOM     24  C   UNL     1       9.746  12.816  18.474  0.00  0.00    +0.000 A 
ATOM     25  C   UNL     1      10.149  12.629  19.787  0.00  0.00    +0.000 A 
ATOM     26 CL   UNL     1      10.883  13.922  20.649  0.00  0.00    +0.000 Cl
ATOM     27  C   UNL     1       9.969  11.394  20.403  0.00  0.00    +0.000 A 
ATOM     28  C   UNL     1       9.389  10.336  19.693  0.00  0.00    +0.000 A 
ENDBRANCH  20  22
ENDBRANCH  19  20
ENDBRANCH   5  18
TORSDOF 6
ENDMDL
MODEL 9
REMARK VINA RESULT:      -7.5      1.084      1.451
REMARK  Name = 
REMARK  7 active torsions:
REMARK  status: ('A' for Active; 'I' for Inactive)
REMARK    1  A    between atoms: C_1  and  O_2
REMARK    2  A    between atoms: O_2  and  C_3
REMARK    3  A    between atoms: C_3  and  C_5
REMARK    4  A    between atoms: C_6  and  C_7
REMARK    5  A    between atoms: C_17  and  C_18
REMARK    6  A    between atoms: C_19  and  N_20
REMARK    7  A    between atoms: N_20  and  C_21
REMARK                            x       y       z     vdW  Elec       q    Type
REMARK                         _______ _______ _______ _____ _____    ______ ____
ROOT
ATOM      1  C   UNL     1       5.504   6.216  17.626  0.00  0.00    +0.000 A 
ATOM      2  C   UNL     1       5.014   5.242  18.562  0.00  0.00    +0.000 A 
ATOM      3  N   UNL     1       5.973   4.959  19.450  0.00  0.00    +0.000 NA
ATOM      4  O   UNL     1       7.037   5.763  19.156  0.00  0.00    +0.000 OA
ATOM      5  C   UNL     1       6.794   6.536  18.045  0.00  0.00    +0.000 A 
ENDROOT
BRANCH   2   6
ATOM      6  C   UNL     1       3.711   4.559  18.629  0.00  0.00    +0.000 A 
ATOM      7  C   UNL     1       3.486   3.328  17.976  0.00  0.00    +0.000 A 
ATOM      8 CL   UNL     1       4.759   2.364  17.295  0.00  0.00    +0.000 Cl
ATOM      9  C   UNL     1       2.207   2.753  17.925  0.00  0.00    +0.000 A 
ATOM     10  C   UNL     1       1.146   3.332  18.609  0.00  0.00    +0.000 A 
ATOM     11  C   UNL     1       1.365   4.486  19.351  0.00  0.00    +0.000 A 
ATOM     12  C   UNL     1       2.624   5.108  19.349  0.00  0.00    +0.000 A 
ATOM     13 CL   UNL     1       2.721   6.575  20.270  0.00  0.00    +0.000 Cl
ENDBRANCH   2   6
BRANCH   1  14
ATOM     14  C   UNL     1       4.812   6.762  16.480  0.00  0.00    +0.000 C 
ATOM     15  O   UNL     1       3.729   7.327  16.558  0.00  0.00    +0.000 OA
BRANCH  14  17
ATOM     16  C   UNL     1       5.448   5.096  14.941  0.00  0.00    +0.000 C 
ATOM     17  O   UNL     1       5.452   6.476  15.309  0.00  0.00    +0.000 OA
ENDBRANCH  14  17
ENDBRANCH   1  14
BRANCH   5  18
ATOM     18  C   UNL     1       7.746   7.474  17.539  0.00  0.00    +0.000 C 
ATOM     19  C   UNL     1       7.989   8.609  18.214  0.00  0.00    +0.000 C 
BRANCH  19  20
ATOM     20  N   UNL     1       8.824   9.641  17.865  0.00  0.00    +0.000 N 
ATOM     21  H   UNL     1       9.173   9.655  16.914  0.00  0.00    +0.000 HD
BRANCH  20  22
ATOM     22  C   UNL     1       9.108  10.768  18.653  0.00  0.00    +0.000 A 
ATOM     23  C   UNL     1       9.206  12.056  18.110  0.00  0.00    +0.000 A 
ATOM     24  C   UNL     1       9.605  13.150  18.884  0.00  0.00    +0.000 A 
ATOM     25  C   UNL     1       9.917  12.963  20.222  0.00  0.00    +0.000 A 
ATOM     26 CL   UNL     1      10.437  14.296  21.174  0.00  0.00    +0.000 Cl
ATOM     27  C   UNL     1       9.820  11.696  20.791  0.00  0.00    +0.000 A 
ATOM     28  C   UNL     1       9.416  10.607  20.008  0.00  0.00    +0.000 A 
ENDBRANCH  20  22
ENDBRANCH  19  20
ENDBRANCH   5  18
TORSDOF 6
ENDMDL
