MODEL 1
REMARK VINA RESULT:      -7.6      0.000      0.000
REMARK  Name = 
REMARK  0 active torsions:
REMARK  status: ('A' for Active; 'I' for Inactive)
REMARK                            x       y       z     vdW  Elec       q    Type
REMARK                         _______ _______ _______ _____ _____    ______ ____
ROOT
ATOM      1  O   UNL     1       3.701   7.317  17.856  0.00  0.00    +0.000 OA
ATOM      2  C   UNL     1       3.780   6.096  17.813  0.00  0.00    +0.000 C 
ATOM      3  C   UNL     1       3.086   5.251  18.821  0.00  0.00    +0.000 C 
ATOM      4  C   UNL     1       3.183   3.912  18.797  0.00  0.00    +0.000 C 
ATOM      5  O   UNL     1       2.577   3.095  19.738  0.00  0.00    +0.000 OA
ATOM      6  C   UNL     1       2.207   3.751  20.951  0.00  0.00    +0.000 C 
ATOM      7 CL   UNL     1       1.229   2.620  21.917  0.00  0.00    +0.000 Cl
ATOM      8  C   UNL     1       1.410   5.015  20.671  0.00  0.00    +0.000 C 
ATOM      9  C   UNL     1       2.268   5.976  19.852  0.00  0.00    +0.000 C 
ATOM     10  C   UNL     1       3.966   3.213  17.737  0.00  0.00    +0.000 C 
ATOM     11  O   UNL     1       4.048   1.992  17.699  0.00  0.00    +0.000 OA
ATOM     12  C   UNL     1       4.664   4.037  16.734  0.00  0.00    +0.000 A 
ATOM     13  C   UNL     1       5.429   3.409  15.741  0.00  0.00    +0.000 A 
ATOM     14  C   UNL     1       6.106   4.175  14.791  0.00  0.00    +0.000 A 
ATOM     15  C   UNL     1       6.019   5.566  14.828  0.00  0.00    +0.000 A 
ATOM     16  C   UNL     1       5.255   6.192  15.815  0.00  0.00    +0.000 A 
ATOM     17  C   UNL     1       4.577   5.425  16.771  0.00  0.00    +0.000 A 
ENDROOT
TORSDOF 0
ENDMDL
MODEL 2
REMARK VINA RESULT:      -7.6      2.622      5.107
REMARK  Name = 
REMARK  0 active torsions:
REMARK  status: ('A' for Active; 'I' for Inactive)
REMARK                            x       y       z     vdW  Elec       q    Type
REMARK                         _______ _______ _______ _____ _____    ______ ____
ROOT
ATOM      1  O   UNL     1       3.089   6.969  18.598  0.00  0.00    +0.000 OA
ATOM      2  C   UNL     1       3.272   5.784  18.349  0.00  0.00    +0.000 C 
ATOM      3  C   UNL     1       4.166   5.367  17.238  0.00  0.00    +0.000 C 
ATOM      4  C   UNL     1       4.358   4.071  16.942  0.00  0.00    +0.000 C 
ATOM      5  O   UNL     1       5.158   3.646  15.894  0.00  0.00    +0.000 OA
ATOM      6  C   UNL     1       5.422   4.639  14.902  0.00  0.00    +0.000 C 
ATOM      7 CL   UNL     1       6.654   3.997  13.789  0.00  0.00    +0.000 Cl
ATOM      8  C   UNL     1       5.920   5.929  15.535  0.00  0.00    +0.000 C 
ATOM      9  C   UNL     1       4.846   6.470  16.477  0.00  0.00    +0.000 C 
ATOM     10  C   UNL     1       3.705   2.993  17.740  0.00  0.00    +0.000 C 
ATOM     11  O   UNL     1       3.885   1.808  17.487  0.00  0.00    +0.000 OA
ATOM     12  C   UNL     1       2.812   3.390  18.843  0.00  0.00    +0.000 A 
ATOM     13  C   UNL     1       2.164   2.399  19.593  0.00  0.00    +0.000 A 
ATOM     14  C   UNL     1       1.305   2.759  20.633  0.00  0.00    +0.000 A 
ATOM     15  C   UNL     1       1.093   4.105  20.927  0.00  0.00    +0.000 A 
ATOM     16  C   UNL     1       1.740   5.093  20.181  0.00  0.00    +0.000 A 
ATOM     17  C   UNL     1       2.601   4.734  19.135  0.00  0.00    +0.000 A 
ENDROOT
TORSDOF 0
ENDMDL
MODEL 3
REMARK VINA RESULT:      -7.3      2.977      5.326
REMARK  Name = 
REMARK  0 active torsions:
REMARK  status: ('A' for Active; 'I' for Inactive)
REMARK                            x       y       z     vdW  Elec       q    Type
REMARK                         _______ _______ _______ _____ _____    ______ ____
ROOT
ATOM      1  O   UNL     1       5.597   5.508  19.780  0.00  0.00    +0.000 OA
ATOM      2  C   UNL     1       4.852   4.943  18.990  0.00  0.00    +0.000 C 
ATOM      3  C   UNL     1       5.292   4.656  17.599  0.00  0.00    +0.000 C 
ATOM      4  C   UNL     1       4.476   4.056  16.717  0.00  0.00    +0.000 C 
ATOM      5  O   UNL     1       4.840   3.802  15.404  0.00  0.00    +0.000 OA
ATOM      6  C   UNL     1       5.942   4.576  14.928  0.00  0.00    +0.000 C 
ATOM      7 CL   UNL     1       6.420   3.939  13.335  0.00  0.00    +0.000 Cl
ATOM      8  C   UNL     1       7.119   4.503  15.888  0.00  0.00    +0.000 C 
ATOM      9  C   UNL     1       6.694   5.063  17.243  0.00  0.00    +0.000 C 
ATOM     10  C   UNL     1       3.103   3.622  17.106  0.00  0.00    +0.000 C 
ATOM     11  O   UNL     1       2.357   3.061  16.313  0.00  0.00    +0.000 OA
ATOM     12  C   UNL     1       2.651   3.904  18.480  0.00  0.00    +0.000 A 
ATOM     13  C   UNL     1       1.356   3.531  18.867  0.00  0.00    +0.000 A 
ATOM     14  C   UNL     1       0.907   3.801  20.161  0.00  0.00    +0.000 A 
ATOM     15  C   UNL     1       1.749   4.440  21.070  0.00  0.00    +0.000 A 
ATOM     16  C   UNL     1       3.040   4.810  20.686  0.00  0.00    +0.000 A 
ATOM     17  C   UNL     1       3.491   4.541  19.387  0.00  0.00    +0.000 A 
ENDROOT
TORSDOF 0
ENDMDL
MODEL 4
REMARK VINA RESULT:      -6.9      2.738      5.529
REMARK  Name = 
REMARK  0 active torsions:
REMARK  status: ('A' for Active; 'I' for Inactive)
REMARK                            x       y       z     vdW  Elec       q    Type
REMARK                         _______ _______ _______ _____ _____    ______ ____
ROOT
ATOM      1  O   UNL     1       4.261   2.226  16.940  0.00  0.00    +0.000 OA
ATOM      2  C   UNL     1       4.030   3.262  17.551  0.00  0.00    +0.000 C 
ATOM      3  C   UNL     1       4.941   4.432  17.441  0.00  0.00    +0.000 C 
ATOM      4  C   UNL     1       4.711   5.565  18.122  0.00  0.00    +0.000 C 
ATOM      5  O   UNL     1       5.554   6.663  18.070  0.00  0.00    +0.000 OA
ATOM      6  C   UNL     1       6.873   6.382  17.600  0.00  0.00    +0.000 C 
ATOM      7 CL   UNL     1       7.718   7.931  17.360  0.00  0.00    +0.000 Cl
ATOM      8  C   UNL     1       6.837   5.606  16.293  0.00  0.00    +0.000 C 
ATOM      9  C   UNL     1       6.119   4.277  16.521  0.00  0.00    +0.000 C 
ATOM     10  C   UNL     1       3.510   5.709  18.997  0.00  0.00    +0.000 C 
ATOM     11  O   UNL     1       3.284   6.745  19.612  0.00  0.00    +0.000 OA
ATOM     12  C   UNL     1       2.600   4.557  19.121  0.00  0.00    +0.000 A 
ATOM     13  C   UNL     1       1.478   4.655  19.955  0.00  0.00    +0.000 A 
ATOM     14  C   UNL     1       0.613   3.568  20.093  0.00  0.00    +0.000 A 
ATOM     15  C   UNL     1       0.863   2.386  19.398  0.00  0.00    +0.000 A 
ATOM     16  C   UNL     1       1.980   2.289  18.565  0.00  0.00    +0.000 A 
ATOM     17  C   UNL     1       2.851   3.378  18.427  0.00  0.00    +0.000 A 
ENDROOT
TORSDOF 0
ENDMDL
MODEL 5
REMARK VINA RESULT:      -6.6      1.421      2.974
REMARK  Name = 
REMARK  0 active torsions:
REMARK  status: ('A' for Active; 'I' for Inactive)
REMARK                            x       y       z     vdW  Elec       q    Type
REMARK                         _______ _______ _______ _____ _____    ______ ____
ROOT
ATOM      1  O   UNL     1       3.757   2.346  17.909  0.00  0.00    +0.000 OA
ATOM      2  C   UNL     1       3.893   3.557  17.781  0.00  0.00    +0.000 C 
ATOM      3  C   UNL     1       3.229   4.502  18.718  0.00  0.00    +0.000 C 
ATOM      4  C   UNL     1       3.353   5.831  18.576  0.00  0.00    +0.000 C 
ATOM      5  O   UNL     1       2.724   6.741  19.409  0.00  0.00    +0.000 OA
ATOM      6  C   UNL     1       1.621   6.214  20.147  0.00  0.00    +0.000 C 
ATOM      7 CL   UNL     1       1.110   7.439  21.334  0.00  0.00    +0.000 Cl
ATOM      8  C   UNL     1       2.004   4.929  20.864  0.00  0.00    +0.000 C 
ATOM      9  C   UNL     1       2.428   3.888  19.831  0.00  0.00    +0.000 C 
ATOM     10  C   UNL     1       4.190   6.416  17.488  0.00  0.00    +0.000 C 
ATOM     11  O   UNL     1       4.320   7.628  17.359  0.00  0.00    +0.000 OA
ATOM     12  C   UNL     1       4.850   5.493  16.548  0.00  0.00    +0.000 A 
ATOM     13  C   UNL     1       5.622   6.015  15.501  0.00  0.00    +0.000 A 
ATOM     14  C   UNL     1       6.244   5.155  14.595  0.00  0.00    +0.000 A 
ATOM     15  C   UNL     1       6.100   3.775  14.733  0.00  0.00    +0.000 A 
ATOM     16  C   UNL     1       5.333   3.254  15.778  0.00  0.00    +0.000 A 
ATOM     17  C   UNL     1       4.706   4.117  16.687  0.00  0.00    +0.000 A 
ENDROOT
TORSDOF 0
ENDMDL
MODEL 6
REMARK VINA RESULT:      -6.6      1.592      1.592
REMARK  Name = 
REMARK  0 active torsions:
REMARK  status: ('A' for Active; 'I' for Inactive)
REMARK                            x       y       z     vdW  Elec       q    Type
REMARK                         _______ _______ _______ _____ _____    ______ ____
ROOT
ATOM      1  O   UNL     1       2.911   7.292  18.225  0.00  0.00    +0.000 OA
ATOM      2  C   UNL     1       3.489   6.249  18.504  0.00  0.00    +0.000 C 
ATOM      3  C   UNL     1       2.852   5.238  19.389  0.00  0.00    +0.000 C 
ATOM      4  C   UNL     1       3.483   4.101  19.720  0.00  0.00    +0.000 C 
ATOM      5  O   UNL     1       2.935   3.151  20.567  0.00  0.00    +0.000 OA
ATOM      6  C   UNL     1       1.870   3.628  21.390  0.00  0.00    +0.000 C 
ATOM      7 CL   UNL     1       1.134   2.229  22.210  0.00  0.00    +0.000 Cl
ATOM      8  C   UNL     1       0.820   4.354  20.564  0.00  0.00    +0.000 C 
ATOM      9  C   UNL     1       1.467   5.556  19.879  0.00  0.00    +0.000 C 
ATOM     10  C   UNL     1       4.841   3.788  19.186  0.00  0.00    +0.000 C 
ATOM     11  O   UNL     1       5.419   2.746  19.470  0.00  0.00    +0.000 OA
ATOM     12  C   UNL     1       5.488   4.782  18.311  0.00  0.00    +0.000 A 
ATOM     13  C   UNL     1       6.774   4.528  17.815  0.00  0.00    +0.000 A 
ATOM     14  C   UNL     1       7.405   5.464  16.995  0.00  0.00    +0.000 A 
ATOM     15  C   UNL     1       6.755   6.653  16.667  0.00  0.00    +0.000 A 
ATOM     16  C   UNL     1       5.473   6.906  17.159  0.00  0.00    +0.000 A 
ATOM     17  C   UNL     1       4.838   5.968  17.984  0.00  0.00    +0.000 A 
ENDROOT
TORSDOF 0
ENDMDL
MODEL 7
REMARK VINA RESULT:      -6.5      2.694      3.826
REMARK  Name = 
REMARK  0 active torsions:
REMARK  status: ('A' for Active; 'I' for Inactive)
REMARK                            x       y       z     vdW  Elec       q    Type
REMARK                         _______ _______ _______ _____ _____    ______ ____
ROOT
ATOM      1  O   UNL     1       3.168   8.179  17.005  0.00  0.00    +0.000 OA
ATOM      2  C   UNL     1       2.937   7.440  17.955  0.00  0.00    +0.000 C 
ATOM      3  C   UNL     1       2.095   7.898  19.091  0.00  0.00    +0.000 C 
ATOM      4  C   UNL     1       1.853   7.104  20.146  0.00  0.00    +0.000 C 
ATOM      5  O   UNL     1       1.100   7.508  21.237  0.00  0.00    +0.000 OA
ATOM      6  C   UNL     1       0.955   8.922  21.374  0.00  0.00    +0.000 C 
ATOM      7 CL   UNL     1      -0.235   9.236  22.661  0.00  0.00    +0.000 Cl
ATOM      8  C   UNL     1       0.489   9.555  20.073  0.00  0.00    +0.000 C 
ATOM      9  C   UNL     1       1.526   9.285  18.986  0.00  0.00    +0.000 C 
ATOM     10  C   UNL     1       2.393   5.715  20.208  0.00  0.00    +0.000 C 
ATOM     11  O   UNL     1       2.165   4.979  21.160  0.00  0.00    +0.000 OA
ATOM     12  C   UNL     1       3.233   5.248  19.091  0.00  0.00    +0.000 A 
ATOM     13  C   UNL     1       3.776   3.956  19.134  0.00  0.00    +0.000 A 
ATOM     14  C   UNL     1       4.584   3.503  18.090  0.00  0.00    +0.000 A 
ATOM     15  C   UNL     1       4.850   4.334  17.003  0.00  0.00    +0.000 A 
ATOM     16  C   UNL     1       4.307   5.620  16.959  0.00  0.00    +0.000 A 
ATOM     17  C   UNL     1       3.498   6.079  18.007  0.00  0.00    +0.000 A 
ENDROOT
TORSDOF 0
ENDMDL
MODEL 8
REMARK VINA RESULT:      -6.4      2.925      5.857
REMARK  Name = 
REMARK  0 active torsions:
REMARK  status: ('A' for Active; 'I' for Inactive)
REMARK                            x       y       z     vdW  Elec       q    Type
REMARK                         _______ _______ _______ _____ _____    ______ ____
ROOT
ATOM      1  O   UNL     1       3.678   2.377  17.619  0.00  0.00    +0.000 OA
ATOM      2  C   UNL     1       3.900   3.577  17.505  0.00  0.00    +0.000 C 
ATOM      3  C   UNL     1       4.839   4.085  16.471  0.00  0.00    +0.000 C 
ATOM      4  C   UNL     1       5.106   5.395  16.351  0.00  0.00    +0.000 C 
ATOM      5  O   UNL     1       6.000   5.901  15.422  0.00  0.00    +0.000 OA
ATOM      6  C   UNL     1       6.921   4.946  14.895  0.00  0.00    +0.000 C 
ATOM      7 CL   UNL     1       7.805   5.709  13.551  0.00  0.00    +0.000 Cl
ATOM      8  C   UNL     1       6.200   3.702  14.400  0.00  0.00    +0.000 C 
ATOM      9  C   UNL     1       5.459   3.056  15.568  0.00  0.00    +0.000 C 
ATOM     10  C   UNL     1       4.445   6.401  17.232  0.00  0.00    +0.000 C 
ATOM     11  O   UNL     1       4.671   7.600  17.121  0.00  0.00    +0.000 OA
ATOM     12  C   UNL     1       3.514   5.913  18.266  0.00  0.00    +0.000 A 
ATOM     13  C   UNL     1       2.898   6.833  19.125  0.00  0.00    +0.000 A 
ATOM     14  C   UNL     1       2.024   6.387  20.117  0.00  0.00    +0.000 A 
ATOM     15  C   UNL     1       1.761   5.024  20.251  0.00  0.00    +0.000 A 
ATOM     16  C   UNL     1       2.373   4.107  19.394  0.00  0.00    +0.000 A 
ATOM     17  C   UNL     1       3.253   4.553  18.399  0.00  0.00    +0.000 A 
ENDROOT
TORSDOF 0
ENDMDL
MODEL 9
REMARK VINA RESULT:      -6.4      2.815      5.715
REMARK  Name = 
REMARK  0 active torsions:
REMARK  status: ('A' for Active; 'I' for Inactive)
REMARK                            x       y       z     vdW  Elec       q    Type
REMARK                         _______ _______ _______ _____ _____    ______ ____
ROOT
ATOM      1  O   UNL     1       2.158   5.060  21.142  0.00  0.00    +0.000 OA
ATOM      2  C   UNL     1       2.356   5.802  20.188  0.00  0.00    +0.000 C 
ATOM      3  C   UNL     1       3.170   5.351  19.028  0.00  0.00    +0.000 C 
ATOM      4  C   UNL     1       3.411   6.162  17.986  0.00  0.00    +0.000 C 
ATOM      5  O   UNL     1       4.191   5.789  16.903  0.00  0.00    +0.000 OA
ATOM      6  C   UNL     1       5.056   4.678  17.144  0.00  0.00    +0.000 C 
ATOM      7 CL   UNL     1       5.777   4.190  15.591  0.00  0.00    +0.000 Cl
ATOM      8  C   UNL     1       4.294   3.510  17.749  0.00  0.00    +0.000 C 
ATOM      9  C   UNL     1       3.693   3.944  19.084  0.00  0.00    +0.000 C 
ATOM     10  C   UNL     1       2.845   7.542  17.933  0.00  0.00    +0.000 C 
ATOM     11  O   UNL     1       3.048   8.284  16.980  0.00  0.00    +0.000 OA
ATOM     12  C   UNL     1       2.040   8.005  19.078  0.00  0.00    +0.000 A 
ATOM     13  C   UNL     1       1.517   9.305  19.068  0.00  0.00    +0.000 A 
ATOM     14  C   UNL     1       0.762   9.763  20.149  0.00  0.00    +0.000 A 
ATOM     15  C   UNL     1       0.527   8.925  21.239  0.00  0.00    +0.000 A 
ATOM     16  C   UNL     1       1.047   7.629  21.248  0.00  0.00    +0.000 A 
ATOM     17  C   UNL     1       1.806   7.168  20.164  0.00  0.00    +0.000 A 
ENDROOT
TORSDOF 0
ENDMDL
