MODEL 1
REMARK VINA RESULT:      -8.1      0.000      0.000
REMARK  Name = 
REMARK  7 active torsions:
REMARK  status: ('A' for Active; 'I' for Inactive)
REMARK    1  A    between atoms: C_1  and  O_2
REMARK    2  A    between atoms: O_2  and  C_3
REMARK    3  A    between atoms: C_7  and  C_8
REMARK    4  A    between atoms: C_17  and  C_18
REMARK    5  A    between atoms: N_19  and  C_20
REMARK    6  A    between atoms: C_20  and  C_21
REMARK    7  A    between atoms: C_21  and  N_22
REMARK                            x       y       z     vdW  Elec       q    Type
REMARK                         _______ _______ _______ _____ _____    ______ ____
ROOT
ATOM      1  C   UNL     1       4.766   4.392  17.228  0.00  0.00    +0.000 C 
ATOM      2  C   UNL     1       5.555   4.419  15.937  0.00  0.00    +0.000 A 
ATOM      3  C   UNL     1       5.092   3.844  14.749  0.00  0.00    +0.000 A 
ATOM      4  C   UNL     1       5.847   3.980  13.588  0.00  0.00    +0.000 A 
ATOM      5 CL   UNL     1       5.296   3.252  12.130  0.00  0.00    +0.000 Cl
ATOM      6  C   UNL     1       7.039   4.705  13.593  0.00  0.00    +0.000 A 
ATOM      7  C   UNL     1       7.524   5.230  14.794  0.00  0.00    +0.000 A 
ATOM      8  C   UNL     1       6.812   5.049  15.979  0.00  0.00    +0.000 A 
ATOM      9  N   UNL     1       7.323   5.528  17.192  0.00  0.00    +0.000 NA
ATOM     10  C   UNL     1       6.790   5.045  18.294  0.00  0.00    +0.000 C 
ATOM     11  C   UNL     1       7.261   5.681  19.578  0.00  0.00    +0.000 C 
ATOM     12  N   UNL     1       5.748   4.118  18.285  0.00  0.00    +0.000 N 
ENDROOT
BRANCH   1  17
ATOM     13  C   UNL     1       2.574   6.892  19.185  0.00  0.00    +0.000 A 
ATOM     14  C   UNL     1       2.686   8.047  18.416  0.00  0.00    +0.000 A 
ATOM     15  C   UNL     1       3.470   8.049  17.267  0.00  0.00    +0.000 A 
ATOM     16  C   UNL     1       4.125   6.884  16.862  0.00  0.00    +0.000 A 
ATOM     17  C   UNL     1       4.004   5.691  17.595  0.00  0.00    +0.000 A 
ATOM     18  C   UNL     1       3.220   5.724  18.770  0.00  0.00    +0.000 A 
BRANCH  13  20
ATOM     19  C   UNL     1       1.436   8.320  20.692  0.00  0.00    +0.000 C 
ATOM     20  O   UNL     1       1.774   6.998  20.290  0.00  0.00    +0.000 OA
ENDBRANCH  13  20
ENDBRANCH   1  17
BRANCH  12  21
ATOM     21  C   UNL     1       5.399   3.218  19.393  0.00  0.00    +0.000 C 
BRANCH  21  22
ATOM     22  C   UNL     1       4.442   2.006  19.069  0.00  0.00    +0.000 C 
BRANCH  22  23
ATOM     23  N   UNL     1       3.037   2.078  19.530  0.00  0.00    +0.000 NA
ATOM     24  C   UNL     1       2.870   3.036  20.633  0.00  0.00    +0.000 C 
ATOM     25  C   UNL     1       1.448   2.981  21.193  0.00  0.00    +0.000 C 
ATOM     26  C   UNL     1       0.395   3.235  20.124  0.00  0.00    +0.000 C 
ATOM     27  C   UNL     1       0.655   2.395  18.877  0.00  0.00    +0.000 C 
ATOM     28  C   UNL     1       2.122   2.470  18.430  0.00  0.00    +0.000 C 
ENDBRANCH  22  23
ENDBRANCH  21  22
ENDBRANCH  12  21
TORSDOF 5
ENDMDL
MODEL 2
REMARK VINA RESULT:      -6.9      5.398      8.271
REMARK  Name = 
REMARK  7 active torsions:
REMARK  status: ('A' for Active; 'I' for Inactive)
REMARK    1  A    between atoms: C_1  and  O_2
REMARK    2  A    between atoms: O_2  and  C_3
REMARK    3  A    between atoms: C_7  and  C_8
REMARK    4  A    between atoms: C_17  and  C_18
REMARK    5  A    between atoms: N_19  and  C_20
REMARK    6  A    between atoms: C_20  and  C_21
REMARK    7  A    between atoms: C_21  and  N_22
REMARK                            x       y       z     vdW  Elec       q    Type
REMARK                         _______ _______ _______ _____ _____    ______ ____
ROOT
ATOM      1  C   UNL     1       0.870  10.783  18.723  0.00  0.00    +0.000 C 
ATOM      2  C   UNL     1       1.407  12.115  19.196  0.00  0.00    +0.000 A 
ATOM      3  C   UNL     1       2.059  13.018  18.349  0.00  0.00    +0.000 A 
ATOM      4  C   UNL     1       2.454  14.255  18.848  0.00  0.00    +0.000 A 
ATOM      5 CL   UNL     1       3.282  15.359  17.819  0.00  0.00    +0.000 Cl
ATOM      6  C   UNL     1       2.182  14.612  20.169  0.00  0.00    +0.000 A 
ATOM      7  C   UNL     1       1.580  13.685  21.026  0.00  0.00    +0.000 A 
ATOM      8  C   UNL     1       1.234  12.418  20.559  0.00  0.00    +0.000 A 
ATOM      9  N   UNL     1       0.679  11.471  21.428  0.00  0.00    +0.000 NA
ATOM     10  C   UNL     1       0.688  10.218  21.026  0.00  0.00    +0.000 C 
ATOM     11  C   UNL     1      -0.040   9.243  21.919  0.00  0.00    +0.000 C 
ATOM     12  N   UNL     1       1.195   9.826  19.788  0.00  0.00    +0.000 N 
ENDROOT
BRANCH   1  17
ATOM     13  C   UNL     1      -2.882  11.681  18.797  0.00  0.00    +0.000 A 
ATOM     14  C   UNL     1      -3.426  10.746  17.922  0.00  0.00    +0.000 A 
ATOM     15  C   UNL     1      -2.604   9.821  17.287  0.00  0.00    +0.000 A 
ATOM     16  C   UNL     1      -1.232   9.806  17.548  0.00  0.00    +0.000 A 
ATOM     17  C   UNL     1      -0.655  10.712  18.454  0.00  0.00    +0.000 A 
ATOM     18  C   UNL     1      -1.510  11.655  19.067  0.00  0.00    +0.000 A 
BRANCH  13  20
ATOM     19  C   UNL     1      -5.136  12.108  19.385  0.00  0.00    +0.000 C 
ATOM     20  O   UNL     1      -3.780  12.539  19.372  0.00  0.00    +0.000 OA
ENDBRANCH  13  20
ENDBRANCH   1  17
BRANCH  12  21
ATOM     21  C   UNL     1       1.644   8.470  19.442  0.00  0.00    +0.000 C 
BRANCH  21  22
ATOM     22  C   UNL     1       2.424   8.289  18.082  0.00  0.00    +0.000 C 
BRANCH  22  23
ATOM     23  N   UNL     1       2.846   6.924  17.692  0.00  0.00    +0.000 NA
ATOM     24  C   UNL     1       4.274   6.868  17.349  0.00  0.00    +0.000 C 
ATOM     25  C   UNL     1       4.651   5.490  16.803  0.00  0.00    +0.000 C 
ATOM     26  C   UNL     1       4.308   4.370  17.775  0.00  0.00    +0.000 C 
ATOM     27  C   UNL     1       2.885   4.512  18.308  0.00  0.00    +0.000 C 
ATOM     28  C   UNL     1       2.587   5.944  18.775  0.00  0.00    +0.000 C 
ENDBRANCH  22  23
ENDBRANCH  21  22
ENDBRANCH  12  21
TORSDOF 5
ENDMDL
MODEL 3
REMARK VINA RESULT:      -6.9      5.330      8.251
REMARK  Name = 
REMARK  7 active torsions:
REMARK  status: ('A' for Active; 'I' for Inactive)
REMARK    1  A    between atoms: C_1  and  O_2
REMARK    2  A    between atoms: O_2  and  C_3
REMARK    3  A    between atoms: C_7  and  C_8
REMARK    4  A    between atoms: C_17  and  C_18
REMARK    5  A    between atoms: N_19  and  C_20
REMARK    6  A    between atoms: C_20  and  C_21
REMARK    7  A    between atoms: C_21  and  N_22
REMARK                            x       y       z     vdW  Elec       q    Type
REMARK                         _______ _______ _______ _____ _____    ______ ____
ROOT
ATOM      1  C   UNL     1       0.961  10.942  18.834  0.00  0.00    +0.000 C 
ATOM      2  C   UNL     1       1.669  12.214  19.244  0.00  0.00    +0.000 A 
ATOM      3  C   UNL     1       2.444  12.973  18.362  0.00  0.00    +0.000 A 
ATOM      4  C   UNL     1       2.998  14.172  18.801  0.00  0.00    +0.000 A 
ATOM      5 CL   UNL     1       3.975  15.097  17.729  0.00  0.00    +0.000 Cl
ATOM      6  C   UNL     1       2.765  14.633  20.097  0.00  0.00    +0.000 A 
ATOM      7  C   UNL     1       2.036  13.843  20.992  0.00  0.00    +0.000 A 
ATOM      8  C   UNL     1       1.527  12.610  20.587  0.00  0.00    +0.000 A 
ATOM      9  N   UNL     1       0.842  11.794  21.496  0.00  0.00    +0.000 NA
ATOM     10  C   UNL     1       0.685  10.531  21.160  0.00  0.00    +0.000 C 
ATOM     11  C   UNL     1      -0.175   9.713  22.091  0.00  0.00    +0.000 C 
ATOM     12  N   UNL     1       1.146  10.009  19.953  0.00  0.00    +0.000 N 
ENDROOT
BRANCH   1  17
ATOM     13  C   UNL     1      -2.515  10.254  17.309  0.00  0.00    +0.000 A 
ATOM     14  C   UNL     1      -3.332  11.113  18.038  0.00  0.00    +0.000 A 
ATOM     15  C   UNL     1      -2.788  11.918  19.034  0.00  0.00    +0.000 A 
ATOM     16  C   UNL     1      -1.415  11.890  19.287  0.00  0.00    +0.000 A 
ATOM     17  C   UNL     1      -0.556  11.061  18.545  0.00  0.00    +0.000 A 
ATOM     18  C   UNL     1      -1.139  10.238  17.555  0.00  0.00    +0.000 A 
BRANCH  13  20
ATOM     19  C   UNL     1      -3.025   9.981  15.013  0.00  0.00    +0.000 C 
ATOM     20  O   UNL     1      -3.151   9.512  16.350  0.00  0.00    +0.000 OA
ENDBRANCH  13  20
ENDBRANCH   1  17
BRANCH  12  21
ATOM     21  C   UNL     1       1.411   8.589  19.685  0.00  0.00    +0.000 C 
BRANCH  21  22
ATOM     22  C   UNL     1       2.219   8.235  18.376  0.00  0.00    +0.000 C 
BRANCH  22  23
ATOM     23  N   UNL     1       3.048   7.008  18.373  0.00  0.00    +0.000 NA
ATOM     24  C   UNL     1       2.237   5.798  18.185  0.00  0.00    +0.000 C 
ATOM     25  C   UNL     1       3.091   4.538  18.339  0.00  0.00    +0.000 C 
ATOM     26  C   UNL     1       4.274   4.521  17.382  0.00  0.00    +0.000 C 
ATOM     27  C   UNL     1       5.028   5.848  17.407  0.00  0.00    +0.000 C 
ATOM     28  C   UNL     1       4.078   7.051  17.306  0.00  0.00    +0.000 C 
ENDBRANCH  22  23
ENDBRANCH  21  22
ENDBRANCH  12  21
TORSDOF 5
ENDMDL
MODEL 4
REMARK VINA RESULT:      -6.9      5.254      7.825
REMARK  Name = 
REMARK  7 active torsions:
REMARK  status: ('A' for Active; 'I' for Inactive)
REMARK    1  A    between atoms: C_1  and  O_2
REMARK    2  A    between atoms: O_2  and  C_3
REMARK    3  A    between atoms: C_7  and  C_8
REMARK    4  A    between atoms: C_17  and  C_18
REMARK    5  A    between atoms: N_19  and  C_20
REMARK    6  A    between atoms: C_20  and  C_21
REMARK    7  A    between atoms: C_21  and  N_22
REMARK                            x       y       z     vdW  Elec       q    Type
REMARK                         _______ _______ _______ _____ _____    ______ ____
ROOT
ATOM      1  C   UNL     1       0.840  10.638  18.402  0.00  0.00    +0.000 C 
ATOM      2  C   UNL     1       1.454  11.901  18.965  0.00  0.00    +0.000 A 
ATOM      3  C   UNL     1       2.054  12.879  18.165  0.00  0.00    +0.000 A 
ATOM      4  C   UNL     1       2.527  14.046  18.757  0.00  0.00    +0.000 A 
ATOM      5 CL   UNL     1       3.290  15.241  17.783  0.00  0.00    +0.000 Cl
ATOM      6  C   UNL     1       2.383  14.260  20.128  0.00  0.00    +0.000 A 
ATOM      7  C   UNL     1       1.833  13.255  20.931  0.00  0.00    +0.000 A 
ATOM      8  C   UNL     1       1.411  12.054  20.363  0.00  0.00    +0.000 A 
ATOM      9  N   UNL     1       0.910  11.026  21.172  0.00  0.00    +0.000 NA
ATOM     10  C   UNL     1       0.847   9.825  20.637  0.00  0.00    +0.000 C 
ATOM     11  C   UNL     1       0.175   8.772  21.481  0.00  0.00    +0.000 C 
ATOM     12  N   UNL     1       1.232   9.564  19.322  0.00  0.00    +0.000 N 
ENDROOT
BRANCH   1  17
ATOM     13  C   UNL     1      -2.849  11.715  18.742  0.00  0.00    +0.000 A 
ATOM     14  C   UNL     1      -3.507  10.762  17.971  0.00  0.00    +0.000 A 
ATOM     15  C   UNL     1      -2.783   9.767  17.321  0.00  0.00    +0.000 A 
ATOM     16  C   UNL     1      -1.396   9.701  17.465  0.00  0.00    +0.000 A 
ATOM     17  C   UNL     1      -0.704  10.626  18.267  0.00  0.00    +0.000 A 
ATOM     18  C   UNL     1      -1.461  11.638  18.896  0.00  0.00    +0.000 A 
BRANCH  13  20
ATOM     19  C   UNL     1      -3.529  12.764  20.754  0.00  0.00    +0.000 C 
ATOM     20  O   UNL     1      -3.656  12.644  19.342  0.00  0.00    +0.000 OA
ENDBRANCH  13  20
ENDBRANCH   1  17
BRANCH  12  21
ATOM     21  C   UNL     1       1.610   8.247  18.792  0.00  0.00    +0.000 C 
BRANCH  21  22
ATOM     22  C   UNL     1       2.453   7.300  19.732  0.00  0.00    +0.000 C 
BRANCH  22  23
ATOM     23  N   UNL     1       2.378   5.839  19.506  0.00  0.00    +0.000 NA
ATOM     24  C   UNL     1       1.435   5.189  20.428  0.00  0.00    +0.000 C 
ATOM     25  C   UNL     1       1.488   3.668  20.281  0.00  0.00    +0.000 C 
ATOM     26  C   UNL     1       1.211   3.215  18.854  0.00  0.00    +0.000 C 
ATOM     27  C   UNL     1       2.035   4.014  17.848  0.00  0.00    +0.000 C 
ATOM     28  C   UNL     1       1.963   5.524  18.117  0.00  0.00    +0.000 C 
ENDBRANCH  22  23
ENDBRANCH  21  22
ENDBRANCH  12  21
TORSDOF 5
ENDMDL
MODEL 5
REMARK VINA RESULT:      -6.8      5.407      8.222
REMARK  Name = 
REMARK  7 active torsions:
REMARK  status: ('A' for Active; 'I' for Inactive)
REMARK    1  A    between atoms: C_1  and  O_2
REMARK    2  A    between atoms: O_2  and  C_3
REMARK    3  A    between atoms: C_7  and  C_8
REMARK    4  A    between atoms: C_17  and  C_18
REMARK    5  A    between atoms: N_19  and  C_20
REMARK    6  A    between atoms: C_20  and  C_21
REMARK    7  A    between atoms: C_21  and  N_22
REMARK                            x       y       z     vdW  Elec       q    Type
REMARK                         _______ _______ _______ _____ _____    ______ ____
ROOT
ATOM      1  C   UNL     1       0.816  10.932  19.224  0.00  0.00    +0.000 C 
ATOM      2  C   UNL     1       1.559  12.222  19.492  0.00  0.00    +0.000 A 
ATOM      3  C   UNL     1       2.431  12.805  18.568  0.00  0.00    +0.000 A 
ATOM      4  C   UNL     1       3.015  14.034  18.864  0.00  0.00    +0.000 A 
ATOM      5 CL   UNL     1       4.110  14.743  17.742  0.00  0.00    +0.000 Cl
ATOM      6  C   UNL     1       2.717  14.697  20.055  0.00  0.00    +0.000 A 
ATOM      7  C   UNL     1       1.889  14.083  20.999  0.00  0.00    +0.000 A 
ATOM      8  C   UNL     1       1.345  12.825  20.745  0.00  0.00    +0.000 A 
ATOM      9  N   UNL     1       0.558  12.186  21.712  0.00  0.00    +0.000 NA
ATOM     10  C   UNL     1       0.359  10.894  21.558  0.00  0.00    +0.000 C 
ATOM     11  C   UNL     1      -0.604  10.263  22.533  0.00  0.00    +0.000 C 
ATOM     12  N   UNL     1       0.875  10.174  20.480  0.00  0.00    +0.000 N 
ENDROOT
BRANCH   1  17
ATOM     13  C   UNL     1      -2.530  10.266  17.423  0.00  0.00    +0.000 A 
ATOM     14  C   UNL     1      -3.392  11.150  18.065  0.00  0.00    +0.000 A 
ATOM     15  C   UNL     1      -2.921  11.965  19.090  0.00  0.00    +0.000 A 
ATOM     16  C   UNL     1      -1.575  11.922  19.458  0.00  0.00    +0.000 A 
ATOM     17  C   UNL     1      -0.670  11.068  18.806  0.00  0.00    +0.000 A 
ATOM     18  C   UNL     1      -1.180  10.235  17.785  0.00  0.00    +0.000 A 
BRANCH  13  20
ATOM     19  C   UNL     1      -2.913  10.001  15.101  0.00  0.00    +0.000 C 
ATOM     20  O   UNL     1      -3.094   9.516  16.426  0.00  0.00    +0.000 OA
ENDBRANCH  13  20
ENDBRANCH   1  17
BRANCH  12  21
ATOM     21  C   UNL     1       1.084   8.720  20.450  0.00  0.00    +0.000 C 
BRANCH  21  22
ATOM     22  C   UNL     1       2.025   8.146  19.320  0.00  0.00    +0.000 C 
BRANCH  22  23
ATOM     23  N   UNL     1       2.532   6.763  19.466  0.00  0.00    +0.000 NA
ATOM     24  C   UNL     1       1.786   6.009  20.483  0.00  0.00    +0.000 C 
ATOM     25  C   UNL     1       2.422   4.640  20.725  0.00  0.00    +0.000 C 
ATOM     26  C   UNL     1       2.529   3.818  19.448  0.00  0.00    +0.000 C 
ATOM     27  C   UNL     1       3.122   4.639  18.307  0.00  0.00    +0.000 C 
ATOM     28  C   UNL     1       2.456   6.018  18.185  0.00  0.00    +0.000 C 
ENDBRANCH  22  23
ENDBRANCH  21  22
ENDBRANCH  12  21
TORSDOF 5
ENDMDL
MODEL 6
REMARK VINA RESULT:      -6.8      5.285      7.881
REMARK  Name = 
REMARK  7 active torsions:
REMARK  status: ('A' for Active; 'I' for Inactive)
REMARK    1  A    between atoms: C_1  and  O_2
REMARK    2  A    between atoms: O_2  and  C_3
REMARK    3  A    between atoms: C_7  and  C_8
REMARK    4  A    between atoms: C_17  and  C_18
REMARK    5  A    between atoms: N_19  and  C_20
REMARK    6  A    between atoms: C_20  and  C_21
REMARK    7  A    between atoms: C_21  and  N_22
REMARK                            x       y       z     vdW  Elec       q    Type
REMARK                         _______ _______ _______ _____ _____    ______ ____
ROOT
ATOM      1  C   UNL     1       0.787  10.619  18.400  0.00  0.00    +0.000 C 
ATOM      2  C   UNL     1       1.454  11.854  18.964  0.00  0.00    +0.000 A 
ATOM      3  C   UNL     1       2.073  12.819  18.163  0.00  0.00    +0.000 A 
ATOM      4  C   UNL     1       2.596  13.963  18.757  0.00  0.00    +0.000 A 
ATOM      5 CL   UNL     1       3.383  15.141  17.780  0.00  0.00    +0.000 Cl
ATOM      6  C   UNL     1       2.484  14.168  20.132  0.00  0.00    +0.000 A 
ATOM      7  C   UNL     1       1.915  13.175  20.935  0.00  0.00    +0.000 A 
ATOM      8  C   UNL     1       1.441  11.994  20.364  0.00  0.00    +0.000 A 
ATOM      9  N   UNL     1       0.919  10.977  21.172  0.00  0.00    +0.000 NA
ATOM     10  C   UNL     1       0.805   9.784  20.627  0.00  0.00    +0.000 C 
ATOM     11  C   UNL     1       0.112   8.746  21.473  0.00  0.00    +0.000 C 
ATOM     12  N   UNL     1       1.157   9.523  19.303  0.00  0.00    +0.000 N 
ENDROOT
BRANCH   1  17
ATOM     13  C   UNL     1      -2.863  11.772  18.890  0.00  0.00    +0.000 A 
ATOM     14  C   UNL     1      -3.561  10.900  18.060  0.00  0.00    +0.000 A 
ATOM     15  C   UNL     1      -2.877   9.938  17.323  0.00  0.00    +0.000 A 
ATOM     16  C   UNL     1      -1.491   9.821  17.436  0.00  0.00    +0.000 A 
ATOM     17  C   UNL     1      -0.759  10.661  18.293  0.00  0.00    +0.000 A 
ATOM     18  C   UNL     1      -1.476  11.643  19.011  0.00  0.00    +0.000 A 
BRANCH  13  20
ATOM     19  C   UNL     1      -5.029  12.407  19.604  0.00  0.00    +0.000 C 
ATOM     20  O   UNL     1      -3.632  12.674  19.573  0.00  0.00    +0.000 OA
ENDBRANCH  13  20
ENDBRANCH   1  17
BRANCH  12  21
ATOM     21  C   UNL     1       1.480   8.199  18.754  0.00  0.00    +0.000 C 
BRANCH  21  22
ATOM     22  C   UNL     1       2.591   7.357  19.494  0.00  0.00    +0.000 C 
BRANCH  22  23
ATOM     23  N   UNL     1       2.443   5.884  19.537  0.00  0.00    +0.000 NA
ATOM     24  C   UNL     1       3.743   5.205  19.624  0.00  0.00    +0.000 C 
ATOM     25  C   UNL     1       3.576   3.689  19.513  0.00  0.00    +0.000 C 
ATOM     26  C   UNL     1       2.630   3.132  20.568  0.00  0.00    +0.000 C 
ATOM     27  C   UNL     1       1.340   3.944  20.641  0.00  0.00    +0.000 C 
ATOM     28  C   UNL     1       1.614   5.454  20.690  0.00  0.00    +0.000 C 
ENDBRANCH  22  23
ENDBRANCH  21  22
ENDBRANCH  12  21
TORSDOF 5
ENDMDL
MODEL 7
REMARK VINA RESULT:      -6.7      0.987      1.436
REMARK  Name = 
REMARK  7 active torsions:
REMARK  status: ('A' for Active; 'I' for Inactive)
REMARK    1  A    between atoms: C_1  and  O_2
REMARK    2  A    between atoms: O_2  and  C_3
REMARK    3  A    between atoms: C_7  and  C_8
REMARK    4  A    between atoms: C_17  and  C_18
REMARK    5  A    between atoms: N_19  and  C_20
REMARK    6  A    between atoms: C_20  and  C_21
REMARK    7  A    between atoms: C_21  and  N_22
REMARK                            x       y       z     vdW  Elec       q    Type
REMARK                         _______ _______ _______ _____ _____    ______ ____
ROOT
ATOM      1  C   UNL     1       4.609   4.365  17.703  0.00  0.00    +0.000 C 
ATOM      2  C   UNL     1       5.314   4.528  16.375  0.00  0.00    +0.000 A 
ATOM      3  C   UNL     1       4.796   4.037  15.172  0.00  0.00    +0.000 A 
ATOM      4  C   UNL     1       5.471   4.297  13.983  0.00  0.00    +0.000 A 
ATOM      5 CL   UNL     1       4.854   3.672  12.504  0.00  0.00    +0.000 Cl
ATOM      6  C   UNL     1       6.637   5.063  13.978  0.00  0.00    +0.000 A 
ATOM      7  C   UNL     1       7.181   5.504  15.189  0.00  0.00    +0.000 A 
ATOM      8  C   UNL     1       6.550   5.199  16.395  0.00  0.00    +0.000 A 
ATOM      9  N   UNL     1       7.121   5.595  17.611  0.00  0.00    +0.000 NA
ATOM     10  C   UNL     1       6.674   5.002  18.698  0.00  0.00    +0.000 C 
ATOM     11  C   UNL     1       7.204   5.547  20.001  0.00  0.00    +0.000 C 
ATOM     12  N   UNL     1       5.664   4.042  18.672  0.00  0.00    +0.000 N 
ENDROOT
BRANCH   1  17
ATOM     13  C   UNL     1       2.882   7.814  17.767  0.00  0.00    +0.000 A 
ATOM     14  C   UNL     1       2.316   7.838  19.038  0.00  0.00    +0.000 A 
ATOM     15  C   UNL     1       2.467   6.748  19.890  0.00  0.00    +0.000 A 
ATOM     16  C   UNL     1       3.214   5.640  19.488  0.00  0.00    +0.000 A 
ATOM     17  C   UNL     1       3.830   5.599  18.225  0.00  0.00    +0.000 A 
ATOM     18  C   UNL     1       3.641   6.709  17.371  0.00  0.00    +0.000 A 
BRANCH  13  20
ATOM     19  C   UNL     1       2.116  10.054  17.694  0.00  0.00    +0.000 C 
ATOM     20  O   UNL     1       2.677   8.938  17.013  0.00  0.00    +0.000 OA
ENDBRANCH  13  20
ENDBRANCH   1  17
BRANCH  12  21
ATOM     21  C   UNL     1       5.414   3.041  19.719  0.00  0.00    +0.000 C 
BRANCH  21  22
ATOM     22  C   UNL     1       4.468   1.831  19.355  0.00  0.00    +0.000 C 
BRANCH  22  23
ATOM     23  N   UNL     1       3.035   1.928  19.716  0.00  0.00    +0.000 NA
ATOM     24  C   UNL     1       2.811   2.863  20.828  0.00  0.00    +0.000 C 
ATOM     25  C   UNL     1       1.351   2.832  21.282  0.00  0.00    +0.000 C 
ATOM     26  C   UNL     1       0.385   3.139  20.147  0.00  0.00    +0.000 C 
ATOM     27  C   UNL     1       0.715   2.322  18.900  0.00  0.00    +0.000 C 
ATOM     28  C   UNL     1       2.212   2.370  18.562  0.00  0.00    +0.000 C 
ENDBRANCH  22  23
ENDBRANCH  21  22
ENDBRANCH  12  21
TORSDOF 5
ENDMDL
MODEL 8
REMARK VINA RESULT:      -6.7      7.999     10.654
REMARK  Name = 
REMARK  7 active torsions:
REMARK  status: ('A' for Active; 'I' for Inactive)
REMARK    1  A    between atoms: C_1  and  O_2
REMARK    2  A    between atoms: O_2  and  C_3
REMARK    3  A    between atoms: C_7  and  C_8
REMARK    4  A    between atoms: C_17  and  C_18
REMARK    5  A    between atoms: N_19  and  C_20
REMARK    6  A    between atoms: C_20  and  C_21
REMARK    7  A    between atoms: C_21  and  N_22
REMARK                            x       y       z     vdW  Elec       q    Type
REMARK                         _______ _______ _______ _____ _____    ______ ____
ROOT
ATOM      1  C   UNL     1      -1.151  12.419  20.412  0.00  0.00    +0.000 C 
ATOM      2  C   UNL     1      -0.565  11.165  21.023  0.00  0.00    +0.000 A 
ATOM      3  C   UNL     1       0.245  10.276  20.309  0.00  0.00    +0.000 A 
ATOM      4  C   UNL     1       0.806   9.186  20.968  0.00  0.00    +0.000 A 
ATOM      5 CL   UNL     1       1.781   8.074  20.089  0.00  0.00    +0.000 Cl
ATOM      6  C   UNL     1       0.591   8.990  22.332  0.00  0.00    +0.000 A 
ATOM      7  C   UNL     1      -0.264   9.850  23.029  0.00  0.00    +0.000 A 
ATOM      8  C   UNL     1      -0.884  10.911  22.369  0.00  0.00    +0.000 A 
ATOM      9  N   UNL     1      -1.781  11.741  23.052  0.00  0.00    +0.000 NA
ATOM     10  C   UNL     1      -2.572  12.493  22.317  0.00  0.00    +0.000 C 
ATOM     11  C   UNL     1      -3.427  13.476  23.078  0.00  0.00    +0.000 C 
ATOM     12  N   UNL     1      -2.524  12.503  20.924  0.00  0.00    +0.000 N 
ENDROOT
BRANCH   1  17
ATOM     13  C   UNL     1       1.495  14.879  21.766  0.00  0.00    +0.000 A 
ATOM     14  C   UNL     1       1.036  16.101  21.284  0.00  0.00    +0.000 A 
ATOM     15  C   UNL     1      -0.120  16.158  20.510  0.00  0.00    +0.000 A 
ATOM     16  C   UNL     1      -0.841  14.994  20.240  0.00  0.00    +0.000 A 
ATOM     17  C   UNL     1      -0.426  13.748  20.742  0.00  0.00    +0.000 A 
ATOM     18  C   UNL     1       0.763  13.717  21.505  0.00  0.00    +0.000 A 
BRANCH  13  20
ATOM     19  C   UNL     1       3.813  15.361  21.841  0.00  0.00    +0.000 C 
ATOM     20  O   UNL     1       2.636  14.938  22.520  0.00  0.00    +0.000 OA
ENDBRANCH  13  20
ENDBRANCH   1  17
BRANCH  12  21
ATOM     21  C   UNL     1      -3.610  12.943  20.037  0.00  0.00    +0.000 C 
BRANCH  21  22
ATOM     22  C   UNL     1      -4.250  11.861  19.082  0.00  0.00    +0.000 C 
BRANCH  22  23
ATOM     23  N   UNL     1      -3.500  11.468  17.866  0.00  0.00    +0.000 NA
ATOM     24  C   UNL     1      -2.782  10.199  18.052  0.00  0.00    +0.000 C 
ATOM     25  C   UNL     1      -1.896   9.892  16.844  0.00  0.00    +0.000 C 
ATOM     26  C   UNL     1      -2.685   9.854  15.542  0.00  0.00    +0.000 C 
ATOM     27  C   UNL     1      -3.598  11.070  15.410  0.00  0.00    +0.000 C 
ATOM     28  C   UNL     1      -4.400  11.328  16.694  0.00  0.00    +0.000 C 
ENDBRANCH  22  23
ENDBRANCH  21  22
ENDBRANCH  12  21
TORSDOF 5
ENDMDL
MODEL 9
REMARK VINA RESULT:      -6.7      6.676      9.718
REMARK  Name = 
REMARK  7 active torsions:
REMARK  status: ('A' for Active; 'I' for Inactive)
REMARK    1  A    between atoms: C_1  and  O_2
REMARK    2  A    between atoms: O_2  and  C_3
REMARK    3  A    between atoms: C_7  and  C_8
REMARK    4  A    between atoms: C_17  and  C_18
REMARK    5  A    between atoms: N_19  and  C_20
REMARK    6  A    between atoms: C_20  and  C_21
REMARK    7  A    between atoms: C_21  and  N_22
REMARK                            x       y       z     vdW  Elec       q    Type
REMARK                         _______ _______ _______ _____ _____    ______ ____
ROOT
ATOM      1  C   UNL     1      -0.306  12.071  19.890  0.00  0.00    +0.000 C 
ATOM      2  C   UNL     1       0.284  10.691  20.075  0.00  0.00    +0.000 A 
ATOM      3  C   UNL     1       0.902   9.981  19.040  0.00  0.00    +0.000 A 
ATOM      4  C   UNL     1       1.487   8.748  19.315  0.00  0.00    +0.000 A 
ATOM      5 CL   UNL     1       2.225   7.858  18.041  0.00  0.00    +0.000 Cl
ATOM      6  C   UNL     1       1.487   8.231  20.611  0.00  0.00    +0.000 A 
ATOM      7  C   UNL     1       0.819   8.918  21.629  0.00  0.00    +0.000 A 
ATOM      8  C   UNL     1       0.174  10.125  21.358  0.00  0.00    +0.000 A 
ATOM      9  N   UNL     1      -0.539  10.787  22.365  0.00  0.00    +0.000 NA
ATOM     10  C   UNL     1      -1.386  11.717  21.978  0.00  0.00    +0.000 C 
ATOM     11  C   UNL     1      -2.034  12.508  23.088  0.00  0.00    +0.000 C 
ATOM     12  N   UNL     1      -1.567  12.065  20.640  0.00  0.00    +0.000 N 
ENDROOT
BRANCH   1  17
ATOM     13  C   UNL     1       2.700  14.058  21.268  0.00  0.00    +0.000 A 
ATOM     14  C   UNL     1       2.242  15.371  21.202  0.00  0.00    +0.000 A 
ATOM     15  C   UNL     1       0.971  15.643  20.706  0.00  0.00    +0.000 A 
ATOM     16  C   UNL     1       0.136  14.599  20.302  0.00  0.00    +0.000 A 
ATOM     17  C   UNL     1       0.554  13.259  20.390  0.00  0.00    +0.000 A 
ATOM     18  C   UNL     1       1.858  13.014  20.876  0.00  0.00    +0.000 A 
BRANCH  13  20
ATOM     19  C   UNL     1       4.934  14.841  21.333  0.00  0.00    +0.000 C 
ATOM     20  O   UNL     1       3.961  13.903  21.777  0.00  0.00    +0.000 OA
ENDBRANCH  13  20
ENDBRANCH   1  17
BRANCH  12  21
ATOM     21  C   UNL     1      -2.751  12.737  20.088  0.00  0.00    +0.000 C 
BRANCH  21  22
ATOM     22  C   UNL     1      -3.711  11.881  19.173  0.00  0.00    +0.000 C 
BRANCH  22  23
ATOM     23  N   UNL     1      -3.203  11.420  17.861  0.00  0.00    +0.000 NA
ATOM     24  C   UNL     1      -2.668  10.053  17.930  0.00  0.00    +0.000 C 
ATOM     25  C   UNL     1      -2.012   9.656  16.606  0.00  0.00    +0.000 C 
ATOM     26  C   UNL     1      -2.967   9.779  15.427  0.00  0.00    +0.000 C 
ATOM     27  C   UNL     1      -3.693  11.121  15.438  0.00  0.00    +0.000 C 
ATOM     28  C   UNL     1      -4.264  11.455  16.824  0.00  0.00    +0.000 C 
ENDBRANCH  22  23
ENDBRANCH  21  22
ENDBRANCH  12  21
TORSDOF 5
ENDMDL
