MODEL 1
REMARK VINA RESULT:      -6.8      0.000      0.000
REMARK  Name = 
REMARK  4 active torsions:
REMARK  status: ('A' for Active; 'I' for Inactive)
REMARK    1  A    between atoms: C_1  and  N_2
REMARK    2  A    between atoms: N_2  and  C_3
REMARK    3  A    between atoms: N_2  and  C_4
REMARK    4  A    between atoms: C_4  and  C_5
REMARK                            x       y       z     vdW  Elec       q    Type
REMARK                         _______ _______ _______ _____ _____    ______ ____
ROOT
ATOM      1  C   UNL     1       1.787  14.103  19.486  0.00  0.00    +0.000 C 
ATOM      2  C   UNL     1       0.740  13.212  20.154  0.00  0.00    +0.000 C 
ATOM      3  C   UNL     1       1.435  11.847  20.400  0.00  0.00    +0.000 C 
ATOM      4  C   UNL     1       0.932  10.954  19.272  0.00  0.00    +0.000 C 
ATOM      5  C   UNL     1      -0.590  10.664  19.618  0.00  0.00    +0.000 C 
ATOM      6  C   UNL     1      -0.729  10.121  21.087  0.00  0.00    +0.000 C 
ATOM      7  C   UNL     1       0.289   9.004  21.483  0.00  0.00    +0.000 C 
ATOM      8  C   UNL     1       1.215   8.665  20.352  0.00  0.00    +0.000 A 
ATOM      9  C   UNL     1       1.840   7.430  20.059  0.00  0.00    +0.000 A 
ATOM     10  C   UNL     1       1.952   6.201  20.742  0.00  0.00    +0.000 A 
ATOM     11  C   UNL     1       2.559   5.114  20.107  0.00  0.00    +0.000 A 
ATOM     12  C   UNL     1       3.012   5.226  18.796  0.00  0.00    +0.000 A 
ATOM     13  C   UNL     1       2.912   6.440  18.098  0.00  0.00    +0.000 A 
ATOM     14  C   UNL     1       2.352   7.538  18.767  0.00  0.00    +0.000 A 
ATOM     15  N   UNL     1       2.141   8.841  18.348  0.00  0.00    +0.000 N 
ATOM     16  C   UNL     1       1.517   9.559  19.333  0.00  0.00    +0.000 A 
ATOM     17  C   UNL     1       1.273  11.806  17.979  0.00  0.00    +0.000 C 
ATOM     18  C   UNL     1       2.197  13.145  18.230  0.00  0.00    +0.000 C 
ATOM     19  H   UNL     1       2.360   9.167  17.416  0.00  0.00    +0.000 HD
ENDROOT
BRANCH   1  20
ATOM     20  C   UNL     1       1.270  15.457  18.954  0.00  0.00    +0.000 A 
ATOM     21  C   UNL     1       2.097  16.384  18.298  0.00  0.00    +0.000 A 
ATOM     22  C   UNL     1       1.581  17.571  17.762  0.00  0.00    +0.000 A 
ATOM     23  C   UNL     1       0.221  17.850  17.849  0.00  0.00    +0.000 A 
ATOM     24  C   UNL     1      -0.618  16.966  18.513  0.00  0.00    +0.000 A 
ATOM     25  C   UNL     1      -0.091  15.803  19.089  0.00  0.00    +0.000 A 
ENDBRANCH   1  20
BRANCH   1  27
ATOM     26  C   UNL     1       2.315  15.169  21.715  0.00  0.00    +0.000 C 
ATOM     27  N   UNL     1       2.766  14.278  20.625  0.00  0.00    +0.000 NA
ATOM     28  C   UNL     1       4.157  14.560  20.337  0.00  0.00    +0.000 C 
ENDBRANCH   1  27
TORSDOF 2
ENDMDL
MODEL 2
REMARK VINA RESULT:      -6.5      0.930      1.453
REMARK  Name = 
REMARK  4 active torsions:
REMARK  status: ('A' for Active; 'I' for Inactive)
REMARK    1  A    between atoms: C_1  and  N_2
REMARK    2  A    between atoms: N_2  and  C_3
REMARK    3  A    between atoms: N_2  and  C_4
REMARK    4  A    between atoms: C_4  and  C_5
REMARK                            x       y       z     vdW  Elec       q    Type
REMARK                         _______ _______ _______ _____ _____    ______ ____
ROOT
ATOM      1  C   UNL     1       0.837  13.844  19.897  0.00  0.00    +0.000 C 
ATOM      2  C   UNL     1       0.197  12.736  20.733  0.00  0.00    +0.000 C 
ATOM      3  C   UNL     1       1.166  11.526  20.652  0.00  0.00    +0.000 C 
ATOM      4  C   UNL     1       0.535  10.600  19.621  0.00  0.00    +0.000 C 
ATOM      5  C   UNL     1      -0.750   9.999  20.334  0.00  0.00    +0.000 C 
ATOM      6  C   UNL     1      -0.370   9.378  21.727  0.00  0.00    +0.000 C 
ATOM      7  C   UNL     1       0.901   8.470  21.726  0.00  0.00    +0.000 C 
ATOM      8  C   UNL     1       1.516   8.369  20.361  0.00  0.00    +0.000 A 
ATOM      9  C   UNL     1       2.243   7.297  19.793  0.00  0.00    +0.000 A 
ATOM     10  C   UNL     1       2.762   6.087  20.299  0.00  0.00    +0.000 A 
ATOM     11  C   UNL     1       3.349   5.169  19.424  0.00  0.00    +0.000 A 
ATOM     12  C   UNL     1       3.386   5.425  18.056  0.00  0.00    +0.000 A 
ATOM     13  C   UNL     1       2.877   6.622  17.530  0.00  0.00    +0.000 A 
ATOM     14  C   UNL     1       2.342   7.559  18.427  0.00  0.00    +0.000 A 
ATOM     15  N   UNL     1       1.791   8.810  18.208  0.00  0.00    +0.000 N 
ATOM     16  C   UNL     1       1.353   9.348  19.388  0.00  0.00    +0.000 A 
ATOM     17  C   UNL     1       0.338  11.556  18.371  0.00  0.00    +0.000 C 
ATOM     18  C   UNL     1       1.040  13.041  18.491  0.00  0.00    +0.000 C 
ATOM     19  H   UNL     1       1.676   9.212  17.286  0.00  0.00    +0.000 HD
ENDROOT
BRANCH   1  20
ATOM     20  C   UNL     1      -0.043  15.090  19.656  0.00  0.00    +0.000 A 
ATOM     21  C   UNL     1      -1.176  15.382  20.433  0.00  0.00    +0.000 A 
ATOM     22  C   UNL     1      -1.911  16.559  20.238  0.00  0.00    +0.000 A 
ATOM     23  C   UNL     1      -1.517  17.484  19.277  0.00  0.00    +0.000 A 
ATOM     24  C   UNL     1      -0.416  17.211  18.477  0.00  0.00    +0.000 A 
ATOM     25  C   UNL     1       0.288  16.012  18.642  0.00  0.00    +0.000 A 
ENDBRANCH   1  20
BRANCH   1  27
ATOM     26  C   UNL     1       1.804  15.066  21.886  0.00  0.00    +0.000 C 
ATOM     27  N   UNL     1       2.050  14.162  20.743  0.00  0.00    +0.000 NA
ATOM     28  C   UNL     1       3.289  14.549  20.101  0.00  0.00    +0.000 C 
ENDBRANCH   1  27
TORSDOF 2
ENDMDL
MODEL 3
REMARK VINA RESULT:      -6.3      4.433      5.938
REMARK  Name = 
REMARK  4 active torsions:
REMARK  status: ('A' for Active; 'I' for Inactive)
REMARK    1  A    between atoms: C_1  and  N_2
REMARK    2  A    between atoms: N_2  and  C_3
REMARK    3  A    between atoms: N_2  and  C_4
REMARK    4  A    between atoms: C_4  and  C_5
REMARK                            x       y       z     vdW  Elec       q    Type
REMARK                         _______ _______ _______ _____ _____    ______ ____
ROOT
ATOM      1  C   UNL     1      -4.288  13.556  21.604  0.00  0.00    +0.000 C 
ATOM      2  C   UNL     1      -3.103  14.006  20.749  0.00  0.00    +0.000 C 
ATOM      3  C   UNL     1      -2.494  12.712  20.147  0.00  0.00    +0.000 C 
ATOM      4  C   UNL     1      -1.277  12.422  21.016  0.00  0.00    +0.000 C 
ATOM      5  C   UNL     1      -0.218  13.543  20.636  0.00  0.00    +0.000 C 
ATOM      6  C   UNL     1       0.000  13.592  19.080  0.00  0.00    +0.000 C 
ATOM      7  C   UNL     1       0.194  12.203  18.391  0.00  0.00    +0.000 C 
ATOM      8  C   UNL     1       0.134  11.075  19.379  0.00  0.00    +0.000 A 
ATOM      9  C   UNL     1       0.788   9.822  19.334  0.00  0.00    +0.000 A 
ATOM     10  C   UNL     1       1.549   9.147  18.356  0.00  0.00    +0.000 A 
ATOM     11  C   UNL     1       2.166   7.936  18.678  0.00  0.00    +0.000 A 
ATOM     12  C   UNL     1       2.068   7.416  19.966  0.00  0.00    +0.000 A 
ATOM     13  C   UNL     1       1.315   8.069  20.954  0.00  0.00    +0.000 A 
ATOM     14  C   UNL     1       0.655   9.255  20.600  0.00  0.00    +0.000 A 
ATOM     15  N   UNL     1      -0.157  10.095  21.344  0.00  0.00    +0.000 N 
ATOM     16  C   UNL     1      -0.544  11.170  20.588  0.00  0.00    +0.000 A 
ATOM     17  C   UNL     1      -1.890  12.416  22.479  0.00  0.00    +0.000 C 
ATOM     18  C   UNL     1      -3.534  12.472  22.563  0.00  0.00    +0.000 C 
ATOM     19  H   UNL     1      -0.358   9.948  22.324  0.00  0.00    +0.000 HD
ENDROOT
BRANCH   1  20
ATOM     20  C   UNL     1      -4.937  14.653  22.475  0.00  0.00    +0.000 A 
ATOM     21  C   UNL     1      -4.453  15.971  22.524  0.00  0.00    +0.000 A 
ATOM     22  C   UNL     1      -5.109  16.961  23.267  0.00  0.00    +0.000 A 
ATOM     23  C   UNL     1      -6.278  16.664  23.958  0.00  0.00    +0.000 A 
ATOM     24  C   UNL     1      -6.767  15.365  23.949  0.00  0.00    +0.000 A 
ATOM     25  C   UNL     1      -6.083  14.367  23.245  0.00  0.00    +0.000 A 
ENDBRANCH   1  20
BRANCH   1  27
ATOM     26  C   UNL     1      -5.884  14.107  19.724  0.00  0.00    +0.000 C 
ATOM     27  N   UNL     1      -5.228  13.056  20.529  0.00  0.00    +0.000 NA
ATOM     28  C   UNL     1      -6.204  12.035  20.850  0.00  0.00    +0.000 C 
ENDBRANCH   1  27
TORSDOF 2
ENDMDL
MODEL 4
REMARK VINA RESULT:      -6.3      4.270      5.787
REMARK  Name = 
REMARK  4 active torsions:
REMARK  status: ('A' for Active; 'I' for Inactive)
REMARK    1  A    between atoms: C_1  and  N_2
REMARK    2  A    between atoms: N_2  and  C_3
REMARK    3  A    between atoms: N_2  and  C_4
REMARK    4  A    between atoms: C_4  and  C_5
REMARK                            x       y       z     vdW  Elec       q    Type
REMARK                         _______ _______ _______ _____ _____    ______ ____
ROOT
ATOM      1  C   UNL     1      -3.827  13.684  21.900  0.00  0.00    +0.000 C 
ATOM      2  C   UNL     1      -2.617  14.094  21.059  0.00  0.00    +0.000 C 
ATOM      3  C   UNL     1      -2.092  12.791  20.402  0.00  0.00    +0.000 C 
ATOM      4  C   UNL     1      -0.895  12.388  21.253  0.00  0.00    +0.000 C 
ATOM      5  C   UNL     1       0.232  13.455  20.915  0.00  0.00    +0.000 C 
ATOM      6  C   UNL     1       0.451  13.555  19.362  0.00  0.00    +0.000 C 
ATOM      7  C   UNL     1       0.555  12.187  18.615  0.00  0.00    +0.000 C 
ATOM      8  C   UNL     1       0.426  11.025  19.555  0.00  0.00    +0.000 A 
ATOM      9  C   UNL     1       0.999   9.736  19.454  0.00  0.00    +0.000 A 
ATOM     10  C   UNL     1       1.714   9.056  18.446  0.00  0.00    +0.000 A 
ATOM     11  C   UNL     1       2.254   7.796  18.714  0.00  0.00    +0.000 A 
ATOM     12  C   UNL     1       2.125   7.229  19.979  0.00  0.00    +0.000 A 
ATOM     13  C   UNL     1       1.417   7.887  20.997  0.00  0.00    +0.000 A 
ATOM     14  C   UNL     1       0.833   9.126  20.697  0.00  0.00    +0.000 A 
ATOM     15  N   UNL     1       0.077   9.984  21.478  0.00  0.00    +0.000 N 
ATOM     16  C   UNL     1      -0.243  11.111  20.770  0.00  0.00    +0.000 A 
ATOM     17  C   UNL     1      -1.505  12.359  22.716  0.00  0.00    +0.000 C 
ATOM     18  C   UNL     1      -3.141  12.516  22.810  0.00  0.00    +0.000 C 
ATOM     19  H   UNL     1      -0.132   9.808  22.452  0.00  0.00    +0.000 HD
ENDROOT
BRANCH   1  20
ATOM     20  C   UNL     1      -4.404  14.782  22.819  0.00  0.00    +0.000 A 
ATOM     21  C   UNL     1      -5.729  14.767  23.284  0.00  0.00    +0.000 A 
ATOM     22  C   UNL     1      -6.200  15.739  24.176  0.00  0.00    +0.000 A 
ATOM     23  C   UNL     1      -5.351  16.736  24.644  0.00  0.00    +0.000 A 
ATOM     24  C   UNL     1      -4.043  16.792  24.183  0.00  0.00    +0.000 A 
ATOM     25  C   UNL     1      -3.589  15.848  23.255  0.00  0.00    +0.000 A 
ENDBRANCH   1  20
BRANCH   1  27
ATOM     26  C   UNL     1      -5.444  14.415  20.101  0.00  0.00    +0.000 C 
ATOM     27  N   UNL     1      -4.798  13.290  20.809  0.00  0.00    +0.000 NA
ATOM     28  C   UNL     1      -5.793  12.270  21.071  0.00  0.00    +0.000 C 
ENDBRANCH   1  27
TORSDOF 2
ENDMDL
MODEL 5
REMARK VINA RESULT:      -6.2      1.025      1.184
REMARK  Name = 
REMARK  4 active torsions:
REMARK  status: ('A' for Active; 'I' for Inactive)
REMARK    1  A    between atoms: C_1  and  N_2
REMARK    2  A    between atoms: N_2  and  C_3
REMARK    3  A    between atoms: N_2  and  C_4
REMARK    4  A    between atoms: C_4  and  C_5
REMARK                            x       y       z     vdW  Elec       q    Type
REMARK                         _______ _______ _______ _____ _____    ______ ____
ROOT
ATOM      1  C   UNL     1       0.780  14.671  19.772  0.00  0.00    +0.000 C 
ATOM      2  C   UNL     1       0.042  13.668  20.659  0.00  0.00    +0.000 C 
ATOM      3  C   UNL     1       0.924  12.391  20.683  0.00  0.00    +0.000 C 
ATOM      4  C   UNL     1       0.253  11.445  19.696  0.00  0.00    +0.000 C 
ATOM      5  C   UNL     1      -1.089  10.984  20.408  0.00  0.00    +0.000 C 
ATOM      6  C   UNL     1      -0.789  10.431  21.849  0.00  0.00    +0.000 C 
ATOM      7  C   UNL     1       0.414   9.438  21.943  0.00  0.00    +0.000 C 
ATOM      8  C   UNL     1       1.053   9.205  20.606  0.00  0.00    +0.000 A 
ATOM      9  C   UNL     1       1.716   8.049  20.130  0.00  0.00    +0.000 A 
ATOM     10  C   UNL     1       2.134   6.842  20.728  0.00  0.00    +0.000 A 
ATOM     11  C   UNL     1       2.675   5.830  19.931  0.00  0.00    +0.000 A 
ATOM     12  C   UNL     1       2.764   5.991  18.552  0.00  0.00    +0.000 A 
ATOM     13  C   UNL     1       2.355   7.184  17.935  0.00  0.00    +0.000 A 
ATOM     14  C   UNL     1       1.866   8.212  18.754  0.00  0.00    +0.000 A 
ATOM     15  N   UNL     1       1.412   9.482  18.438  0.00  0.00    +0.000 N 
ATOM     16  C   UNL     1       0.985  10.126  19.568  0.00  0.00    +0.000 A 
ATOM     17  C   UNL     1       0.156  12.328  18.382  0.00  0.00    +0.000 C 
ATOM     18  C   UNL     1       0.960  13.764  18.428  0.00  0.00    +0.000 C 
ATOM     19  H   UNL     1       1.349   9.829  17.490  0.00  0.00    +0.000 HD
ENDROOT
BRANCH   1  20
ATOM     20  C   UNL     1      -0.003  15.957  19.426  0.00  0.00    +0.000 A 
ATOM     21  C   UNL     1       0.428  16.871  18.450  0.00  0.00    +0.000 A 
ATOM     22  C   UNL     1      -0.343  17.989  18.108  0.00  0.00    +0.000 A 
ATOM     23  C   UNL     1      -1.574  18.209  18.716  0.00  0.00    +0.000 A 
ATOM     24  C   UNL     1      -2.015  17.337  19.702  0.00  0.00    +0.000 A 
ATOM     25  C   UNL     1      -1.220  16.246  20.076  0.00  0.00    +0.000 A 
ENDBRANCH   1  20
BRANCH   1  27
ATOM     26  C   UNL     1       1.763  15.890  21.755  0.00  0.00    +0.000 C 
ATOM     27  N   UNL     1       1.992  14.959  20.630  0.00  0.00    +0.000 NA
ATOM     28  C   UNL     1       3.253  15.289  20.001  0.00  0.00    +0.000 C 
ENDBRANCH   1  27
TORSDOF 2
ENDMDL
MODEL 6
REMARK VINA RESULT:      -6.1      0.894      1.294
REMARK  Name = 
REMARK  4 active torsions:
REMARK  status: ('A' for Active; 'I' for Inactive)
REMARK    1  A    between atoms: C_1  and  N_2
REMARK    2  A    between atoms: N_2  and  C_3
REMARK    3  A    between atoms: N_2  and  C_4
REMARK    4  A    between atoms: C_4  and  C_5
REMARK                            x       y       z     vdW  Elec       q    Type
REMARK                         _______ _______ _______ _____ _____    ______ ____
ROOT
ATOM      1  C   UNL     1       1.237  14.635  19.967  0.00  0.00    +0.000 C 
ATOM      2  C   UNL     1       0.359  13.660  20.753  0.00  0.00    +0.000 C 
ATOM      3  C   UNL     1       1.142  12.321  20.797  0.00  0.00    +0.000 C 
ATOM      4  C   UNL     1       0.488  11.461  19.723  0.00  0.00    +0.000 C 
ATOM      5  C   UNL     1      -0.937  11.078  20.309  0.00  0.00    +0.000 C 
ATOM      6  C   UNL     1      -0.795  10.457  21.746  0.00  0.00    +0.000 C 
ATOM      7  C   UNL     1       0.322   9.374  21.896  0.00  0.00    +0.000 C 
ATOM      8  C   UNL     1       1.049   9.139  20.605  0.00  0.00    +0.000 A 
ATOM      9  C   UNL     1       1.663   7.953  20.137  0.00  0.00    +0.000 A 
ATOM     10  C   UNL     1       1.944   6.699  20.718  0.00  0.00    +0.000 A 
ATOM     11  C   UNL     1       2.474   5.676  19.927  0.00  0.00    +0.000 A 
ATOM     12  C   UNL     1       2.686   5.877  18.566  0.00  0.00    +0.000 A 
ATOM     13  C   UNL     1       2.415   7.117  17.967  0.00  0.00    +0.000 A 
ATOM     14  C   UNL     1       1.936   8.151  18.784  0.00  0.00    +0.000 A 
ATOM     15  N   UNL     1       1.601   9.461  18.484  0.00  0.00    +0.000 N 
ATOM     16  C   UNL     1       1.131  10.097  19.602  0.00  0.00    +0.000 A 
ATOM     17  C   UNL     1       0.561  12.392  18.442  0.00  0.00    +0.000 C 
ATOM     18  C   UNL     1       1.459  13.763  18.606  0.00  0.00    +0.000 C 
ATOM     19  H   UNL     1       1.641   9.843  17.548  0.00  0.00    +0.000 HD
ENDROOT
BRANCH   1  20
ATOM     20  C   UNL     1       0.579  15.986  19.612  0.00  0.00    +0.000 A 
ATOM     21  C   UNL     1      -0.673  16.378  20.113  0.00  0.00    +0.000 A 
ATOM     22  C   UNL     1      -1.209  17.642  19.831  0.00  0.00    +0.000 A 
ATOM     23  C   UNL     1      -0.495  18.553  19.061  0.00  0.00    +0.000 A 
ATOM     24  C   UNL     1       0.734  18.186  18.531  0.00  0.00    +0.000 A 
ATOM     25  C   UNL     1       1.245  16.905  18.775  0.00  0.00    +0.000 A 
ENDBRANCH   1  20
BRANCH   1  27
ATOM     26  C   UNL     1       2.159  15.752  22.038  0.00  0.00    +0.000 C 
ATOM     27  N   UNL     1       2.392  14.803  20.928  0.00  0.00    +0.000 NA
ATOM     28  C   UNL     1       3.730  15.008  20.412  0.00  0.00    +0.000 C 
ENDBRANCH   1  27
TORSDOF 2
ENDMDL
MODEL 7
REMARK VINA RESULT:      -6.1      3.879      5.909
REMARK  Name = 
REMARK  4 active torsions:
REMARK  status: ('A' for Active; 'I' for Inactive)
REMARK    1  A    between atoms: C_1  and  N_2
REMARK    2  A    between atoms: N_2  and  C_3
REMARK    3  A    between atoms: N_2  and  C_4
REMARK    4  A    between atoms: C_4  and  C_5
REMARK                            x       y       z     vdW  Elec       q    Type
REMARK                         _______ _______ _______ _____ _____    ______ ____
ROOT
ATOM      1  C   UNL     1      -0.891  15.619  22.650  0.00  0.00    +0.000 C 
ATOM      2  C   UNL     1      -0.523  14.136  22.708  0.00  0.00    +0.000 C 
ATOM      3  C   UNL     1      -0.634  13.611  21.252  0.00  0.00    +0.000 C 
ATOM      4  C   UNL     1      -1.976  12.893  21.206  0.00  0.00    +0.000 C 
ATOM      5  C   UNL     1      -1.771  11.572  22.063  0.00  0.00    +0.000 C 
ATOM      6  C   UNL     1      -0.510  10.779  21.562  0.00  0.00    +0.000 C 
ATOM      7  C   UNL     1      -0.399  10.615  20.013  0.00  0.00    +0.000 C 
ATOM      8  C   UNL     1      -1.548  11.262  19.298  0.00  0.00    +0.000 A 
ATOM      9  C   UNL     1      -2.145  10.898  18.068  0.00  0.00    +0.000 A 
ATOM     10  C   UNL     1      -1.818   9.972  17.055  0.00  0.00    +0.000 A 
ATOM     11  C   UNL     1      -2.703   9.772  15.993  0.00  0.00    +0.000 A 
ATOM     12  C   UNL     1      -3.919  10.448  15.952  0.00  0.00    +0.000 A 
ATOM     13  C   UNL     1      -4.266  11.373  16.949  0.00  0.00    +0.000 A 
ATOM     14  C   UNL     1      -3.342  11.606  17.979  0.00  0.00    +0.000 A 
ATOM     15  N   UNL     1      -3.399  12.457  19.070  0.00  0.00    +0.000 N 
ATOM     16  C   UNL     1      -2.277  12.313  19.841  0.00  0.00    +0.000 A 
ATOM     17  C   UNL     1      -2.979  14.000  21.738  0.00  0.00    +0.000 C 
ATOM     18  C   UNL     1      -2.345  15.509  21.919  0.00  0.00    +0.000 C 
ATOM     19  H   UNL     1      -4.201  13.038  19.280  0.00  0.00    +0.000 HD
ENDROOT
BRANCH   1  20
ATOM     20  C   UNL     1      -1.052  16.320  24.016  0.00  0.00    +0.000 A 
ATOM     21  C   UNL     1      -0.859  15.657  25.239  0.00  0.00    +0.000 A 
ATOM     22  C   UNL     1      -0.939  16.340  26.460  0.00  0.00    +0.000 A 
ATOM     23  C   UNL     1      -1.191  17.707  26.487  0.00  0.00    +0.000 A 
ATOM     24  C   UNL     1      -1.411  18.385  25.296  0.00  0.00    +0.000 A 
ATOM     25  C   UNL     1      -1.377  17.691  24.080  0.00  0.00    +0.000 A 
ENDBRANCH   1  20
BRANCH   1  27
ATOM     26  C   UNL     1       1.525  16.362  22.648  0.00  0.00    +0.000 C 
ATOM     27  N   UNL     1       0.285  16.163  21.869  0.00  0.00    +0.000 NA
ATOM     28  C   UNL     1       0.097  17.301  20.992  0.00  0.00    +0.000 C 
ENDBRANCH   1  27
TORSDOF 2
ENDMDL
MODEL 8
REMARK VINA RESULT:      -5.9      3.311      6.176
REMARK  Name = 
REMARK  4 active torsions:
REMARK  status: ('A' for Active; 'I' for Inactive)
REMARK    1  A    between atoms: C_1  and  N_2
REMARK    2  A    between atoms: N_2  and  C_3
REMARK    3  A    between atoms: N_2  and  C_4
REMARK    4  A    between atoms: C_4  and  C_5
REMARK                            x       y       z     vdW  Elec       q    Type
REMARK                         _______ _______ _______ _____ _____    ______ ____
ROOT
ATOM      1  C   UNL     1       1.294  14.782  20.311  0.00  0.00    +0.000 C 
ATOM      2  C   UNL     1       1.115  13.380  19.727  0.00  0.00    +0.000 C 
ATOM      3  C   UNL     1      -0.316  13.348  19.127  0.00  0.00    +0.000 C 
ATOM      4  C   UNL     1      -1.150  12.614  20.169  0.00  0.00    +0.000 C 
ATOM      5  C   UNL     1      -0.679  11.100  20.088  0.00  0.00    +0.000 C 
ATOM      6  C   UNL     1      -0.748  10.577  18.608  0.00  0.00    +0.000 C 
ATOM      7  C   UNL     1      -2.063  10.928  17.840  0.00  0.00    +0.000 C 
ATOM      8  C   UNL     1      -3.018  11.709  18.693  0.00  0.00    +0.000 A 
ATOM      9  C   UNL     1      -4.432  11.730  18.649  0.00  0.00    +0.000 A 
ATOM     10  C   UNL     1      -5.394  11.199  17.765  0.00  0.00    +0.000 A 
ATOM     11  C   UNL     1      -6.751  11.306  18.079  0.00  0.00    +0.000 A 
ATOM     12  C   UNL     1      -7.154  11.894  19.275  0.00  0.00    +0.000 A 
ATOM     13  C   UNL     1      -6.214  12.430  20.169  0.00  0.00    +0.000 A 
ATOM     14  C   UNL     1      -4.858  12.366  19.814  0.00  0.00    +0.000 A 
ATOM     15  N   UNL     1      -3.728  12.816  20.475  0.00  0.00    +0.000 N 
ATOM     16  C   UNL     1      -2.603  12.490  19.765  0.00  0.00    +0.000 A 
ATOM     17  C   UNL     1      -0.854  13.437  21.491  0.00  0.00    +0.000 C 
ATOM     18  C   UNL     1      -0.013  14.838  21.286  0.00  0.00    +0.000 C 
ATOM     19  H   UNL     1      -3.755  13.256  21.386  0.00  0.00    +0.000 HD
ENDROOT
BRANCH   1  20
ATOM     20  C   UNL     1       2.573  14.996  21.150  0.00  0.00    +0.000 A 
ATOM     21  C   UNL     1       2.789  16.145  21.928  0.00  0.00    +0.000 A 
ATOM     22  C   UNL     1       3.926  16.276  22.736  0.00  0.00    +0.000 A 
ATOM     23  C   UNL     1       4.863  15.251  22.804  0.00  0.00    +0.000 A 
ATOM     24  C   UNL     1       4.690  14.113  22.027  0.00  0.00    +0.000 A 
ATOM     25  C   UNL     1       3.576  14.006  21.185  0.00  0.00    +0.000 A 
ENDBRANCH   1  20
BRANCH   1  27
ATOM     26  C   UNL     1       2.589  15.643  18.320  0.00  0.00    +0.000 C 
ATOM     27  N   UNL     1       1.302  15.609  19.045  0.00  0.00    +0.000 NA
ATOM     28  C   UNL     1       0.737  16.943  19.057  0.00  0.00    +0.000 C 
ENDBRANCH   1  27
TORSDOF 2
ENDMDL
MODEL 9
REMARK VINA RESULT:      -5.8      2.723      5.060
REMARK  Name = 
REMARK  4 active torsions:
REMARK  status: ('A' for Active; 'I' for Inactive)
REMARK    1  A    between atoms: C_1  and  N_2
REMARK    2  A    between atoms: N_2  and  C_3
REMARK    3  A    between atoms: N_2  and  C_4
REMARK    4  A    between atoms: C_4  and  C_5
REMARK                            x       y       z     vdW  Elec       q    Type
REMARK                         _______ _______ _______ _____ _____    ______ ____
ROOT
ATOM      1  C   UNL     1       2.623  14.966  20.206  0.00  0.00    +0.000 C 
ATOM      2  C   UNL     1       2.605  13.440  20.304  0.00  0.00    +0.000 C 
ATOM      3  C   UNL     1       1.653  12.951  19.180  0.00  0.00    +0.000 C 
ATOM      4  C   UNL     1       0.345  12.639  19.896  0.00  0.00    +0.000 C 
ATOM      5  C   UNL     1       0.634  11.324  20.737  0.00  0.00    +0.000 C 
ATOM      6  C   UNL     1       1.240  10.202  19.818  0.00  0.00    +0.000 C 
ATOM      7  C   UNL     1       0.511   9.996  18.452  0.00  0.00    +0.000 C 
ATOM      8  C   UNL     1      -0.651  10.932  18.290  0.00  0.00    +0.000 A 
ATOM      9  C   UNL     1      -1.854  10.737  17.572  0.00  0.00    +0.000 A 
ATOM     10  C   UNL     1      -2.313   9.745  16.680  0.00  0.00    +0.000 A 
ATOM     11  C   UNL     1      -3.632   9.790  16.220  0.00  0.00    +0.000 A 
ATOM     12  C   UNL     1      -4.501  10.780  16.669  0.00  0.00    +0.000 A 
ATOM     13  C   UNL     1      -4.065  11.777  17.555  0.00  0.00    +0.000 A 
ATOM     14  C   UNL     1      -2.724  11.752  17.964  0.00  0.00    +0.000 A 
ATOM     15  N   UNL     1      -2.018  12.597  18.804  0.00  0.00    +0.000 N 
ATOM     16  C   UNL     1      -0.731  12.152  18.951  0.00  0.00    +0.000 A 
ATOM     17  C   UNL     1       0.045  13.991  20.670  0.00  0.00    +0.000 C 
ATOM     18  C   UNL     1       1.021  15.262  20.292  0.00  0.00    +0.000 C 
ATOM     19  H   UNL     1      -2.439  13.382  19.284  0.00  0.00    +0.000 HD
ENDROOT
BRANCH   1  20
ATOM     20  C   UNL     1       3.346  15.699  21.356  0.00  0.00    +0.000 A 
ATOM     21  C   UNL     1       3.309  17.095  21.510  0.00  0.00    +0.000 A 
ATOM     22  C   UNL     1       3.914  17.723  22.607  0.00  0.00    +0.000 A 
ATOM     23  C   UNL     1       4.549  16.971  23.588  0.00  0.00    +0.000 A 
ATOM     24  C   UNL     1       4.623  15.591  23.451  0.00  0.00    +0.000 A 
ATOM     25  C   UNL     1       4.059  14.970  22.330  0.00  0.00    +0.000 A 
ENDBRANCH   1  20
BRANCH   1  27
ATOM     26  C   UNL     1       4.804  15.012  18.931  0.00  0.00    +0.000 C 
ATOM     27  N   UNL     1       3.333  15.148  18.883  0.00  0.00    +0.000 NA
ATOM     28  C   UNL     1       2.996  16.275  18.038  0.00  0.00    +0.000 C 
ENDBRANCH   1  27
TORSDOF 2
ENDMDL
