MODEL 1
REMARK VINA RESULT:      -8.4      0.000      0.000
REMARK  Name = 
REMARK  4 active torsions:
REMARK  status: ('A' for Active; 'I' for Inactive)
REMARK    1  A    between atoms: C_1  and  C_2
REMARK    2  A    between atoms: C_6  and  N_7
REMARK    3  A    between atoms: N_10  and  C_11
REMARK    4  A    between atoms: C_19  and  O_20
REMARK                            x       y       z     vdW  Elec       q    Type
REMARK                         _______ _______ _______ _____ _____    ______ ____
ROOT
ATOM      1  C   UNL     1       2.120   5.126  20.188  0.00  0.00    +0.000 A 
ATOM      2  C   UNL     1       1.023   4.356  20.629  0.00  0.00    +0.000 A 
ATOM      3  C   UNL     1       0.849   3.005  20.277  0.00  0.00    +0.000 A 
ATOM      4  C   UNL     1       1.731   2.391  19.406  0.00  0.00    +0.000 A 
ATOM      5  C   UNL     1       2.749   3.173  18.898  0.00  0.00    +0.000 A 
ATOM      6  C   UNL     1       2.976   4.517  19.274  0.00  0.00    +0.000 A 
ATOM      7  C   UNL     1       4.267   4.941  18.644  0.00  0.00    +0.000 C 
ATOM      8  C   UNL     1       4.396   6.310  18.002  0.00  0.00    +0.000 C 
ATOM      9  C   UNL     1       5.787   6.375  17.365  0.00  0.00    +0.000 C 
ATOM     10  C   UNL     1       5.862   5.375  16.211  0.00  0.00    +0.000 C 
ATOM     11  C   UNL     1       5.618   3.957  16.721  0.00  0.00    +0.000 C 
ATOM     12  N   UNL     1       4.494   3.903  17.641  0.00  0.00    +0.000 N 
ATOM     13  C   UNL     1       3.747   2.777  17.890  0.00  0.00    +0.000 C 
ATOM     14  O   UNL     1       3.836   1.675  17.383  0.00  0.00    +0.000 OA
ENDROOT
BRANCH   1  18
ATOM     15  N   UNL     1       1.794   8.589  21.352  0.00  0.00    +0.000 N 
ATOM     16  C   UNL     1       1.314   7.340  20.989  0.00  0.00    +0.000 C 
ATOM     17  O   UNL     1       0.132   7.021  20.978  0.00  0.00    +0.000 OA
ATOM     18  N   UNL     1       2.337   6.448  20.666  0.00  0.00    +0.000 N 
ATOM     19  H   UNL     1       2.776   8.786  21.284  0.00  0.00    +0.000 HD
ATOM     20  H   UNL     1       3.245   6.680  21.027  0.00  0.00    +0.000 HD
BRANCH  15  26
ATOM     21  C   UNL     1       0.350  13.108  20.704  0.00  0.00    +0.000 C 
ATOM     22  C   UNL     1       0.179  11.831  21.467  0.00  0.00    +0.000 A 
ATOM     23  C   UNL     1      -0.749  11.695  22.484  0.00  0.00    +0.000 A 
ATOM     24  C   UNL     1      -0.818  10.475  23.151  0.00  0.00    +0.000 A 
ATOM     25  C   UNL     1       0.040   9.433  22.788  0.00  0.00    +0.000 A 
ATOM     26  C   UNL     1       0.937   9.639  21.749  0.00  0.00    +0.000 A 
ATOM     27  N   UNL     1       0.994  10.819  21.109  0.00  0.00    +0.000 NA
ENDBRANCH  15  26
ENDBRANCH   1  18
BRANCH   9  28
ATOM     28  O   UNL     1       6.041   7.692  16.903  0.00  0.00    +0.000 OA
ATOM     29  H   UNL     1       5.259   7.976  16.398  0.00  0.00    +0.000 HD
ENDBRANCH   9  28
TORSDOF 3
ENDMDL
MODEL 2
REMARK VINA RESULT:      -8.4      2.409      4.221
REMARK  Name = 
REMARK  4 active torsions:
REMARK  status: ('A' for Active; 'I' for Inactive)
REMARK    1  A    between atoms: C_1  and  C_2
REMARK    2  A    between atoms: C_6  and  N_7
REMARK    3  A    between atoms: N_10  and  C_11
REMARK    4  A    between atoms: C_19  and  O_20
REMARK                            x       y       z     vdW  Elec       q    Type
REMARK                         _______ _______ _______ _____ _____    ______ ____
ROOT
ATOM      1  C   UNL     1       3.667   6.958  17.968  0.00  0.00    +0.000 A 
ATOM      2  C   UNL     1       4.785   7.658  17.469  0.00  0.00    +0.000 A 
ATOM      3  C   UNL     1       5.763   7.054  16.657  0.00  0.00    +0.000 A 
ATOM      4  C   UNL     1       5.697   5.701  16.373  0.00  0.00    +0.000 A 
ATOM      5  C   UNL     1       4.655   4.996  16.943  0.00  0.00    +0.000 A 
ATOM      6  C   UNL     1       3.632   5.588  17.719  0.00  0.00    +0.000 A 
ATOM      7  C   UNL     1       2.611   4.526  17.989  0.00  0.00    +0.000 C 
ATOM      8  C   UNL     1       1.988   4.392  19.367  0.00  0.00    +0.000 C 
ATOM      9  C   UNL     1       1.085   3.156  19.329  0.00  0.00    +0.000 C 
ATOM     10  C   UNL     1       1.946   1.905  19.148  0.00  0.00    +0.000 C 
ATOM     11  C   UNL     1       2.728   1.986  17.839  0.00  0.00    +0.000 C 
ATOM     12  N   UNL     1       3.325   3.297  17.649  0.00  0.00    +0.000 N 
ATOM     13  C   UNL     1       4.427   3.543  16.868  0.00  0.00    +0.000 C 
ATOM     14  O   UNL     1       5.117   2.754  16.252  0.00  0.00    +0.000 OA
ENDROOT
BRANCH   1  18
ATOM     15  N   UNL     1       1.081   9.282  19.138  0.00  0.00    +0.000 N 
ATOM     16  C   UNL     1       1.999   8.787  18.224  0.00  0.00    +0.000 C 
ATOM     17  O   UNL     1       2.223   9.276  17.124  0.00  0.00    +0.000 OA
ATOM     18  N   UNL     1       2.629   7.627  18.675  0.00  0.00    +0.000 N 
ATOM     19  H   UNL     1       0.994   8.852  20.041  0.00  0.00    +0.000 HD
ATOM     20  H   UNL     1       2.150   7.127  19.401  0.00  0.00    +0.000 HD
BRANCH  15  26
ATOM     21  C   UNL     1       0.741  14.056  19.243  0.00  0.00    +0.000 C 
ATOM     22  C   UNL     1       0.087  12.757  18.888  0.00  0.00    +0.000 A 
ATOM     23  C   UNL     1      -1.185  12.693  18.347  0.00  0.00    +0.000 A 
ATOM     24  C   UNL     1      -1.719  11.437  18.072  0.00  0.00    +0.000 A 
ATOM     25  C   UNL     1      -0.971  10.287  18.347  0.00  0.00    +0.000 A 
ATOM     26  C   UNL     1       0.303  10.431  18.878  0.00  0.00    +0.000 A 
ATOM     27  N   UNL     1       0.810  11.648  19.138  0.00  0.00    +0.000 NA
ENDBRANCH  15  26
ENDBRANCH   1  18
BRANCH   9  28
ATOM     28  O   UNL     1       0.332   3.075  20.529  0.00  0.00    +0.000 OA
ATOM     29  H   UNL     1       0.602   2.258  20.983  0.00  0.00    +0.000 HD
ENDBRANCH   9  28
TORSDOF 3
ENDMDL
MODEL 3
REMARK VINA RESULT:      -8.4      3.830      8.924
REMARK  Name = 
REMARK  4 active torsions:
REMARK  status: ('A' for Active; 'I' for Inactive)
REMARK    1  A    between atoms: C_1  and  C_2
REMARK    2  A    between atoms: C_6  and  N_7
REMARK    3  A    between atoms: N_10  and  C_11
REMARK    4  A    between atoms: C_19  and  O_20
REMARK                            x       y       z     vdW  Elec       q    Type
REMARK                         _______ _______ _______ _____ _____    ______ ____
ROOT
ATOM      1  C   UNL     1       0.371  11.286  19.175  0.00  0.00    +0.000 A 
ATOM      2  C   UNL     1       1.083  11.998  20.163  0.00  0.00    +0.000 A 
ATOM      3  C   UNL     1       0.449  12.775  21.149  0.00  0.00    +0.000 A 
ATOM      4  C   UNL     1      -0.926  12.929  21.141  0.00  0.00    +0.000 A 
ATOM      5  C   UNL     1      -1.614  12.310  20.116  0.00  0.00    +0.000 A 
ATOM      6  C   UNL     1      -1.008  11.483  19.142  0.00  0.00    +0.000 A 
ATOM      7  C   UNL     1      -2.109  10.869  18.334  0.00  0.00    +0.000 C 
ATOM      8  C   UNL     1      -1.988  10.766  16.825  0.00  0.00    +0.000 C 
ATOM      9  C   UNL     1      -3.315  10.201  16.310  0.00  0.00    +0.000 C 
ATOM     10  C   UNL     1      -4.429  11.217  16.560  0.00  0.00    +0.000 C 
ATOM     11  C   UNL     1      -4.561  11.502  18.055  0.00  0.00    +0.000 C 
ATOM     12  N   UNL     1      -3.263  11.695  18.681  0.00  0.00    +0.000 N 
ATOM     13  C   UNL     1      -3.058  12.403  19.839  0.00  0.00    +0.000 C 
ATOM     14  O   UNL     1      -3.863  13.020  20.509  0.00  0.00    +0.000 OA
ENDROOT
BRANCH   1  18
ATOM     15  N   UNL     1       2.227   8.546  17.592  0.00  0.00    +0.000 N 
ATOM     16  C   UNL     1       1.563   9.168  18.639  0.00  0.00    +0.000 C 
ATOM     17  O   UNL     1       1.416   8.690  19.756  0.00  0.00    +0.000 OA
ATOM     18  N   UNL     1       1.033  10.406  18.274  0.00  0.00    +0.000 N 
ATOM     19  H   UNL     1       2.349   9.029  16.721  0.00  0.00    +0.000 HD
ATOM     20  H   UNL     1       0.904  10.550  17.289  0.00  0.00    +0.000 HD
BRANCH  15  26
ATOM     21  C   UNL     1       1.620   3.868  18.413  0.00  0.00    +0.000 C 
ATOM     22  C   UNL     1       2.578   4.976  18.102  0.00  0.00    +0.000 A 
ATOM     23  C   UNL     1       3.937   4.760  17.959  0.00  0.00    +0.000 A 
ATOM     24  C   UNL     1       4.752   5.857  17.694  0.00  0.00    +0.000 A 
ATOM     25  C   UNL     1       4.189   7.132  17.583  0.00  0.00    +0.000 A 
ATOM     26  C   UNL     1       2.815   7.270  17.726  0.00  0.00    +0.000 A 
ATOM     27  N   UNL     1       2.037   6.204  17.980  0.00  0.00    +0.000 NA
ENDBRANCH  15  26
ENDBRANCH   1  18
BRANCH   9  28
ATOM     28  O   UNL     1      -3.206   9.910  14.925  0.00  0.00    +0.000 OA
ATOM     29  H   UNL     1      -4.059   9.535  14.642  0.00  0.00    +0.000 HD
ENDBRANCH   9  28
TORSDOF 3
ENDMDL
MODEL 4
REMARK VINA RESULT:      -8.4      2.412      4.348
REMARK  Name = 
REMARK  4 active torsions:
REMARK  status: ('A' for Active; 'I' for Inactive)
REMARK    1  A    between atoms: C_1  and  C_2
REMARK    2  A    between atoms: C_6  and  N_7
REMARK    3  A    between atoms: N_10  and  C_11
REMARK    4  A    between atoms: C_19  and  O_20
REMARK                            x       y       z     vdW  Elec       q    Type
REMARK                         _______ _______ _______ _____ _____    ______ ____
ROOT
ATOM      1  C   UNL     1       3.687   6.944  17.975  0.00  0.00    +0.000 A 
ATOM      2  C   UNL     1       4.809   7.638  17.475  0.00  0.00    +0.000 A 
ATOM      3  C   UNL     1       5.777   7.032  16.654  0.00  0.00    +0.000 A 
ATOM      4  C   UNL     1       5.698   5.682  16.360  0.00  0.00    +0.000 A 
ATOM      5  C   UNL     1       4.653   4.982  16.930  0.00  0.00    +0.000 A 
ATOM      6  C   UNL     1       3.639   5.576  17.717  0.00  0.00    +0.000 A 
ATOM      7  C   UNL     1       2.611   4.521  17.985  0.00  0.00    +0.000 C 
ATOM      8  C   UNL     1       1.995   4.382  19.365  0.00  0.00    +0.000 C 
ATOM      9  C   UNL     1       1.081   3.154  19.323  0.00  0.00    +0.000 C 
ATOM     10  C   UNL     1       1.930   1.897  19.128  0.00  0.00    +0.000 C 
ATOM     11  C   UNL     1       2.706   1.981  17.815  0.00  0.00    +0.000 C 
ATOM     12  N   UNL     1       3.313   3.289  17.632  0.00  0.00    +0.000 N 
ATOM     13  C   UNL     1       4.412   3.532  16.845  0.00  0.00    +0.000 C 
ATOM     14  O   UNL     1       5.092   2.742  16.220  0.00  0.00    +0.000 OA
ENDROOT
BRANCH   1  18
ATOM     15  N   UNL     1       1.108   9.267  19.163  0.00  0.00    +0.000 N 
ATOM     16  C   UNL     1       2.011   8.764  18.238  0.00  0.00    +0.000 C 
ATOM     17  O   UNL     1       2.208   9.238  17.127  0.00  0.00    +0.000 OA
ATOM     18  N   UNL     1       2.659   7.616  18.694  0.00  0.00    +0.000 N 
ATOM     19  H   UNL     1       1.043   8.851  20.075  0.00  0.00    +0.000 HD
ATOM     20  H   UNL     1       2.199   7.124  19.437  0.00  0.00    +0.000 HD
BRANCH  15  26
ATOM     21  C   UNL     1      -2.928  11.061  17.316  0.00  0.00    +0.000 C 
ATOM     22  C   UNL     1      -1.644  11.336  18.034  0.00  0.00    +0.000 A 
ATOM     23  C   UNL     1      -1.265  12.613  18.409  0.00  0.00    +0.000 A 
ATOM     24  C   UNL     1      -0.039  12.772  19.052  0.00  0.00    +0.000 A 
ATOM     25  C   UNL     1       0.768  11.657  19.296  0.00  0.00    +0.000 A 
ATOM     26  C   UNL     1       0.316  10.405  18.902  0.00  0.00    +0.000 A 
ATOM     27  N   UNL     1      -0.869  10.262  18.284  0.00  0.00    +0.000 NA
ENDBRANCH  15  26
ENDBRANCH   1  18
BRANCH   9  28
ATOM     28  O   UNL     1       0.335   3.070  20.527  0.00  0.00    +0.000 OA
ATOM     29  H   UNL     1       0.897   2.622  21.183  0.00  0.00    +0.000 HD
ENDBRANCH   9  28
TORSDOF 3
ENDMDL
MODEL 5
REMARK VINA RESULT:      -8.3      3.727      8.724
REMARK  Name = 
REMARK  4 active torsions:
REMARK  status: ('A' for Active; 'I' for Inactive)
REMARK    1  A    between atoms: C_1  and  C_2
REMARK    2  A    between atoms: C_6  and  N_7
REMARK    3  A    between atoms: N_10  and  C_11
REMARK    4  A    between atoms: C_19  and  O_20
REMARK                            x       y       z     vdW  Elec       q    Type
REMARK                         _______ _______ _______ _____ _____    ______ ____
ROOT
ATOM      1  C   UNL     1       0.548  10.876  19.263  0.00  0.00    +0.000 A 
ATOM      2  C   UNL     1       1.315  11.585  20.212  0.00  0.00    +0.000 A 
ATOM      3  C   UNL     1       0.748  12.490  21.128  0.00  0.00    +0.000 A 
ATOM      4  C   UNL     1      -0.605  12.776  21.082  0.00  0.00    +0.000 A 
ATOM      5  C   UNL     1      -1.338  12.154  20.090  0.00  0.00    +0.000 A 
ATOM      6  C   UNL     1      -0.804  11.204  19.189  0.00  0.00    +0.000 A 
ATOM      7  C   UNL     1      -1.950  10.644  18.405  0.00  0.00    +0.000 C 
ATOM      8  C   UNL     1      -1.821  10.420  16.909  0.00  0.00    +0.000 C 
ATOM      9  C   UNL     1      -3.190   9.952  16.409  0.00  0.00    +0.000 C 
ATOM     10  C   UNL     1      -4.202  11.088  16.565  0.00  0.00    +0.000 C 
ATOM     11  C   UNL     1      -4.323  11.491  18.034  0.00  0.00    +0.000 C 
ATOM     12  N   UNL     1      -3.021  11.601  18.670  0.00  0.00    +0.000 N 
ATOM     13  C   UNL     1      -2.762  12.368  19.779  0.00  0.00    +0.000 C 
ATOM     14  O   UNL     1      -3.511  13.108  20.388  0.00  0.00    +0.000 OA
ENDROOT
BRANCH   1  18
ATOM     15  N   UNL     1       2.216   7.897  17.922  0.00  0.00    +0.000 N 
ATOM     16  C   UNL     1       1.628   8.661  18.919  0.00  0.00    +0.000 C 
ATOM     17  O   UNL     1       1.515   8.316  20.088  0.00  0.00    +0.000 OA
ATOM     18  N   UNL     1       1.131   9.873  18.439  0.00  0.00    +0.000 N 
ATOM     19  H   UNL     1       2.317   8.274  16.997  0.00  0.00    +0.000 HD
ATOM     20  H   UNL     1       0.962   9.913  17.451  0.00  0.00    +0.000 HD
BRANCH  15  26
ATOM     21  C   UNL     1       6.017   5.288  19.217  0.00  0.00    +0.000 C 
ATOM     22  C   UNL     1       4.574   5.295  18.817  0.00  0.00    +0.000 A 
ATOM     23  C   UNL     1       3.833   4.132  18.703  0.00  0.00    +0.000 A 
ATOM     24  C   UNL     1       2.503   4.238  18.303  0.00  0.00    +0.000 A 
ATOM     25  C   UNL     1       1.957   5.495  18.025  0.00  0.00    +0.000 A 
ATOM     26  C   UNL     1       2.759   6.618  18.174  0.00  0.00    +0.000 A 
ATOM     27  N   UNL     1       4.040   6.506  18.563  0.00  0.00    +0.000 NA
ENDBRANCH  15  26
ENDBRANCH   1  18
BRANCH   9  28
ATOM     28  O   UNL     1      -3.094   9.552  15.051  0.00  0.00    +0.000 OA
ATOM     29  H   UNL     1      -2.229   9.857  14.723  0.00  0.00    +0.000 HD
ENDBRANCH   9  28
TORSDOF 3
ENDMDL
MODEL 6
REMARK VINA RESULT:      -8.1      2.502      8.363
REMARK  Name = 
REMARK  4 active torsions:
REMARK  status: ('A' for Active; 'I' for Inactive)
REMARK    1  A    between atoms: C_1  and  C_2
REMARK    2  A    between atoms: C_6  and  N_7
REMARK    3  A    between atoms: N_10  and  C_11
REMARK    4  A    between atoms: C_19  and  O_20
REMARK                            x       y       z     vdW  Elec       q    Type
REMARK                         _______ _______ _______ _____ _____    ______ ____
ROOT
ATOM      1  C   UNL     1       0.710   9.524  20.554  0.00  0.00    +0.000 A 
ATOM      2  C   UNL     1       0.313   8.675  21.608  0.00  0.00    +0.000 A 
ATOM      3  C   UNL     1      -0.394   9.135  22.734  0.00  0.00    +0.000 A 
ATOM      4  C   UNL     1      -0.668  10.484  22.884  0.00  0.00    +0.000 A 
ATOM      5  C   UNL     1      -0.194  11.327  21.899  0.00  0.00    +0.000 A 
ATOM      6  C   UNL     1       0.475  10.885  20.734  0.00  0.00    +0.000 A 
ATOM      7  C   UNL     1       0.657  12.079  19.848  0.00  0.00    +0.000 C 
ATOM      8  C   UNL     1       1.970  12.302  19.120  0.00  0.00    +0.000 C 
ATOM      9  C   UNL     1       1.859  13.651  18.404  0.00  0.00    +0.000 C 
ATOM     10  C   UNL     1       1.776  14.770  19.443  0.00  0.00    +0.000 C 
ATOM     11  C   UNL     1       0.548  14.578  20.330  0.00  0.00    +0.000 C 
ATOM     12  N   UNL     1       0.402  13.196  20.755  0.00  0.00    +0.000 N 
ATOM     13  C   UNL     1      -0.274  12.798  21.882  0.00  0.00    +0.000 C 
ATOM     14  O   UNL     1      -0.811  13.482  22.731  0.00  0.00    +0.000 OA
ENDROOT
BRANCH   1  18
ATOM     15  N   UNL     1       2.578   7.583  18.064  0.00  0.00    +0.000 N 
ATOM     16  C   UNL     1       2.034   7.818  19.318  0.00  0.00    +0.000 C 
ATOM     17  O   UNL     1       2.137   7.064  20.277  0.00  0.00    +0.000 OA
ATOM     18  N   UNL     1       1.307   9.007  19.371  0.00  0.00    +0.000 N 
ATOM     19  H   UNL     1       2.492   8.277  17.345  0.00  0.00    +0.000 HD
ATOM     20  H   UNL     1       0.997   9.366  18.486  0.00  0.00    +0.000 HD
BRANCH  15  26
ATOM     21  C   UNL     1       2.638   2.825  17.534  0.00  0.00    +0.000 C 
ATOM     22  C   UNL     1       3.412   4.105  17.483  0.00  0.00    +0.000 A 
ATOM     23  C   UNL     1       4.760   4.142  17.175  0.00  0.00    +0.000 A 
ATOM     24  C   UNL     1       5.401   5.379  17.175  0.00  0.00    +0.000 A 
ATOM     25  C   UNL     1       4.679   6.536  17.486  0.00  0.00    +0.000 A 
ATOM     26  C   UNL     1       3.326   6.422  17.773  0.00  0.00    +0.000 A 
ATOM     27  N   UNL     1       2.717   5.224  17.768  0.00  0.00    +0.000 NA
ENDBRANCH  15  26
ENDBRANCH   1  18
BRANCH   9  28
ATOM     28  O   UNL     1       2.983  13.838  17.557  0.00  0.00    +0.000 OA
ATOM     29  H   UNL     1       2.949  13.142  16.877  0.00  0.00    +0.000 HD
ENDBRANCH   9  28
TORSDOF 3
ENDMDL
MODEL 7
REMARK VINA RESULT:      -8.0      2.498      8.301
REMARK  Name = 
REMARK  4 active torsions:
REMARK  status: ('A' for Active; 'I' for Inactive)
REMARK    1  A    between atoms: C_1  and  C_2
REMARK    2  A    between atoms: C_6  and  N_7
REMARK    3  A    between atoms: N_10  and  C_11
REMARK    4  A    between atoms: C_19  and  O_20
REMARK                            x       y       z     vdW  Elec       q    Type
REMARK                         _______ _______ _______ _____ _____    ______ ____
ROOT
ATOM      1  C   UNL     1       0.673   9.575  20.760  0.00  0.00    +0.000 A 
ATOM      2  C   UNL     1       0.266   8.796  21.864  0.00  0.00    +0.000 A 
ATOM      3  C   UNL     1      -0.462   9.327  22.945  0.00  0.00    +0.000 A 
ATOM      4  C   UNL     1      -0.748  10.680  22.997  0.00  0.00    +0.000 A 
ATOM      5  C   UNL     1      -0.264  11.458  21.964  0.00  0.00    +0.000 A 
ATOM      6  C   UNL     1       0.425  10.943  20.842  0.00  0.00    +0.000 A 
ATOM      7  C   UNL     1       0.613  12.075  19.879  0.00  0.00    +0.000 C 
ATOM      8  C   UNL     1       1.936  12.258  19.157  0.00  0.00    +0.000 C 
ATOM      9  C   UNL     1       1.826  13.553  18.349  0.00  0.00    +0.000 C 
ATOM     10  C   UNL     1       1.719  14.740  19.307  0.00  0.00    +0.000 C 
ATOM     11  C   UNL     1       0.478  14.600  20.187  0.00  0.00    +0.000 C 
ATOM     12  N   UNL     1       0.335  13.249  20.703  0.00  0.00    +0.000 N 
ATOM     13  C   UNL     1      -0.355  12.923  21.845  0.00  0.00    +0.000 C 
ATOM     14  O   UNL     1      -0.910  13.659  22.637  0.00  0.00    +0.000 OA
ENDROOT
BRANCH   1  18
ATOM     15  N   UNL     1       2.473   7.404  18.412  0.00  0.00    +0.000 N 
ATOM     16  C   UNL     1       1.865   7.710  19.621  0.00  0.00    +0.000 C 
ATOM     17  O   UNL     1       1.794   6.952  20.579  0.00  0.00    +0.000 OA
ATOM     18  N   UNL     1       1.293   8.983  19.624  0.00  0.00    +0.000 N 
ATOM     19  H   UNL     1       2.533   8.102  17.693  0.00  0.00    +0.000 HD
ATOM     20  H   UNL     1       1.102   9.375  18.721  0.00  0.00    +0.000 HD
BRANCH  15  26
ATOM     21  C   UNL     1       6.524   4.866  18.154  0.00  0.00    +0.000 C 
ATOM     22  C   UNL     1       5.030   4.864  18.051  0.00  0.00    +0.000 A 
ATOM     23  C   UNL     1       4.312   3.722  17.743  0.00  0.00    +0.000 A 
ATOM     24  C   UNL     1       2.927   3.824  17.646  0.00  0.00    +0.000 A 
ATOM     25  C   UNL     1       2.303   5.058  17.855  0.00  0.00    +0.000 A 
ATOM     26  C   UNL     1       3.088   6.157  18.173  0.00  0.00    +0.000 A 
ATOM     27  N   UNL     1       4.424   6.048  18.267  0.00  0.00    +0.000 NA
ENDBRANCH  15  26
ENDBRANCH   1  18
BRANCH   9  28
ATOM     28  O   UNL     1       2.961  13.691  17.509  0.00  0.00    +0.000 OA
ATOM     29  H   UNL     1       2.890  13.011  16.815  0.00  0.00    +0.000 HD
ENDBRANCH   9  28
TORSDOF 3
ENDMDL
MODEL 8
REMARK VINA RESULT:      -8.0      1.412      1.848
REMARK  Name = 
REMARK  4 active torsions:
REMARK  status: ('A' for Active; 'I' for Inactive)
REMARK    1  A    between atoms: C_1  and  C_2
REMARK    2  A    between atoms: C_6  and  N_7
REMARK    3  A    between atoms: N_10  and  C_11
REMARK    4  A    between atoms: C_19  and  O_20
REMARK                            x       y       z     vdW  Elec       q    Type
REMARK                         _______ _______ _______ _____ _____    ______ ____
ROOT
ATOM      1  C   UNL     1       2.129   5.843  19.869  0.00  0.00    +0.000 A 
ATOM      2  C   UNL     1       1.312   5.167  20.799  0.00  0.00    +0.000 A 
ATOM      3  C   UNL     1       1.647   3.912  21.338  0.00  0.00    +0.000 A 
ATOM      4  C   UNL     1       2.784   3.248  20.909  0.00  0.00    +0.000 A 
ATOM      5  C   UNL     1       3.531   3.867  19.927  0.00  0.00    +0.000 A 
ATOM      6  C   UNL     1       3.244   5.150  19.405  0.00  0.00    +0.000 A 
ATOM      7  C   UNL     1       4.383   5.528  18.508  0.00  0.00    +0.000 C 
ATOM      8  C   UNL     1       4.118   6.194  17.170  0.00  0.00    +0.000 C 
ATOM      9  C   UNL     1       5.471   6.339  16.469  0.00  0.00    +0.000 C 
ATOM     10  C   UNL     1       6.018   4.952  16.132  0.00  0.00    +0.000 C 
ATOM     11  C   UNL     1       6.207   4.133  17.407  0.00  0.00    +0.000 C 
ATOM     12  N   UNL     1       5.065   4.253  18.298  0.00  0.00    +0.000 N 
ATOM     13  C   UNL     1       4.718   3.323  19.246  0.00  0.00    +0.000 C 
ATOM     14  O   UNL     1       5.234   2.248  19.485  0.00  0.00    +0.000 OA
ENDROOT
BRANCH   1  18
ATOM     15  N   UNL     1       1.139   9.367  19.628  0.00  0.00    +0.000 N 
ATOM     16  C   UNL     1       1.456   8.199  20.305  0.00  0.00    +0.000 C 
ATOM     17  O   UNL     1       1.452   8.074  21.523  0.00  0.00    +0.000 OA
ATOM     18  N   UNL     1       1.828   7.167  19.443  0.00  0.00    +0.000 N 
ATOM     19  H   UNL     1       1.116   9.373  18.625  0.00  0.00    +0.000 HD
ATOM     20  H   UNL     1       2.128   7.452  18.529  0.00  0.00    +0.000 HD
BRANCH  15  26
ATOM     21  C   UNL     1      -1.566  11.434  22.995  0.00  0.00    +0.000 C 
ATOM     22  C   UNL     1      -0.516  11.611  21.943  0.00  0.00    +0.000 A 
ATOM     23  C   UNL     1       0.042  12.843  21.655  0.00  0.00    +0.000 A 
ATOM     24  C   UNL     1       0.996  12.912  20.642  0.00  0.00    +0.000 A 
ATOM     25  C   UNL     1       1.359  11.754  19.949  0.00  0.00    +0.000 A 
ATOM     26  C   UNL     1       0.765  10.550  20.302  0.00  0.00    +0.000 A 
ATOM     27  N   UNL     1      -0.152  10.494  21.282  0.00  0.00    +0.000 NA
ENDBRANCH  15  26
ENDBRANCH   1  18
BRANCH   9  28
ATOM     28  O   UNL     1       5.320   7.116  15.292  0.00  0.00    +0.000 OA
ATOM     29  H   UNL     1       5.686   6.596  14.555  0.00  0.00    +0.000 HD
ENDBRANCH   9  28
TORSDOF 3
ENDMDL
MODEL 9
REMARK VINA RESULT:      -8.0      2.442      2.807
REMARK  Name = 
REMARK  4 active torsions:
REMARK  status: ('A' for Active; 'I' for Inactive)
REMARK    1  A    between atoms: C_1  and  C_2
REMARK    2  A    between atoms: C_6  and  N_7
REMARK    3  A    between atoms: N_10  and  C_11
REMARK    4  A    between atoms: C_19  and  O_20
REMARK                            x       y       z     vdW  Elec       q    Type
REMARK                         _______ _______ _______ _____ _____    ______ ____
ROOT
ATOM      1  C   UNL     1       2.321   5.860  17.936  0.00  0.00    +0.000 A 
ATOM      2  C   UNL     1       1.196   5.011  17.987  0.00  0.00    +0.000 A 
ATOM      3  C   UNL     1       1.235   3.726  18.557  0.00  0.00    +0.000 A 
ATOM      4  C   UNL     1       2.426   3.209  19.035  0.00  0.00    +0.000 A 
ATOM      5  C   UNL     1       3.548   4.003  18.896  0.00  0.00    +0.000 A 
ATOM      6  C   UNL     1       3.527   5.317  18.373  0.00  0.00    +0.000 A 
ATOM      7  C   UNL     1       4.897   5.890  18.562  0.00  0.00    +0.000 C 
ATOM      8  C   UNL     1       5.550   6.700  17.456  0.00  0.00    +0.000 C 
ATOM      9  C   UNL     1       6.968   7.034  17.927  0.00  0.00    +0.000 C 
ATOM     10  C   UNL     1       7.786   5.746  18.025  0.00  0.00    +0.000 C 
ATOM     11  C   UNL     1       7.146   4.787  19.027  0.00  0.00    +0.000 C 
ATOM     12  N   UNL     1       5.706   4.707  18.850  0.00  0.00    +0.000 N 
ATOM     13  C   UNL     1       4.934   3.640  19.237  0.00  0.00    +0.000 C 
ATOM     14  O   UNL     1       5.283   2.586  19.731  0.00  0.00    +0.000 OA
ENDROOT
BRANCH   1  18
ATOM     15  N   UNL     1       1.840   9.480  17.588  0.00  0.00    +0.000 N 
ATOM     16  C   UNL     1       1.976   8.297  18.300  0.00  0.00    +0.000 C 
ATOM     17  O   UNL     1       1.928   8.206  19.520  0.00  0.00    +0.000 OA
ATOM     18  N   UNL     1       2.218   7.201  17.471  0.00  0.00    +0.000 N 
ATOM     19  H   UNL     1       1.840   9.462  16.585  0.00  0.00    +0.000 HD
ATOM     20  H   UNL     1       2.575   7.417  16.559  0.00  0.00    +0.000 HD
BRANCH  15  26
ATOM     21  C   UNL     1       3.349  13.956  18.373  0.00  0.00    +0.000 C 
ATOM     22  C   UNL     1       2.298  12.920  18.629  0.00  0.00    +0.000 A 
ATOM     23  C   UNL     1       1.198  13.166  19.431  0.00  0.00    +0.000 A 
ATOM     24  C   UNL     1       0.286  12.132  19.630  0.00  0.00    +0.000 A 
ATOM     25  C   UNL     1       0.501  10.889  19.027  0.00  0.00    +0.000 A 
ATOM     26  C   UNL     1       1.621  10.721  18.225  0.00  0.00    +0.000 A 
ATOM     27  N   UNL     1       2.494  11.725  18.038  0.00  0.00    +0.000 NA
ENDBRANCH  15  26
ENDBRANCH   1  18
BRANCH   9  28
ATOM     28  O   UNL     1       7.573   7.942  17.019  0.00  0.00    +0.000 OA
ATOM     29  H   UNL     1       7.188   7.770  16.141  0.00  0.00    +0.000 HD
ENDBRANCH   9  28
TORSDOF 3
ENDMDL
