MODEL 1
REMARK VINA RESULT:      -7.7      0.000      0.000
REMARK  Name = 
REMARK  7 active torsions:
REMARK  status: ('A' for Active; 'I' for Inactive)
REMARK    1  A    between atoms: C_1  and  C_2
REMARK    2  A    between atoms: C_2  and  N_3
REMARK    3  A    between atoms: C_7  and  C_8
REMARK    4  A    between atoms: C_8  and  O_9
REMARK    5  A    between atoms: O_9  and  C_10
REMARK    6  A    between atoms: C_14  and  C_15
REMARK    7  A    between atoms: N_21  and  C_22
REMARK                            x       y       z     vdW  Elec       q    Type
REMARK                         _______ _______ _______ _____ _____    ______ ____
ROOT
ATOM      1  N   UNL     1      -1.803  12.592  22.463  0.00  0.00    +0.000 N 
ATOM      2  C   UNL     1      -0.970  11.518  22.150  0.00  0.00    +0.000 A 
ATOM      3  N   UNL     1      -0.487  10.729  23.146  0.00  0.00    +0.000 NA
ATOM      4  C   UNL     1       0.212   9.610  22.813  0.00  0.00    +0.000 A 
ATOM      5  C   UNL     1       0.518   9.245  21.511  0.00  0.00    +0.000 A 
ATOM      6  C   UNL     1       0.110  10.114  20.508  0.00  0.00    +0.000 A 
ATOM      7  C   UNL     1      -0.671  11.224  20.835  0.00  0.00    +0.000 A 
ATOM      8  C   UNL     1      -1.210  12.002  19.728  0.00  0.00    +0.000 C 
ATOM      9  O   UNL     1      -0.439  12.335  18.829  0.00  0.00    +0.000 OA
ATOM     10  N   UNL     1      -2.595  12.011  19.607  0.00  0.00    +0.000 N 
ATOM     11  C   UNL     1      -3.092  11.755  18.265  0.00  0.00    +0.000 C 
ATOM     12  C   UNL     1      -3.498  12.412  20.661  0.00  0.00    +0.000 A 
ATOM     13  C   UNL     1      -4.869  12.544  20.351  0.00  0.00    +0.000 A 
ATOM     14  C   UNL     1      -5.773  13.052  21.279  0.00  0.00    +0.000 A 
ATOM     15  C   UNL     1      -5.275  13.443  22.494  0.00  0.00    +0.000 A 
ATOM     16 CL   UNL     1      -6.304  14.073  23.709  0.00  0.00    +0.000 Cl
ATOM     17  N   UNL     1      -3.978  13.352  22.844  0.00  0.00    +0.000 NA
ATOM     18  C   UNL     1      -3.094  12.806  21.962  0.00  0.00    +0.000 A 
ENDROOT
BRANCH   1  20
ATOM     19  C   UNL     1      -0.299  14.596  22.620  0.00  0.00    +0.000 C 
ATOM     20  C   UNL     1      -1.226  13.624  23.328  0.00  0.00    +0.000 C 
ENDBRANCH   1  20
BRANCH   5  21
ATOM     21  C   UNL     1       1.209   7.961  21.161  0.00  0.00    +0.000 C 
BRANCH  21  22
ATOM     22  O   UNL     1       1.810   8.074  19.874  0.00  0.00    +0.000 OA
BRANCH  22  23
ATOM     23  C   UNL     1       2.389   6.922  19.409  0.00  0.00    +0.000 A 
ATOM     24  C   UNL     1       2.172   5.782  20.172  0.00  0.00    +0.000 A 
ATOM     25  C   UNL     1       2.739   4.594  19.747  0.00  0.00    +0.000 A 
ATOM     26  N   UNL     1       3.509   4.480  18.642  0.00  0.00    +0.000 NA
ATOM     27  C   UNL     1       3.742   5.605  17.932  0.00  0.00    +0.000 A 
ATOM     28  C   UNL     1       4.633   5.500  16.732  0.00  0.00    +0.000 C 
ATOM     29  C   UNL     1       3.203   6.840  18.282  0.00  0.00    +0.000 A 
ENDBRANCH  22  23
ENDBRANCH  21  22
ENDBRANCH   5  21
TORSDOF 4
ENDMDL
MODEL 2
REMARK VINA RESULT:      -7.6      0.606      1.389
REMARK  Name = 
REMARK  7 active torsions:
REMARK  status: ('A' for Active; 'I' for Inactive)
REMARK    1  A    between atoms: C_1  and  C_2
REMARK    2  A    between atoms: C_2  and  N_3
REMARK    3  A    between atoms: C_7  and  C_8
REMARK    4  A    between atoms: C_8  and  O_9
REMARK    5  A    between atoms: O_9  and  C_10
REMARK    6  A    between atoms: C_14  and  C_15
REMARK    7  A    between atoms: N_21  and  C_22
REMARK                            x       y       z     vdW  Elec       q    Type
REMARK                         _______ _______ _______ _____ _____    ______ ____
ROOT
ATOM      1  N   UNL     1      -1.666  12.549  22.276  0.00  0.00    +0.000 N 
ATOM      2  C   UNL     1      -0.793  11.477  22.086  0.00  0.00    +0.000 A 
ATOM      3  N   UNL     1      -0.460  10.688  23.141  0.00  0.00    +0.000 NA
ATOM      4  C   UNL     1       0.283   9.570  22.912  0.00  0.00    +0.000 A 
ATOM      5  C   UNL     1       0.776   9.208  21.668  0.00  0.00    +0.000 A 
ATOM      6  C   UNL     1       0.518  10.078  20.617  0.00  0.00    +0.000 A 
ATOM      7  C   UNL     1      -0.305  11.186  20.828  0.00  0.00    +0.000 A 
ATOM      8  C   UNL     1      -0.678  11.965  19.656  0.00  0.00    +0.000 C 
ATOM      9  O   UNL     1       0.215  12.302  18.880  0.00  0.00    +0.000 OA
ATOM     10  N   UNL     1      -2.030  11.972  19.334  0.00  0.00    +0.000 N 
ATOM     11  C   UNL     1      -2.326  11.719  17.934  0.00  0.00    +0.000 C 
ATOM     12  C   UNL     1      -3.079  12.370  20.246  0.00  0.00    +0.000 A 
ATOM     13  C   UNL     1      -4.390  12.500  19.738  0.00  0.00    +0.000 A 
ATOM     14  C   UNL     1      -5.421  13.005  20.525  0.00  0.00    +0.000 A 
ATOM     15  C   UNL     1      -5.107  13.394  21.801  0.00  0.00    +0.000 A 
ATOM     16 CL   UNL     1      -6.304  14.020  22.853  0.00  0.00    +0.000 Cl
ATOM     17  N   UNL     1      -3.875  13.305  22.337  0.00  0.00    +0.000 NA
ATOM     18  C   UNL     1      -2.870  12.762  21.592  0.00  0.00    +0.000 A 
ENDROOT
BRANCH   1  20
ATOM     19  C   UNL     1      -0.223  14.571  22.647  0.00  0.00    +0.000 C 
ATOM     20  C   UNL     1      -1.223  13.581  23.217  0.00  0.00    +0.000 C 
ENDBRANCH   1  20
BRANCH   5  21
ATOM     21  C   UNL     1       1.514   7.926  21.421  0.00  0.00    +0.000 C 
BRANCH  21  22
ATOM     22  O   UNL     1       1.933   7.868  20.060  0.00  0.00    +0.000 OA
BRANCH  22  23
ATOM     23  C   UNL     1       2.294   6.619  19.625  0.00  0.00    +0.000 A 
ATOM     24  C   UNL     1       2.961   6.569  18.408  0.00  0.00    +0.000 A 
ATOM     25  C   UNL     1       3.344   5.331  17.924  0.00  0.00    +0.000 A 
ATOM     26  N   UNL     1       3.090   4.164  18.557  0.00  0.00    +0.000 NA
ATOM     27  C   UNL     1       2.408   4.227  19.721  0.00  0.00    +0.000 A 
ATOM     28  C   UNL     1       2.080   2.936  20.407  0.00  0.00    +0.000 C 
ATOM     29  C   UNL     1       1.994   5.430  20.284  0.00  0.00    +0.000 A 
ENDBRANCH  22  23
ENDBRANCH  21  22
ENDBRANCH   5  21
TORSDOF 4
ENDMDL
MODEL 3
REMARK VINA RESULT:      -7.4      2.826      4.458
REMARK  Name = 
REMARK  7 active torsions:
REMARK  status: ('A' for Active; 'I' for Inactive)
REMARK    1  A    between atoms: C_1  and  C_2
REMARK    2  A    between atoms: C_2  and  N_3
REMARK    3  A    between atoms: C_7  and  C_8
REMARK    4  A    between atoms: C_8  and  O_9
REMARK    5  A    between atoms: O_9  and  C_10
REMARK    6  A    between atoms: C_14  and  C_15
REMARK    7  A    between atoms: N_21  and  C_22
REMARK                            x       y       z     vdW  Elec       q    Type
REMARK                         _______ _______ _______ _____ _____    ______ ____
ROOT
ATOM      1  N   UNL     1      -0.523  10.924  18.999  0.00  0.00    +0.000 N 
ATOM      2  C   UNL     1       0.371   9.856  18.913  0.00  0.00    +0.000 A 
ATOM      3  N   UNL     1       1.200   9.759  17.840  0.00  0.00    +0.000 NA
ATOM      4  C   UNL     1       2.155   8.790  17.839  0.00  0.00    +0.000 A 
ATOM      5  C   UNL     1       2.306   7.848  18.845  0.00  0.00    +0.000 A 
ATOM      6  C   UNL     1       1.387   7.892  19.884  0.00  0.00    +0.000 A 
ATOM      7  C   UNL     1       0.451   8.928  19.931  0.00  0.00    +0.000 A 
ATOM      8  C   UNL     1      -0.372   9.020  21.128  0.00  0.00    +0.000 C 
ATOM      9  O   UNL     1      -0.924   7.996  21.529  0.00  0.00    +0.000 OA
ATOM     10  N   UNL     1      -0.196  10.162  21.902  0.00  0.00    +0.000 N 
ATOM     11  C   UNL     1      -0.041   9.915  23.326  0.00  0.00    +0.000 C 
ATOM     12  C   UNL     1      -0.327  11.510  21.400  0.00  0.00    +0.000 A 
ATOM     13  C   UNL     1      -0.297  12.573  22.329  0.00  0.00    +0.000 A 
ATOM     14  C   UNL     1      -0.548  13.884  21.934  0.00  0.00    +0.000 A 
ATOM     15  C   UNL     1      -0.852  14.096  20.614  0.00  0.00    +0.000 A 
ATOM     16 CL   UNL     1      -1.169  15.672  20.023  0.00  0.00    +0.000 Cl
ATOM     17  N   UNL     1      -0.906  13.123  19.685  0.00  0.00    +0.000 NA
ATOM     18  C   UNL     1      -0.609  11.844  20.051  0.00  0.00    +0.000 A 
ENDROOT
BRANCH   1  20
ATOM     19  C   UNL     1      -2.472   9.851  17.834  0.00  0.00    +0.000 C 
ATOM     20  C   UNL     1      -1.512  11.024  17.922  0.00  0.00    +0.000 C 
ENDBRANCH   1  20
BRANCH   5  21
ATOM     21  C   UNL     1       3.423   6.846  18.869  0.00  0.00    +0.000 C 
BRANCH  21  22
ATOM     22  O   UNL     1       3.203   5.859  17.865  0.00  0.00    +0.000 OA
BRANCH  22  23
ATOM     23  C   UNL     1       2.822   4.632  18.343  0.00  0.00    +0.000 A 
ATOM     24  C   UNL     1       2.848   3.588  17.429  0.00  0.00    +0.000 A 
ATOM     25  C   UNL     1       2.469   2.330  17.861  0.00  0.00    +0.000 A 
ATOM     26  N   UNL     1       2.053   2.061  19.119  0.00  0.00    +0.000 NA
ATOM     27  C   UNL     1       1.997   3.094  19.987  0.00  0.00    +0.000 A 
ATOM     28  C   UNL     1       1.493   2.816  21.370  0.00  0.00    +0.000 C 
ATOM     29  C   UNL     1       2.370   4.389  19.638  0.00  0.00    +0.000 A 
ENDBRANCH  22  23
ENDBRANCH  21  22
ENDBRANCH   5  21
TORSDOF 4
ENDMDL
MODEL 4
REMARK VINA RESULT:      -7.4      3.154      4.755
REMARK  Name = 
REMARK  7 active torsions:
REMARK  status: ('A' for Active; 'I' for Inactive)
REMARK    1  A    between atoms: C_1  and  C_2
REMARK    2  A    between atoms: C_2  and  N_3
REMARK    3  A    between atoms: C_7  and  C_8
REMARK    4  A    between atoms: C_8  and  O_9
REMARK    5  A    between atoms: O_9  and  C_10
REMARK    6  A    between atoms: C_14  and  C_15
REMARK    7  A    between atoms: N_21  and  C_22
REMARK                            x       y       z     vdW  Elec       q    Type
REMARK                         _______ _______ _______ _____ _____    ______ ____
ROOT
ATOM      1  N   UNL     1      -0.065  10.487  18.760  0.00  0.00    +0.000 N 
ATOM      2  C   UNL     1       0.780   9.381  18.852  0.00  0.00    +0.000 A 
ATOM      3  N   UNL     1       1.667   9.128  17.854  0.00  0.00    +0.000 NA
ATOM      4  C   UNL     1       2.573   8.126  18.023  0.00  0.00    +0.000 A 
ATOM      5  C   UNL     1       2.616   7.299  19.134  0.00  0.00    +0.000 A 
ATOM      6  C   UNL     1       1.638   7.499  20.099  0.00  0.00    +0.000 A 
ATOM      7  C   UNL     1       0.753   8.571  19.969  0.00  0.00    +0.000 A 
ATOM      8  C   UNL     1      -0.137   8.833  21.092  0.00  0.00    +0.000 C 
ATOM      9  O   UNL     1      -0.761   7.885  21.566  0.00  0.00    +0.000 OA
ATOM     10  N   UNL     1       0.047  10.046  21.745  0.00  0.00    +0.000 N 
ATOM     11  C   UNL     1       0.102   9.957  23.195  0.00  0.00    +0.000 C 
ATOM     12  C   UNL     1       0.013  11.334  21.089  0.00  0.00    +0.000 A 
ATOM     13  C   UNL     1       0.037  12.493  21.895  0.00  0.00    +0.000 A 
ATOM     14  C   UNL     1      -0.126  13.759  21.341  0.00  0.00    +0.000 A 
ATOM     15  C   UNL     1      -0.337  13.833  19.989  0.00  0.00    +0.000 A 
ATOM     16 CL   UNL     1      -0.541  15.343  19.208  0.00  0.00    +0.000 Cl
ATOM     17  N   UNL     1      -0.382  12.764  19.172  0.00  0.00    +0.000 NA
ATOM     18  C   UNL     1      -0.170  11.524  19.696  0.00  0.00    +0.000 A 
ENDROOT
BRANCH   1  20
ATOM     19  C   UNL     1      -2.363   9.949  17.903  0.00  0.00    +0.000 C 
ATOM     20  C   UNL     1      -0.980  10.505  17.615  0.00  0.00    +0.000 C 
ENDBRANCH   1  20
BRANCH   5  21
ATOM     21  C   UNL     1       3.679   6.262  19.343  0.00  0.00    +0.000 C 
BRANCH  21  22
ATOM     22  O   UNL     1       3.650   5.322  18.272  0.00  0.00    +0.000 OA
BRANCH  22  23
ATOM     23  C   UNL     1       4.869   5.072  17.697  0.00  0.00    +0.000 A 
ATOM     24  C   UNL     1       5.969   5.162  18.540  0.00  0.00    +0.000 A 
ATOM     25  C   UNL     1       7.222   4.922  18.006  0.00  0.00    +0.000 A 
ATOM     26  N   UNL     1       7.442   4.624  16.707  0.00  0.00    +0.000 NA
ATOM     27  C   UNL     1       6.366   4.576  15.891  0.00  0.00    +0.000 A 
ATOM     28  C   UNL     1       6.604   4.294  14.439  0.00  0.00    +0.000 C 
ATOM     29  C   UNL     1       5.069   4.795  16.346  0.00  0.00    +0.000 A 
ENDBRANCH  22  23
ENDBRANCH  21  22
ENDBRANCH   5  21
TORSDOF 4
ENDMDL
MODEL 5
REMARK VINA RESULT:      -7.4      1.281      1.467
REMARK  Name = 
REMARK  7 active torsions:
REMARK  status: ('A' for Active; 'I' for Inactive)
REMARK    1  A    between atoms: C_1  and  C_2
REMARK    2  A    between atoms: C_2  and  N_3
REMARK    3  A    between atoms: C_7  and  C_8
REMARK    4  A    between atoms: C_8  and  O_9
REMARK    5  A    between atoms: O_9  and  C_10
REMARK    6  A    between atoms: C_14  and  C_15
REMARK    7  A    between atoms: N_21  and  C_22
REMARK                            x       y       z     vdW  Elec       q    Type
REMARK                         _______ _______ _______ _____ _____    ______ ____
ROOT
ATOM      1  N   UNL     1      -1.388  11.911  21.796  0.00  0.00    +0.000 N 
ATOM      2  C   UNL     1      -0.480  10.920  21.424  0.00  0.00    +0.000 A 
ATOM      3  N   UNL     1      -0.103   9.980  22.331  0.00  0.00    +0.000 NA
ATOM      4  C   UNL     1       0.677   8.945  21.914  0.00  0.00    +0.000 A 
ATOM      5  C   UNL     1       1.164   8.813  20.623  0.00  0.00    +0.000 A 
ATOM      6  C   UNL     1       0.859   9.834  19.733  0.00  0.00    +0.000 A 
ATOM      7  C   UNL     1      -0.000  10.860  20.132  0.00  0.00    +0.000 A 
ATOM      8  C   UNL     1      -0.419  11.806  19.108  0.00  0.00    +0.000 C 
ATOM      9  O   UNL     1       0.450  12.301  18.390  0.00  0.00    +0.000 OA
ATOM     10  N   UNL     1      -1.775  11.815  18.804  0.00  0.00    +0.000 N 
ATOM     11  C   UNL     1      -2.082  11.784  17.383  0.00  0.00    +0.000 C 
ATOM     12  C   UNL     1      -2.824  12.015  19.777  0.00  0.00    +0.000 A 
ATOM     13  C   UNL     1      -4.146  12.177  19.309  0.00  0.00    +0.000 A 
ATOM     14  C   UNL     1      -5.183  12.505  20.178  0.00  0.00    +0.000 A 
ATOM     15  C   UNL     1      -4.865  12.690  21.498  0.00  0.00    +0.000 A 
ATOM     16 CL   UNL     1      -6.068  13.087  22.650  0.00  0.00    +0.000 Cl
ATOM     17  N   UNL     1      -3.622  12.560  22.001  0.00  0.00    +0.000 NA
ATOM     18  C   UNL     1      -2.609  12.187  21.168  0.00  0.00    +0.000 A 
ENDROOT
BRANCH   1  20
ATOM     19  C   UNL     1      -0.283  14.069  22.449  0.00  0.00    +0.000 C 
ATOM     20  C   UNL     1      -0.970  12.790  22.892  0.00  0.00    +0.000 C 
ENDBRANCH   1  20
BRANCH   5  21
ATOM     21  C   UNL     1       1.945   7.618  20.160  0.00  0.00    +0.000 C 
BRANCH  21  22
ATOM     22  O   UNL     1       1.467   6.449  20.819  0.00  0.00    +0.000 OA
BRANCH  22  23
ATOM     23  C   UNL     1       1.700   5.278  20.146  0.00  0.00    +0.000 A 
ATOM     24  C   UNL     1       1.127   4.137  20.693  0.00  0.00    +0.000 A 
ATOM     25  C   UNL     1       1.335   2.929  20.053  0.00  0.00    +0.000 A 
ATOM     26  N   UNL     1       2.082   2.789  18.935  0.00  0.00    +0.000 NA
ATOM     27  C   UNL     1       2.663   3.901  18.435  0.00  0.00    +0.000 A 
ATOM     28  C   UNL     1       3.531   3.750  17.224  0.00  0.00    +0.000 C 
ATOM     29  C   UNL     1       2.498   5.158  19.011  0.00  0.00    +0.000 A 
ENDBRANCH  22  23
ENDBRANCH  21  22
ENDBRANCH   5  21
TORSDOF 4
ENDMDL
MODEL 6
REMARK VINA RESULT:      -7.3      4.441     10.531
REMARK  Name = 
REMARK  7 active torsions:
REMARK  status: ('A' for Active; 'I' for Inactive)
REMARK    1  A    between atoms: C_1  and  C_2
REMARK    2  A    between atoms: C_2  and  N_3
REMARK    3  A    between atoms: C_7  and  C_8
REMARK    4  A    between atoms: C_8  and  O_9
REMARK    5  A    between atoms: O_9  and  C_10
REMARK    6  A    between atoms: C_14  and  C_15
REMARK    7  A    between atoms: N_21  and  C_22
REMARK                            x       y       z     vdW  Elec       q    Type
REMARK                         _______ _______ _______ _____ _____    ______ ____
ROOT
ATOM      1  N   UNL     1       5.801   6.639  16.962  0.00  0.00    +0.000 N 
ATOM      2  C   UNL     1       4.638   7.038  17.620  0.00  0.00    +0.000 A 
ATOM      3  N   UNL     1       4.168   8.302  17.448  0.00  0.00    +0.000 NA
ATOM      4  C   UNL     1       2.964   8.631  17.989  0.00  0.00    +0.000 A 
ATOM      5  C   UNL     1       2.200   7.770  18.762  0.00  0.00    +0.000 A 
ATOM      6  C   UNL     1       2.739   6.517  19.019  0.00  0.00    +0.000 A 
ATOM      7  C   UNL     1       3.938   6.146  18.407  0.00  0.00    +0.000 A 
ATOM      8  C   UNL     1       4.366   4.765  18.577  0.00  0.00    +0.000 C 
ATOM      9  O   UNL     1       4.364   4.296  19.714  0.00  0.00    +0.000 OA
ATOM     10  N   UNL     1       4.415   3.995  17.420  0.00  0.00    +0.000 N 
ATOM     11  C   UNL     1       3.788   2.688  17.528  0.00  0.00    +0.000 C 
ATOM     12  C   UNL     1       5.170   4.351  16.240  0.00  0.00    +0.000 A 
ATOM     13  C   UNL     1       5.277   3.398  15.204  0.00  0.00    +0.000 A 
ATOM     14  C   UNL     1       6.095   3.622  14.101  0.00  0.00    +0.000 A 
ATOM     15  C   UNL     1       6.813   4.789  14.074  0.00  0.00    +0.000 A 
ATOM     16 CL   UNL     1       7.842   5.164  12.758  0.00  0.00    +0.000 Cl
ATOM     17  N   UNL     1       6.761   5.730  15.037  0.00  0.00    +0.000 NA
ATOM     18  C   UNL     1       5.922   5.545  16.095  0.00  0.00    +0.000 A 
ENDROOT
BRANCH   1  20
ATOM     19  C   UNL     1       7.860   6.785  18.391  0.00  0.00    +0.000 C 
ATOM     20  C   UNL     1       7.016   7.392  17.284  0.00  0.00    +0.000 C 
ENDBRANCH   1  20
BRANCH   5  21
ATOM     21  C   UNL     1       0.834   8.122  19.272  0.00  0.00    +0.000 C 
BRANCH  21  22
ATOM     22  O   UNL     1       0.737   9.532  19.453  0.00  0.00    +0.000 OA
BRANCH  22  23
ATOM     23  C   UNL     1       0.345   9.923  20.707  0.00  0.00    +0.000 A 
ATOM     24  C   UNL     1       0.513   8.984  21.717  0.00  0.00    +0.000 A 
ATOM     25  C   UNL     1       0.130   9.329  23.000  0.00  0.00    +0.000 A 
ATOM     26  N   UNL     1      -0.419  10.520  23.327  0.00  0.00    +0.000 NA
ATOM     27  C   UNL     1      -0.611  11.408  22.328  0.00  0.00    +0.000 A 
ATOM     28  C   UNL     1      -1.262  12.713  22.671  0.00  0.00    +0.000 C 
ATOM     29  C   UNL     1      -0.245  11.147  21.010  0.00  0.00    +0.000 A 
ENDBRANCH  22  23
ENDBRANCH  21  22
ENDBRANCH   5  21
TORSDOF 4
ENDMDL
MODEL 7
REMARK VINA RESULT:      -7.1      1.214      1.879
REMARK  Name = 
REMARK  7 active torsions:
REMARK  status: ('A' for Active; 'I' for Inactive)
REMARK    1  A    between atoms: C_1  and  C_2
REMARK    2  A    between atoms: C_2  and  N_3
REMARK    3  A    between atoms: C_7  and  C_8
REMARK    4  A    between atoms: C_8  and  O_9
REMARK    5  A    between atoms: O_9  and  C_10
REMARK    6  A    between atoms: C_14  and  C_15
REMARK    7  A    between atoms: N_21  and  C_22
REMARK                            x       y       z     vdW  Elec       q    Type
REMARK                         _______ _______ _______ _____ _____    ______ ____
ROOT
ATOM      1  N   UNL     1      -1.362  12.741  21.420  0.00  0.00    +0.000 N 
ATOM      2  C   UNL     1      -0.531  11.772  20.857  0.00  0.00    +0.000 A 
ATOM      3  N   UNL     1       0.314  11.066  21.654  0.00  0.00    +0.000 NA
ATOM      4  C   UNL     1       1.016  10.035  21.111  0.00  0.00    +0.000 A 
ATOM      5  C   UNL     1       0.970   9.686  19.770  0.00  0.00    +0.000 A 
ATOM      6  C   UNL     1       0.185  10.480  18.946  0.00  0.00    +0.000 A 
ATOM      7  C   UNL     1      -0.596  11.493  19.507  0.00  0.00    +0.000 A 
ATOM      8  C   UNL     1      -1.526  12.178  18.621  0.00  0.00    +0.000 C 
ATOM      9  O   UNL     1      -1.098  12.587  17.542  0.00  0.00    +0.000 OA
ATOM     10  N   UNL     1      -2.876  12.016  18.910  0.00  0.00    +0.000 N 
ATOM     11  C   UNL     1      -3.709  11.678  17.768  0.00  0.00    +0.000 C 
ATOM     12  C   UNL     1      -3.474  12.323  20.189  0.00  0.00    +0.000 A 
ATOM     13  C   UNL     1      -4.881  12.281  20.295  0.00  0.00    +0.000 A 
ATOM     14  C   UNL     1      -5.529  12.692  21.456  0.00  0.00    +0.000 A 
ATOM     15  C   UNL     1      -4.750  13.162  22.480  0.00  0.00    +0.000 A 
ATOM     16 CL   UNL     1      -5.448  13.684  23.954  0.00  0.00    +0.000 Cl
ATOM     17  N   UNL     1      -3.406  13.237  22.434  0.00  0.00    +0.000 NA
ATOM     18  C   UNL     1      -2.758  12.787  21.322  0.00  0.00    +0.000 A 
ENDROOT
BRANCH   1  20
ATOM     19  C   UNL     1      -0.014  14.845  21.167  0.00  0.00    +0.000 C 
ATOM     20  C   UNL     1      -0.688  13.852  22.098  0.00  0.00    +0.000 C 
ENDBRANCH   1  20
BRANCH   5  21
ATOM     21  C   UNL     1       1.681   8.490  19.210  0.00  0.00    +0.000 C 
BRANCH  21  22
ATOM     22  O   UNL     1       2.048   7.610  20.269  0.00  0.00    +0.000 OA
BRANCH  22  23
ATOM     23  C   UNL     1       2.096   6.285  19.920  0.00  0.00    +0.000 A 
ATOM     24  C   UNL     1       2.490   6.013  18.617  0.00  0.00    +0.000 A 
ATOM     25  C   UNL     1       2.551   4.691  18.215  0.00  0.00    +0.000 A 
ATOM     26  N   UNL     1       2.231   3.647  19.011  0.00  0.00    +0.000 NA
ATOM     27  C   UNL     1       1.814   3.929  20.265  0.00  0.00    +0.000 A 
ATOM     28  C   UNL     1       1.411   2.782  21.140  0.00  0.00    +0.000 C 
ATOM     29  C   UNL     1       1.732   5.230  20.753  0.00  0.00    +0.000 A 
ENDBRANCH  22  23
ENDBRANCH  21  22
ENDBRANCH   5  21
TORSDOF 4
ENDMDL
MODEL 8
REMARK VINA RESULT:      -7.1      1.763      2.392
REMARK  Name = 
REMARK  7 active torsions:
REMARK  status: ('A' for Active; 'I' for Inactive)
REMARK    1  A    between atoms: C_1  and  C_2
REMARK    2  A    between atoms: C_2  and  N_3
REMARK    3  A    between atoms: C_7  and  C_8
REMARK    4  A    between atoms: C_8  and  O_9
REMARK    5  A    between atoms: O_9  and  C_10
REMARK    6  A    between atoms: C_14  and  C_15
REMARK    7  A    between atoms: N_21  and  C_22
REMARK                            x       y       z     vdW  Elec       q    Type
REMARK                         _______ _______ _______ _____ _____    ______ ____
ROOT
ATOM      1  N   UNL     1      -1.491  13.264  20.169  0.00  0.00    +0.000 N 
ATOM      2  C   UNL     1      -0.689  12.189  19.787  0.00  0.00    +0.000 A 
ATOM      3  N   UNL     1       0.410  11.876  20.523  0.00  0.00    +0.000 NA
ATOM      4  C   UNL     1       1.103  10.746  20.214  0.00  0.00    +0.000 A 
ATOM      5  C   UNL     1       0.793   9.913  19.151  0.00  0.00    +0.000 A 
ATOM      6  C   UNL     1      -0.267  10.300  18.343  0.00  0.00    +0.000 A 
ATOM      7  C   UNL     1      -1.029  11.416  18.696  0.00  0.00    +0.000 A 
ATOM      8  C   UNL     1      -2.227  11.673  17.909  0.00  0.00    +0.000 C 
ATOM      9  O   UNL     1      -2.126  11.659  16.683  0.00  0.00    +0.000 OA
ATOM     10  N   UNL     1      -3.435  11.577  18.590  0.00  0.00    +0.000 N 
ATOM     11  C   UNL     1      -4.457  10.795  17.914  0.00  0.00    +0.000 C 
ATOM     12  C   UNL     1      -3.753  12.321  19.787  0.00  0.00    +0.000 A 
ATOM     13  C   UNL     1      -5.076  12.264  20.276  0.00  0.00    +0.000 A 
ATOM     14  C   UNL     1      -5.485  13.057  21.344  0.00  0.00    +0.000 A 
ATOM     15  C   UNL     1      -4.561  13.914  21.882  0.00  0.00    +0.000 A 
ATOM     16 CL   UNL     1      -4.960  14.927  23.204  0.00  0.00    +0.000 Cl
ATOM     17  N   UNL     1      -3.290  14.022  21.452  0.00  0.00    +0.000 NA
ATOM     18  C   UNL     1      -2.864  13.211  20.443  0.00  0.00    +0.000 A 
ENDROOT
BRANCH   1  20
ATOM     19  C   UNL     1      -0.277  15.032  18.864  0.00  0.00    +0.000 C 
ATOM     20  C   UNL     1      -0.840  14.577  20.198  0.00  0.00    +0.000 C 
ENDBRANCH   1  20
BRANCH   5  21
ATOM     21  C   UNL     1       1.513   8.624  18.884  0.00  0.00    +0.000 C 
BRANCH  21  22
ATOM     22  O   UNL     1       1.779   7.958  20.115  0.00  0.00    +0.000 OA
BRANCH  22  23
ATOM     23  C   UNL     1       2.175   6.652  19.986  0.00  0.00    +0.000 A 
ATOM     24  C   UNL     1       3.093   6.392  18.977  0.00  0.00    +0.000 A 
ATOM     25  C   UNL     1       3.522   5.089  18.803  0.00  0.00    +0.000 A 
ATOM     26  N   UNL     1       3.084   4.048  19.545  0.00  0.00    +0.000 NA
ATOM     27  C   UNL     1       2.164   4.310  20.498  0.00  0.00    +0.000 A 
ATOM     28  C   UNL     1       1.637   3.156  21.295  0.00  0.00    +0.000 C 
ATOM     29  C   UNL     1       1.685   5.594  20.747  0.00  0.00    +0.000 A 
ENDBRANCH  22  23
ENDBRANCH  21  22
ENDBRANCH   5  21
TORSDOF 4
ENDMDL
MODEL 9
REMARK VINA RESULT:      -7.1      1.169      1.890
REMARK  Name = 
REMARK  7 active torsions:
REMARK  status: ('A' for Active; 'I' for Inactive)
REMARK    1  A    between atoms: C_1  and  C_2
REMARK    2  A    between atoms: C_2  and  N_3
REMARK    3  A    between atoms: C_7  and  C_8
REMARK    4  A    between atoms: C_8  and  O_9
REMARK    5  A    between atoms: O_9  and  C_10
REMARK    6  A    between atoms: C_14  and  C_15
REMARK    7  A    between atoms: N_21  and  C_22
REMARK                            x       y       z     vdW  Elec       q    Type
REMARK                         _______ _______ _______ _____ _____    ______ ____
ROOT
ATOM      1  N   UNL     1      -2.233  12.611  21.498  0.00  0.00    +0.000 N 
ATOM      2  C   UNL     1      -1.254  11.618  21.534  0.00  0.00    +0.000 A 
ATOM      3  N   UNL     1      -1.000  10.966  22.699  0.00  0.00    +0.000 NA
ATOM      4  C   UNL     1      -0.140   9.911  22.684  0.00  0.00    +0.000 A 
ATOM      5  C   UNL     1       0.546   9.487  21.557  0.00  0.00    +0.000 A 
ATOM      6  C   UNL     1       0.360  10.226  20.397  0.00  0.00    +0.000 A 
ATOM      7  C   UNL     1      -0.576  11.262  20.386  0.00  0.00    +0.000 A 
ATOM      8  C   UNL     1      -0.852  11.889  19.100  0.00  0.00    +0.000 C 
ATOM      9  O   UNL     1       0.105  12.239  18.413  0.00  0.00    +0.000 OA
ATOM     10  N   UNL     1      -2.144  11.732  18.611  0.00  0.00    +0.000 N 
ATOM     11  C   UNL     1      -2.224  11.322  17.219  0.00  0.00    +0.000 C 
ATOM     12  C   UNL     1      -3.337  12.106  19.336  0.00  0.00    +0.000 A 
ATOM     13  C   UNL     1      -4.573  12.059  18.656  0.00  0.00    +0.000 A 
ATOM     14  C   UNL     1      -5.741  12.529  19.249  0.00  0.00    +0.000 A 
ATOM     15  C   UNL     1      -5.638  13.064  20.506  0.00  0.00    +0.000 A 
ATOM     16 CL   UNL     1      -7.016  13.663  21.328  0.00  0.00    +0.000 Cl
ATOM     17  N   UNL     1      -4.487  13.146  21.200  0.00  0.00    +0.000 NA
ATOM     18  C   UNL     1      -3.347  12.640  20.650  0.00  0.00    +0.000 A 
ENDROOT
BRANCH   1  20
ATOM     19  C   UNL     1      -2.636  13.637  23.755  0.00  0.00    +0.000 C 
ATOM     20  C   UNL     1      -2.013  13.764  22.376  0.00  0.00    +0.000 C 
ENDBRANCH   1  20
BRANCH   5  21
ATOM     21  C   UNL     1       1.419   8.266  21.541  0.00  0.00    +0.000 C 
BRANCH  21  22
ATOM     22  O   UNL     1       1.739   7.923  20.195  0.00  0.00    +0.000 OA
BRANCH  22  23
ATOM     23  C   UNL     1       2.124   6.621  20.013  0.00  0.00    +0.000 A 
ATOM     24  C   UNL     1       2.999   6.387  18.960  0.00  0.00    +0.000 A 
ATOM     25  C   UNL     1       3.415   5.088  18.732  0.00  0.00    +0.000 A 
ATOM     26  N   UNL     1       3.004   4.027  19.462  0.00  0.00    +0.000 NA
ATOM     27  C   UNL     1       2.125   4.265  20.460  0.00  0.00    +0.000 A 
ATOM     28  C   UNL     1       1.626   3.090  21.245  0.00  0.00    +0.000 C 
ATOM     29  C   UNL     1       1.662   5.542  20.763  0.00  0.00    +0.000 A 
ENDBRANCH  22  23
ENDBRANCH  21  22
ENDBRANCH   5  21
TORSDOF 4
ENDMDL
