MODEL 1
REMARK VINA RESULT:      -8.7      0.000      0.000
REMARK  Name = 
REMARK  5 active torsions:
REMARK  status: ('A' for Active; 'I' for Inactive)
REMARK    1  A    between atoms: C_1  and  O_2
REMARK    2  A    between atoms: O_2  and  C_3
REMARK    3  A    between atoms: C_8  and  C_9
REMARK    4  A    between atoms: C_20  and  C_21
REMARK    5  A    between atoms: C_21  and  O_23
REMARK                            x       y       z     vdW  Elec       q    Type
REMARK                         _______ _______ _______ _____ _____    ______ ____
ROOT
ATOM      1  C   UNL     1       3.633   4.135  18.410  0.00  0.00    +0.000 A 
ATOM      2  C   UNL     1       4.363   4.720  17.370  0.00  0.00    +0.000 A 
ATOM      3  C   UNL     1       4.381   6.083  17.135  0.00  0.00    +0.000 A 
ATOM      4  C   UNL     1       3.683   6.972  17.933  0.00  0.00    +0.000 A 
ATOM      5  C   UNL     1       2.909   6.431  18.976  0.00  0.00    +0.000 A 
ATOM      6  C   UNL     1       2.005   6.946  19.953  0.00  0.00    +0.000 A 
ATOM      7  N   UNL     1       1.576   5.961  20.758  0.00  0.00    +0.000 NA
ATOM      8  O   UNL     1       2.130   4.794  20.272  0.00  0.00    +0.000 OA
ATOM      9  C   UNL     1       2.918   5.057  19.195  0.00  0.00    +0.000 A 
ATOM     10  C   UNL     1       5.185   6.403  15.935  0.00  0.00    +0.000 C 
ATOM     11  C   UNL     1       5.652   5.003  15.541  0.00  0.00    +0.000 C 
ATOM     12  O   UNL     1       5.148   4.018  16.483  0.00  0.00    +0.000 OA
ENDROOT
BRANCH   6  13
ATOM     13  C   UNL     1       1.537   8.320  20.114  0.00  0.00    +0.000 A 
ATOM     14  C   UNL     1       1.370   8.875  21.390  0.00  0.00    +0.000 A 
ATOM     15  C   UNL     1       0.884  10.178  21.536  0.00  0.00    +0.000 A 
ATOM     16  C   UNL     1       0.567  10.942  20.412  0.00  0.00    +0.000 A 
ATOM     17  C   UNL     1       0.735  10.404  19.140  0.00  0.00    +0.000 A 
ATOM     18  C   UNL     1       1.207   9.104  18.999  0.00  0.00    +0.000 A 
ATOM     19  F   UNL     1       1.313   8.614  17.755  0.00  0.00    +0.000 F 
ENDBRANCH   6  13
BRANCH   1  21
ATOM     20  C   UNL     1       2.588   2.035  17.992  0.00  0.00    +0.000 C 
ATOM     21  O   UNL     1       3.688   2.760  18.533  0.00  0.00    +0.000 OA
ENDBRANCH   1  21
BRANCH  11  22
ATOM     22  C   UNL     1       7.176   4.964  15.499  0.00  0.00    +0.000 C 
ATOM     23  O   UNL     1       7.879   4.507  16.389  0.00  0.00    +0.000 OA
BRANCH  22  24
ATOM     24  O   UNL     1       7.692   5.474  14.355  0.00  0.00    +0.000 OA
ATOM     25  H   UNL     1       6.982   5.907  13.828  0.00  0.00    +0.000 HD
ENDBRANCH  22  24
ENDBRANCH  11  22
TORSDOF 4
ENDMDL
MODEL 2
REMARK VINA RESULT:      -8.6      0.965      1.521
REMARK  Name = 
REMARK  5 active torsions:
REMARK  status: ('A' for Active; 'I' for Inactive)
REMARK    1  A    between atoms: C_1  and  O_2
REMARK    2  A    between atoms: O_2  and  C_3
REMARK    3  A    between atoms: C_8  and  C_9
REMARK    4  A    between atoms: C_20  and  C_21
REMARK    5  A    between atoms: C_21  and  O_23
REMARK                            x       y       z     vdW  Elec       q    Type
REMARK                         _______ _______ _______ _____ _____    ______ ____
ROOT
ATOM      1  C   UNL     1       3.862   4.209  18.551  0.00  0.00    +0.000 A 
ATOM      2  C   UNL     1       4.515   4.713  17.420  0.00  0.00    +0.000 A 
ATOM      3  C   UNL     1       4.426   6.035  17.026  0.00  0.00    +0.000 A 
ATOM      4  C   UNL     1       3.691   6.965  17.740  0.00  0.00    +0.000 A 
ATOM      5  C   UNL     1       2.992   6.502  18.870  0.00  0.00    +0.000 A 
ATOM      6  C   UNL     1       2.085   7.069  19.815  0.00  0.00    +0.000 A 
ATOM      7  N   UNL     1       1.753   6.161  20.748  0.00  0.00    +0.000 NA
ATOM      8  O   UNL     1       2.374   4.984  20.381  0.00  0.00    +0.000 OA
ATOM      9  C   UNL     1       3.107   5.168  19.249  0.00  0.00    +0.000 A 
ATOM     10  C   UNL     1       5.167   6.262  15.765  0.00  0.00    +0.000 C 
ATOM     11  C   UNL     1       5.721   4.860  15.521  0.00  0.00    +0.000 C 
ATOM     12  O   UNL     1       5.319   3.963  16.592  0.00  0.00    +0.000 OA
ENDROOT
BRANCH   6  13
ATOM     13  C   UNL     1       1.524   8.417  19.830  0.00  0.00    +0.000 A 
ATOM     14  C   UNL     1       1.317   9.120  18.636  0.00  0.00    +0.000 A 
ATOM     15  C   UNL     1       0.815  10.425  18.662  0.00  0.00    +0.000 A 
ATOM     16  C   UNL     1       0.509  11.039  19.878  0.00  0.00    +0.000 A 
ATOM     17  C   UNL     1       0.704  10.347  21.069  0.00  0.00    +0.000 A 
ATOM     18  C   UNL     1       1.214   9.055  21.040  0.00  0.00    +0.000 A 
ATOM     19  F   UNL     1       1.424   8.445  22.215  0.00  0.00    +0.000 F 
ENDBRANCH   6  13
BRANCH   1  21
ATOM     20  C   UNL     1       2.995   1.998  18.359  0.00  0.00    +0.000 C 
ATOM     21  O   UNL     1       4.020   2.865  18.833  0.00  0.00    +0.000 OA
ENDBRANCH   1  21
BRANCH  11  22
ATOM     22  C   UNL     1       7.242   4.918  15.423  0.00  0.00    +0.000 C 
ATOM     23  O   UNL     1       7.854   5.377  14.470  0.00  0.00    +0.000 OA
BRANCH  22  24
ATOM     24  O   UNL     1       7.866   4.423  16.519  0.00  0.00    +0.000 OA
ATOM     25  H   UNL     1       7.754   5.039  17.278  0.00  0.00    +0.000 HD
ENDBRANCH  22  24
ENDBRANCH  11  22
TORSDOF 4
ENDMDL
MODEL 3
REMARK VINA RESULT:      -8.0      2.017      3.814
REMARK  Name = 
REMARK  5 active torsions:
REMARK  status: ('A' for Active; 'I' for Inactive)
REMARK    1  A    between atoms: C_1  and  O_2
REMARK    2  A    between atoms: O_2  and  C_3
REMARK    3  A    between atoms: C_8  and  C_9
REMARK    4  A    between atoms: C_20  and  C_21
REMARK    5  A    between atoms: C_21  and  O_23
REMARK                            x       y       z     vdW  Elec       q    Type
REMARK                         _______ _______ _______ _____ _____    ______ ____
ROOT
ATOM      1  C   UNL     1       3.690   6.255  17.723  0.00  0.00    +0.000 A 
ATOM      2  C   UNL     1       3.612   5.113  18.527  0.00  0.00    +0.000 A 
ATOM      3  C   UNL     1       2.865   5.060  19.690  0.00  0.00    +0.000 A 
ATOM      4  C   UNL     1       2.123   6.139  20.134  0.00  0.00    +0.000 A 
ATOM      5  C   UNL     1       2.190   7.323  19.375  0.00  0.00    +0.000 A 
ATOM      6  C   UNL     1       1.673   8.647  19.498  0.00  0.00    +0.000 A 
ATOM      7  N   UNL     1       2.016   9.384  18.428  0.00  0.00    +0.000 NA
ATOM      8  O   UNL     1       2.814   8.577  17.642  0.00  0.00    +0.000 OA
ATOM      9  C   UNL     1       2.941   7.344  18.204  0.00  0.00    +0.000 A 
ATOM     10  C   UNL     1       3.023   3.750  20.360  0.00  0.00    +0.000 C 
ATOM     11  C   UNL     1       3.955   3.051  19.373  0.00  0.00    +0.000 C 
ATOM     12  O   UNL     1       4.249   3.925  18.249  0.00  0.00    +0.000 OA
ENDROOT
BRANCH   6  13
ATOM     13  C   UNL     1       0.901   9.216  20.598  0.00  0.00    +0.000 A 
ATOM     14  C   UNL     1       1.198   8.885  21.928  0.00  0.00    +0.000 A 
ATOM     15  C   UNL     1       0.429   9.405  22.974  0.00  0.00    +0.000 A 
ATOM     16  C   UNL     1      -0.639  10.263  22.706  0.00  0.00    +0.000 A 
ATOM     17  C   UNL     1      -0.938  10.604  21.390  0.00  0.00    +0.000 A 
ATOM     18  C   UNL     1      -0.178  10.076  20.353  0.00  0.00    +0.000 A 
ATOM     19  F   UNL     1      -0.531  10.400  19.100  0.00  0.00    +0.000 F 
ENDBRANCH   6  13
BRANCH   1  21
ATOM     20  C   UNL     1       5.813   6.667  16.725  0.00  0.00    +0.000 C 
ATOM     21  O   UNL     1       4.479   6.186  16.591  0.00  0.00    +0.000 OA
ENDBRANCH   1  21
BRANCH  11  22
ATOM     22  C   UNL     1       3.310   1.759  18.884  0.00  0.00    +0.000 C 
ATOM     23  O   UNL     1       2.104   1.564  18.838  0.00  0.00    +0.000 OA
BRANCH  22  24
ATOM     24  O   UNL     1       4.212   0.832  18.479  0.00  0.00    +0.000 OA
ATOM     25  H   UNL     1       4.815   1.220  17.806  0.00  0.00    +0.000 HD
ENDBRANCH  22  24
ENDBRANCH  11  22
TORSDOF 4
ENDMDL
MODEL 4
REMARK VINA RESULT:      -7.9      3.291      4.616
REMARK  Name = 
REMARK  5 active torsions:
REMARK  status: ('A' for Active; 'I' for Inactive)
REMARK    1  A    between atoms: C_1  and  O_2
REMARK    2  A    between atoms: O_2  and  C_3
REMARK    3  A    between atoms: C_8  and  C_9
REMARK    4  A    between atoms: C_20  and  C_21
REMARK    5  A    between atoms: C_21  and  O_23
REMARK                            x       y       z     vdW  Elec       q    Type
REMARK                         _______ _______ _______ _____ _____    ______ ____
ROOT
ATOM      1  C   UNL     1       5.965   6.714  16.840  0.00  0.00    +0.000 A 
ATOM      2  C   UNL     1       6.306   5.680  15.961  0.00  0.00    +0.000 A 
ATOM      3  C   UNL     1       5.630   4.475  15.917  0.00  0.00    +0.000 A 
ATOM      4  C   UNL     1       4.547   4.212  16.737  0.00  0.00    +0.000 A 
ATOM      5  C   UNL     1       4.181   5.210  17.660  0.00  0.00    +0.000 A 
ATOM      6  C   UNL     1       3.220   5.331  18.708  0.00  0.00    +0.000 A 
ATOM      7  N   UNL     1       3.274   6.558  19.251  0.00  0.00    +0.000 NA
ATOM      8  O   UNL     1       4.309   7.217  18.620  0.00  0.00    +0.000 OA
ATOM      9  C   UNL     1       4.874   6.417  17.675  0.00  0.00    +0.000 A 
ATOM     10  C   UNL     1       6.250   3.556  14.937  0.00  0.00    +0.000 C 
ATOM     11  C   UNL     1       7.372   4.445  14.405  0.00  0.00    +0.000 C 
ATOM     12  O   UNL     1       7.330   5.750  15.043  0.00  0.00    +0.000 OA
ENDROOT
BRANCH   6  13
ATOM     13  C   UNL     1       2.295   4.317  19.205  0.00  0.00    +0.000 A 
ATOM     14  C   UNL     1       2.363   3.875  20.533  0.00  0.00    +0.000 A 
ATOM     15  C   UNL     1       1.498   2.876  20.991  0.00  0.00    +0.000 A 
ATOM     16  C   UNL     1       0.552   2.314  20.132  0.00  0.00    +0.000 A 
ATOM     17  C   UNL     1       0.471   2.750  18.813  0.00  0.00    +0.000 A 
ATOM     18  C   UNL     1       1.341   3.735  18.359  0.00  0.00    +0.000 A 
ATOM     19  F   UNL     1       1.252   4.093  17.069  0.00  0.00    +0.000 F 
ENDBRANCH   6  13
BRANCH   1  21
ATOM     20  C   UNL     1       7.790   7.955  17.738  0.00  0.00    +0.000 C 
ATOM     21  O   UNL     1       6.726   7.867  16.795  0.00  0.00    +0.000 OA
ENDBRANCH   1  21
BRANCH  11  22
ATOM     22  C   UNL     1       7.238   4.591  12.893  0.00  0.00    +0.000 C 
ATOM     23  O   UNL     1       6.604   3.826  12.179  0.00  0.00    +0.000 OA
BRANCH  22  24
ATOM     24  O   UNL     1       7.882   5.677  12.402  0.00  0.00    +0.000 OA
ATOM     25  H   UNL     1       8.177   6.257  13.141  0.00  0.00    +0.000 HD
ENDBRANCH  22  24
ENDBRANCH  11  22
TORSDOF 4
ENDMDL
MODEL 5
REMARK VINA RESULT:      -7.9      3.347      4.747
REMARK  Name = 
REMARK  5 active torsions:
REMARK  status: ('A' for Active; 'I' for Inactive)
REMARK    1  A    between atoms: C_1  and  O_2
REMARK    2  A    between atoms: O_2  and  C_3
REMARK    3  A    between atoms: C_8  and  C_9
REMARK    4  A    between atoms: C_20  and  C_21
REMARK    5  A    between atoms: C_21  and  O_23
REMARK                            x       y       z     vdW  Elec       q    Type
REMARK                         _______ _______ _______ _____ _____    ______ ____
ROOT
ATOM      1  C   UNL     1       5.962   6.692  16.816  0.00  0.00    +0.000 A 
ATOM      2  C   UNL     1       6.315   5.668  15.930  0.00  0.00    +0.000 A 
ATOM      3  C   UNL     1       5.634   4.466  15.857  0.00  0.00    +0.000 A 
ATOM      4  C   UNL     1       4.534   4.198  16.651  0.00  0.00    +0.000 A 
ATOM      5  C   UNL     1       4.155   5.185  17.580  0.00  0.00    +0.000 A 
ATOM      6  C   UNL     1       3.174   5.297  18.611  0.00  0.00    +0.000 A 
ATOM      7  N   UNL     1       3.222   6.517  19.171  0.00  0.00    +0.000 NA
ATOM      8  O   UNL     1       4.273   7.179  18.569  0.00  0.00    +0.000 OA
ATOM      9  C   UNL     1       4.853   6.389  17.625  0.00  0.00    +0.000 A 
ATOM     10  C   UNL     1       6.270   3.557  14.877  0.00  0.00    +0.000 C 
ATOM     11  C   UNL     1       7.406   4.448  14.379  0.00  0.00    +0.000 C 
ATOM     12  O   UNL     1       7.357   5.744  15.033  0.00  0.00    +0.000 OA
ENDROOT
BRANCH   6  13
ATOM     13  C   UNL     1       2.234   4.282  19.076  0.00  0.00    +0.000 A 
ATOM     14  C   UNL     1       1.517   3.498  18.162  0.00  0.00    +0.000 A 
ATOM     15  C   UNL     1       0.590   2.554  18.616  0.00  0.00    +0.000 A 
ATOM     16  C   UNL     1       0.374   2.378  19.984  0.00  0.00    +0.000 A 
ATOM     17  C   UNL     1       1.086   3.146  20.900  0.00  0.00    +0.000 A 
ATOM     18  C   UNL     1       1.998   4.091  20.445  0.00  0.00    +0.000 A 
ATOM     19  F   UNL     1       2.629   4.836  21.365  0.00  0.00    +0.000 F 
ENDBRANCH   6  13
BRANCH   1  21
ATOM     20  C   UNL     1       7.794   7.898  17.745  0.00  0.00    +0.000 C 
ATOM     21  O   UNL     1       6.729   7.841  16.801  0.00  0.00    +0.000 OA
ENDBRANCH   1  21
BRANCH  11  22
ATOM     22  C   UNL     1       7.303   4.614  12.867  0.00  0.00    +0.000 C 
ATOM     23  O   UNL     1       6.703   3.847  12.128  0.00  0.00    +0.000 OA
BRANCH  22  24
ATOM     24  O   UNL     1       7.933   5.722  12.408  0.00  0.00    +0.000 OA
ATOM     25  H   UNL     1       7.297   6.471  12.346  0.00  0.00    +0.000 HD
ENDBRANCH  22  24
ENDBRANCH  11  22
TORSDOF 4
ENDMDL
MODEL 6
REMARK VINA RESULT:      -7.8      3.123      7.284
REMARK  Name = 
REMARK  5 active torsions:
REMARK  status: ('A' for Active; 'I' for Inactive)
REMARK    1  A    between atoms: C_1  and  O_2
REMARK    2  A    between atoms: O_2  and  C_3
REMARK    3  A    between atoms: C_8  and  C_9
REMARK    4  A    between atoms: C_20  and  C_21
REMARK    5  A    between atoms: C_21  and  O_23
REMARK                            x       y       z     vdW  Elec       q    Type
REMARK                         _______ _______ _______ _____ _____    ______ ____
ROOT
ATOM      1  C   UNL     1       3.645   5.957  18.282  0.00  0.00    +0.000 A 
ATOM      2  C   UNL     1       3.387   4.659  18.736  0.00  0.00    +0.000 A 
ATOM      3  C   UNL     1       3.776   3.527  18.042  0.00  0.00    +0.000 A 
ATOM      4  C   UNL     1       4.469   3.603  16.847  0.00  0.00    +0.000 A 
ATOM      5  C   UNL     1       4.728   4.887  16.333  0.00  0.00    +0.000 A 
ATOM      6  C   UNL     1       5.317   5.413  15.144  0.00  0.00    +0.000 A 
ATOM      7  N   UNL     1       5.355   6.755  15.196  0.00  0.00    +0.000 NA
ATOM      8  O   UNL     1       4.730   7.115  16.373  0.00  0.00    +0.000 OA
ATOM      9  C   UNL     1       4.334   6.008  17.057  0.00  0.00    +0.000 A 
ATOM     10  C   UNL     1       3.314   2.301  18.730  0.00  0.00    +0.000 C 
ATOM     11  C   UNL     1       2.626   2.916  19.947  0.00  0.00    +0.000 C 
ATOM     12  O   UNL     1       2.739   4.364  19.914  0.00  0.00    +0.000 OA
ENDROOT
BRANCH   6  13
ATOM     13  C   UNL     1       5.808   4.681  13.981  0.00  0.00    +0.000 A 
ATOM     14  C   UNL     1       4.957   3.838  13.253  0.00  0.00    +0.000 A 
ATOM     15  C   UNL     1       5.444   3.111  12.162  0.00  0.00    +0.000 A 
ATOM     16  C   UNL     1       6.783   3.223  11.783  0.00  0.00    +0.000 A 
ATOM     17  C   UNL     1       7.636   4.062  12.494  0.00  0.00    +0.000 A 
ATOM     18  C   UNL     1       7.149   4.774  13.584  0.00  0.00    +0.000 A 
ATOM     19  F   UNL     1       8.019   5.537  14.263  0.00  0.00    +0.000 F 
ENDBRANCH   6  13
BRANCH   1  21
ATOM     20  C   UNL     1       2.258   7.887  18.448  0.00  0.00    +0.000 C 
ATOM     21  O   UNL     1       3.194   7.006  19.061  0.00  0.00    +0.000 OA
ENDBRANCH   1  21
BRANCH  11  22
ATOM     22  C   UNL     1       3.252   2.365  21.223  0.00  0.00    +0.000 C 
ATOM     23  O   UNL     1       4.358   1.847  21.281  0.00  0.00    +0.000 OA
BRANCH  22  24
ATOM     24  O   UNL     1       2.464   2.520  22.314  0.00  0.00    +0.000 OA
ATOM     25  H   UNL     1       1.516   2.500  22.051  0.00  0.00    +0.000 HD
ENDBRANCH  22  24
ENDBRANCH  11  22
TORSDOF 4
ENDMDL
MODEL 7
REMARK VINA RESULT:      -7.8      1.913      2.817
REMARK  Name = 
REMARK  5 active torsions:
REMARK  status: ('A' for Active; 'I' for Inactive)
REMARK    1  A    between atoms: C_1  and  O_2
REMARK    2  A    between atoms: O_2  and  C_3
REMARK    3  A    between atoms: C_8  and  C_9
REMARK    4  A    between atoms: C_20  and  C_21
REMARK    5  A    between atoms: C_21  and  O_23
REMARK                            x       y       z     vdW  Elec       q    Type
REMARK                         _______ _______ _______ _____ _____    ______ ____
ROOT
ATOM      1  C   UNL     1       2.458   6.066  20.035  0.00  0.00    +0.000 A 
ATOM      2  C   UNL     1       3.252   6.004  18.884  0.00  0.00    +0.000 A 
ATOM      3  C   UNL     1       3.357   7.049  17.984  0.00  0.00    +0.000 A 
ATOM      4  C   UNL     1       2.689   8.246  18.171  0.00  0.00    +0.000 A 
ATOM      5  C   UNL     1       1.854   8.349  19.300  0.00  0.00    +0.000 A 
ATOM      6  C   UNL     1       0.954   9.326  19.821  0.00  0.00    +0.000 A 
ATOM      7  N   UNL     1       0.444   8.913  20.993  0.00  0.00    +0.000 NA
ATOM      8  O   UNL     1       0.942   7.644  21.207  0.00  0.00    +0.000 OA
ATOM      9  C   UNL     1       1.776   7.285  20.194  0.00  0.00    +0.000 A 
ATOM     10  C   UNL     1       4.214   6.676  16.838  0.00  0.00    +0.000 C 
ATOM     11  C   UNL     1       4.609   5.258  17.245  0.00  0.00    +0.000 C 
ATOM     12  O   UNL     1       4.020   4.918  18.530  0.00  0.00    +0.000 OA
ENDROOT
BRANCH   6  13
ATOM     13  C   UNL     1       0.563  10.601  19.227  0.00  0.00    +0.000 A 
ATOM     14  C   UNL     1       1.469  11.668  19.162  0.00  0.00    +0.000 A 
ATOM     15  C   UNL     1       1.075  12.899  18.626  0.00  0.00    +0.000 A 
ATOM     16  C   UNL     1      -0.224  13.074  18.144  0.00  0.00    +0.000 A 
ATOM     17  C   UNL     1      -1.129  12.019  18.197  0.00  0.00    +0.000 A 
ATOM     18  C   UNL     1      -0.736  10.801  18.741  0.00  0.00    +0.000 A 
ATOM     19  F   UNL     1      -1.656   9.828  18.809  0.00  0.00    +0.000 F 
ENDBRANCH   6  13
BRANCH   1  21
ATOM     20  C   UNL     1       1.323   4.071  20.672  0.00  0.00    +0.000 C 
ATOM     21  O   UNL     1       2.429   4.950  20.850  0.00  0.00    +0.000 OA
ENDBRANCH   1  21
BRANCH  11  22
ATOM     22  C   UNL     1       6.128   5.148  17.314  0.00  0.00    +0.000 C 
ATOM     23  O   UNL     1       6.900   5.830  16.656  0.00  0.00    +0.000 OA
BRANCH  22  24
ATOM     24  O   UNL     1       6.556   4.220  18.204  0.00  0.00    +0.000 OA
ATOM     25  H   UNL     1       6.623   3.340  17.767  0.00  0.00    +0.000 HD
ENDBRANCH  22  24
ENDBRANCH  11  22
TORSDOF 4
ENDMDL
MODEL 8
REMARK VINA RESULT:      -7.8      2.740      6.733
REMARK  Name = 
REMARK  5 active torsions:
REMARK  status: ('A' for Active; 'I' for Inactive)
REMARK    1  A    between atoms: C_1  and  O_2
REMARK    2  A    between atoms: O_2  and  C_3
REMARK    3  A    between atoms: C_8  and  C_9
REMARK    4  A    between atoms: C_20  and  C_21
REMARK    5  A    between atoms: C_21  and  O_23
REMARK                            x       y       z     vdW  Elec       q    Type
REMARK                         _______ _______ _______ _____ _____    ______ ____
ROOT
ATOM      1  C   UNL     1       2.576   5.837  19.662  0.00  0.00    +0.000 A 
ATOM      2  C   UNL     1       2.315   7.154  19.266  0.00  0.00    +0.000 A 
ATOM      3  C   UNL     1       2.795   7.696  18.088  0.00  0.00    +0.000 A 
ATOM      4  C   UNL     1       3.561   6.960  17.202  0.00  0.00    +0.000 A 
ATOM      5  C   UNL     1       3.876   5.638  17.567  0.00  0.00    +0.000 A 
ATOM      6  C   UNL     1       4.672   4.587  17.019  0.00  0.00    +0.000 A 
ATOM      7  N   UNL     1       4.575   3.483  17.778  0.00  0.00    +0.000 NA
ATOM      8  O   UNL     1       3.784   3.823  18.857  0.00  0.00    +0.000 OA
ATOM      9  C   UNL     1       3.372   5.116  18.754  0.00  0.00    +0.000 A 
ATOM     10  C   UNL     1       2.411   9.120  17.966  0.00  0.00    +0.000 C 
ATOM     11  C   UNL     1       1.606   9.294  19.252  0.00  0.00    +0.000 C 
ATOM     12  O   UNL     1       1.549   8.042  19.987  0.00  0.00    +0.000 OA
ENDROOT
BRANCH   6  13
ATOM     13  C   UNL     1       5.519   4.623  15.831  0.00  0.00    +0.000 A 
ATOM     14  C   UNL     1       5.136   3.958  14.658  0.00  0.00    +0.000 A 
ATOM     15  C   UNL     1       5.971   3.965  13.536  0.00  0.00    +0.000 A 
ATOM     16  C   UNL     1       7.193   4.639  13.571  0.00  0.00    +0.000 A 
ATOM     17  C   UNL     1       7.580   5.308  14.728  0.00  0.00    +0.000 A 
ATOM     18  C   UNL     1       6.752   5.289  15.845  0.00  0.00    +0.000 A 
ATOM     19  F   UNL     1       7.188   5.913  16.949  0.00  0.00    +0.000 F 
ENDBRANCH   6  13
BRANCH   1  21
ATOM     20  C   UNL     1       1.246   4.242  20.828  0.00  0.00    +0.000 C 
ATOM     21  O   UNL     1       2.049   5.418  20.868  0.00  0.00    +0.000 OA
ENDBRANCH   1  21
BRANCH  11  22
ATOM     22  C   UNL     1       0.198   9.774  18.914  0.00  0.00    +0.000 C 
ATOM     23  O   UNL     1      -0.684   9.959  19.740  0.00  0.00    +0.000 OA
BRANCH  22  24
ATOM     24  O   UNL     1       0.015  10.001  17.591  0.00  0.00    +0.000 OA
ATOM     25  H   UNL     1      -0.860  10.426  17.439  0.00  0.00    +0.000 HD
ENDBRANCH  22  24
ENDBRANCH  11  22
TORSDOF 4
ENDMDL
MODEL 9
REMARK VINA RESULT:      -7.8      3.962      7.508
REMARK  Name = 
REMARK  5 active torsions:
REMARK  status: ('A' for Active; 'I' for Inactive)
REMARK    1  A    between atoms: C_1  and  O_2
REMARK    2  A    between atoms: O_2  and  C_3
REMARK    3  A    between atoms: C_8  and  C_9
REMARK    4  A    between atoms: C_20  and  C_21
REMARK    5  A    between atoms: C_21  and  O_23
REMARK                            x       y       z     vdW  Elec       q    Type
REMARK                         _______ _______ _______ _____ _____    ______ ____
ROOT
ATOM      1  C   UNL     1       5.850   4.992  18.803  0.00  0.00    +0.000 A 
ATOM      2  C   UNL     1       4.469   4.773  18.869  0.00  0.00    +0.000 A 
ATOM      3  C   UNL     1       3.715   4.381  17.778  0.00  0.00    +0.000 A 
ATOM      4  C   UNL     1       4.283   4.158  16.537  0.00  0.00    +0.000 A 
ATOM      5  C   UNL     1       5.665   4.392  16.410  0.00  0.00    +0.000 A 
ATOM      6  C   UNL     1       6.613   4.369  15.343  0.00  0.00    +0.000 A 
ATOM      7  N   UNL     1       7.846   4.632  15.808  0.00  0.00    +0.000 NA
ATOM      8  O   UNL     1       7.704   4.900  17.154  0.00  0.00    +0.000 OA
ATOM      9  C   UNL     1       6.401   4.777  17.527  0.00  0.00    +0.000 A 
ATOM     10  C   UNL     1       2.281   4.289  18.132  0.00  0.00    +0.000 C 
ATOM     11  C   UNL     1       2.343   4.661  19.612  0.00  0.00    +0.000 C 
ATOM     12  O   UNL     1       3.717   4.908  20.015  0.00  0.00    +0.000 OA
ENDROOT
BRANCH   6  13
ATOM     13  C   UNL     1       6.368   4.132  13.924  0.00  0.00    +0.000 A 
ATOM     14  C   UNL     1       5.280   3.354  13.505  0.00  0.00    +0.000 A 
ATOM     15  C   UNL     1       5.075   3.100  12.145  0.00  0.00    +0.000 A 
ATOM     16  C   UNL     1       5.948   3.623  11.190  0.00  0.00    +0.000 A 
ATOM     17  C   UNL     1       7.028   4.403  11.595  0.00  0.00    +0.000 A 
ATOM     18  C   UNL     1       7.235   4.643  12.948  0.00  0.00    +0.000 A 
ATOM     19  F   UNL     1       8.312   5.364  13.291  0.00  0.00    +0.000 F 
ENDBRANCH   6  13
BRANCH   1  21
ATOM     20  C   UNL     1       7.896   5.584  19.868  0.00  0.00    +0.000 C 
ATOM     21  O   UNL     1       6.488   5.393  19.960  0.00  0.00    +0.000 OA
ENDBRANCH   1  21
BRANCH  11  22
ATOM     22  C   UNL     1       1.740   3.538  20.449  0.00  0.00    +0.000 C 
ATOM     23  O   UNL     1       2.358   2.891  21.283  0.00  0.00    +0.000 OA
BRANCH  22  24
ATOM     24  O   UNL     1       0.426   3.330  20.195  0.00  0.00    +0.000 OA
ATOM     25  H   UNL     1       0.210   3.613  19.278  0.00  0.00    +0.000 HD
ENDBRANCH  22  24
ENDBRANCH  11  22
TORSDOF 4
ENDMDL
