MODEL 1
REMARK VINA RESULT:      -8.3      0.000      0.000
REMARK  Name = 
REMARK  6 active torsions:
REMARK  status: ('A' for Active; 'I' for Inactive)
REMARK    1  A    between atoms: C_1  and  C_2
REMARK    2  A    between atoms: C_2  and  C_3
REMARK    3  A    between atoms: N_5  and  C_6
REMARK    4  A    between atoms: C_6  and  C_7
REMARK    5  A    between atoms: C_6  and  C_12
REMARK    6  A    between atoms: C_22  and  O_23
REMARK                            x       y       z     vdW  Elec       q    Type
REMARK                         _______ _______ _______ _____ _____    ______ ____
ROOT
ATOM      1  C   UNL     1       5.220   5.505  17.867  0.00  0.00    +0.000 A 
ATOM      2  C   UNL     1       4.283   6.543  17.757  0.00  0.00    +0.000 A 
ATOM      3  C   UNL     1       3.120   6.555  18.525  0.00  0.00    +0.000 A 
ATOM      4 CL   UNL     1       2.125   7.967  18.416  0.00  0.00    +0.000 Cl
ATOM      5  C   UNL     1       2.789   5.461  19.347  0.00  0.00    +0.000 A 
ATOM      6  C   UNL     1       1.599   5.371  20.093  0.00  0.00    +0.000 A 
ATOM      7  C   UNL     1       1.304   4.218  20.807  0.00  0.00    +0.000 A 
ATOM      8  C   UNL     1       2.231   3.196  20.792  0.00  0.00    +0.000 A 
ATOM      9  N   UNL     1       3.410   3.256  20.132  0.00  0.00    +0.000 NA
ATOM     10  C   UNL     1       3.676   4.367  19.412  0.00  0.00    +0.000 A 
ATOM     11  C   UNL     1       4.877   4.429  18.694  0.00  0.00    +0.000 A 
ENDROOT
BRANCH  11  12
ATOM     12  O   UNL     1       5.748   3.368  18.808  0.00  0.00    +0.000 OA
ATOM     13  H   UNL     1       6.037   3.382  19.746  0.00  0.00    +0.000 HD
ENDBRANCH  11  12
BRANCH   1  14
ATOM     14  C   UNL     1       6.551   5.558  17.121  0.00  0.00    +0.000 C 
BRANCH  14  15
ATOM     15  C   UNL     1       7.378   6.751  17.562  0.00  0.00    +0.000 A 
ATOM     16  C   UNL     1       8.171   6.964  18.673  0.00  0.00    +0.000 A 
ATOM     17  C   UNL     1       8.490   8.346  18.690  0.00  0.00    +0.000 A 
ATOM     18  C   UNL     1       7.932   8.880  17.555  0.00  0.00    +0.000 A 
ATOM     19  O   UNL     1       7.251   7.928  16.863  0.00  0.00    +0.000 OA
ENDBRANCH  14  15
BRANCH  14  22
ATOM     20  C   UNL     1       6.075   4.413  14.987  0.00  0.00    +0.000 C 
ATOM     21  O   UNL     1       6.047   3.314  15.513  0.00  0.00    +0.000 OA
ATOM     22  N   UNL     1       6.328   5.579  15.687  0.00  0.00    +0.000 N 
ATOM     23  H   UNL     1       6.074   6.456  15.261  0.00  0.00    +0.000 HD
BRANCH  20  25
ATOM     24  C   UNL     1       6.205   3.409  12.688  0.00  0.00    +0.000 C 
ATOM     25  C   UNL     1       5.839   4.638  13.509  0.00  0.00    +0.000 C 
ENDBRANCH  20  25
ENDBRANCH  14  22
ENDBRANCH   1  14
TORSDOF 5
ENDMDL
MODEL 2
REMARK VINA RESULT:      -7.6      1.130      1.295
REMARK  Name = 
REMARK  6 active torsions:
REMARK  status: ('A' for Active; 'I' for Inactive)
REMARK    1  A    between atoms: C_1  and  C_2
REMARK    2  A    between atoms: C_2  and  C_3
REMARK    3  A    between atoms: N_5  and  C_6
REMARK    4  A    between atoms: C_6  and  C_7
REMARK    5  A    between atoms: C_6  and  C_12
REMARK    6  A    between atoms: C_22  and  O_23
REMARK                            x       y       z     vdW  Elec       q    Type
REMARK                         _______ _______ _______ _____ _____    ______ ____
ROOT
ATOM      1  C   UNL     1       4.633   5.019  17.895  0.00  0.00    +0.000 A 
ATOM      2  C   UNL     1       3.960   6.131  18.422  0.00  0.00    +0.000 A 
ATOM      3  C   UNL     1       2.858   5.981  19.261  0.00  0.00    +0.000 A 
ATOM      4 CL   UNL     1       2.214   7.421  19.975  0.00  0.00    +0.000 Cl
ATOM      5  C   UNL     1       2.308   4.709  19.508  0.00  0.00    +0.000 A 
ATOM      6  C   UNL     1       1.155   4.487  20.284  0.00  0.00    +0.000 A 
ATOM      7  C   UNL     1       0.624   3.210  20.403  0.00  0.00    +0.000 A 
ATOM      8  C   UNL     1       1.288   2.175  19.776  0.00  0.00    +0.000 A 
ATOM      9  N   UNL     1       2.426   2.331  19.062  0.00  0.00    +0.000 NA
ATOM     10  C   UNL     1       2.918   3.580  18.922  0.00  0.00    +0.000 A 
ATOM     11  C   UNL     1       4.077   3.762  18.155  0.00  0.00    +0.000 A 
ENDROOT
BRANCH  11  12
ATOM     12  O   UNL     1       4.681   2.641  17.629  0.00  0.00    +0.000 OA
ATOM     13  H   UNL     1       4.420   1.911  18.232  0.00  0.00    +0.000 HD
ENDBRANCH  11  12
BRANCH   1  14
ATOM     14  C   UNL     1       5.914   5.183  17.081  0.00  0.00    +0.000 C 
BRANCH  14  15
ATOM     15  C   UNL     1       6.706   6.391  17.545  0.00  0.00    +0.000 A 
ATOM     16  C   UNL     1       6.859   7.656  17.009  0.00  0.00    +0.000 A 
ATOM     17  C   UNL     1       7.913   8.279  17.724  0.00  0.00    +0.000 A 
ATOM     18  C   UNL     1       8.294   7.388  18.696  0.00  0.00    +0.000 A 
ATOM     19  O   UNL     1       7.576   6.237  18.598  0.00  0.00    +0.000 OA
ENDBRANCH  14  15
BRANCH  14  22
ATOM     20  C   UNL     1       5.815   4.197  14.821  0.00  0.00    +0.000 C 
ATOM     21  O   UNL     1       6.279   3.135  15.198  0.00  0.00    +0.000 OA
ATOM     22  N   UNL     1       5.608   5.272  15.665  0.00  0.00    +0.000 N 
ATOM     23  H   UNL     1       4.987   6.005  15.361  0.00  0.00    +0.000 HD
BRANCH  20  25
ATOM     24  C   UNL     1       5.881   3.365  12.451  0.00  0.00    +0.000 C 
ATOM     25  C   UNL     1       5.409   4.468  13.388  0.00  0.00    +0.000 C 
ENDBRANCH  20  25
ENDBRANCH  14  22
ENDBRANCH   1  14
TORSDOF 5
ENDMDL
MODEL 3
REMARK VINA RESULT:      -7.2      1.665      1.820
REMARK  Name = 
REMARK  6 active torsions:
REMARK  status: ('A' for Active; 'I' for Inactive)
REMARK    1  A    between atoms: C_1  and  C_2
REMARK    2  A    between atoms: C_2  and  C_3
REMARK    3  A    between atoms: N_5  and  C_6
REMARK    4  A    between atoms: C_6  and  C_7
REMARK    5  A    between atoms: C_6  and  C_12
REMARK    6  A    between atoms: C_22  and  O_23
REMARK                            x       y       z     vdW  Elec       q    Type
REMARK                         _______ _______ _______ _____ _____    ______ ____
ROOT
ATOM      1  C   UNL     1       4.635   4.140  17.700  0.00  0.00    +0.000 A 
ATOM      2  C   UNL     1       3.385   4.372  17.107  0.00  0.00    +0.000 A 
ATOM      3  C   UNL     1       2.201   4.207  17.823  0.00  0.00    +0.000 A 
ATOM      4 CL   UNL     1       0.735   4.678  17.032  0.00  0.00    +0.000 Cl
ATOM      5  C   UNL     1       2.217   3.683  19.129  0.00  0.00    +0.000 A 
ATOM      6  C   UNL     1       1.058   3.422  19.885  0.00  0.00    +0.000 A 
ATOM      7  C   UNL     1       1.155   2.817  21.131  0.00  0.00    +0.000 A 
ATOM      8  C   UNL     1       2.417   2.529  21.611  0.00  0.00    +0.000 A 
ATOM      9  N   UNL     1       3.560   2.808  20.945  0.00  0.00    +0.000 NA
ATOM     10  C   UNL     1       3.457   3.364  19.718  0.00  0.00    +0.000 A 
ATOM     11  C   UNL     1       4.632   3.625  19.001  0.00  0.00    +0.000 A 
ENDROOT
BRANCH  11  12
ATOM     12  O   UNL     1       5.834   3.347  19.614  0.00  0.00    +0.000 OA
ATOM     13  H   UNL     1       5.830   3.894  20.430  0.00  0.00    +0.000 HD
ENDBRANCH  11  12
BRANCH   1  14
ATOM     14  C   UNL     1       5.932   4.444  16.954  0.00  0.00    +0.000 C 
BRANCH  14  15
ATOM     15  C   UNL     1       6.575   5.717  17.470  0.00  0.00    +0.000 A 
ATOM     16  C   UNL     1       6.469   7.034  17.065  0.00  0.00    +0.000 A 
ATOM     17  C   UNL     1       7.487   7.754  17.739  0.00  0.00    +0.000 A 
ATOM     18  C   UNL     1       8.110   6.851  18.565  0.00  0.00    +0.000 A 
ATOM     19  O   UNL     1       7.572   5.612  18.411  0.00  0.00    +0.000 OA
ENDBRANCH  14  15
BRANCH  14  22
ATOM     20  C   UNL     1       6.739   4.598  14.627  0.00  0.00    +0.000 C 
ATOM     21  O   UNL     1       7.908   4.624  14.969  0.00  0.00    +0.000 OA
ATOM     22  N   UNL     1       5.690   4.523  15.526  0.00  0.00    +0.000 N 
ATOM     23  H   UNL     1       4.787   4.237  15.182  0.00  0.00    +0.000 HD
BRANCH  20  25
ATOM     24  C   UNL     1       6.155   3.246  12.591  0.00  0.00    +0.000 C 
ATOM     25  C   UNL     1       6.291   4.643  13.181  0.00  0.00    +0.000 C 
ENDBRANCH  20  25
ENDBRANCH  14  22
ENDBRANCH   1  14
TORSDOF 5
ENDMDL
MODEL 4
REMARK VINA RESULT:      -7.2      1.342      3.861
REMARK  Name = 
REMARK  6 active torsions:
REMARK  status: ('A' for Active; 'I' for Inactive)
REMARK    1  A    between atoms: C_1  and  C_2
REMARK    2  A    between atoms: C_2  and  C_3
REMARK    3  A    between atoms: N_5  and  C_6
REMARK    4  A    between atoms: C_6  and  C_7
REMARK    5  A    between atoms: C_6  and  C_12
REMARK    6  A    between atoms: C_22  and  O_23
REMARK                            x       y       z     vdW  Elec       q    Type
REMARK                         _______ _______ _______ _____ _____    ______ ____
ROOT
ATOM      1  C   UNL     1       4.864   5.931  18.105  0.00  0.00    +0.000 A 
ATOM      2  C   UNL     1       3.675   6.529  18.548  0.00  0.00    +0.000 A 
ATOM      3  C   UNL     1       2.885   5.931  19.529  0.00  0.00    +0.000 A 
ATOM      4 CL   UNL     1       1.531   6.841  20.106  0.00  0.00    +0.000 Cl
ATOM      5  C   UNL     1       3.192   4.647  20.016  0.00  0.00    +0.000 A 
ATOM      6  C   UNL     1       2.402   3.951  20.951  0.00  0.00    +0.000 A 
ATOM      7  C   UNL     1       2.724   2.650  21.311  0.00  0.00    +0.000 A 
ATOM      8  C   UNL     1       3.858   2.090  20.759  0.00  0.00    +0.000 A 
ATOM      9  N   UNL     1       4.676   2.736  19.898  0.00  0.00    +0.000 NA
ATOM     10  C   UNL     1       4.338   3.989  19.524  0.00  0.00    +0.000 A 
ATOM     11  C   UNL     1       5.157   4.657  18.604  0.00  0.00    +0.000 A 
ENDROOT
BRANCH  11  12
ATOM     12  O   UNL     1       6.295   4.014  18.172  0.00  0.00    +0.000 OA
ATOM     13  H   UNL     1       6.433   3.289  18.820  0.00  0.00    +0.000 HD
ENDBRANCH  11  12
BRANCH   1  14
ATOM     14  C   UNL     1       5.791   6.648  17.126  0.00  0.00    +0.000 C 
BRANCH  14  15
ATOM     15  C   UNL     1       6.039   5.805  15.889  0.00  0.00    +0.000 A 
ATOM     16  C   UNL     1       5.179   5.122  15.051  0.00  0.00    +0.000 A 
ATOM     17  C   UNL     1       5.982   4.302  14.218  0.00  0.00    +0.000 A 
ATOM     18  C   UNL     1       7.285   4.583  14.549  0.00  0.00    +0.000 A 
ATOM     19  O   UNL     1       7.336   5.488  15.563  0.00  0.00    +0.000 OA
ENDBRANCH  14  15
BRANCH  14  22
ATOM     20  C   UNL     1       7.516   8.299  17.749  0.00  0.00    +0.000 C 
ATOM     21  O   UNL     1       6.942   9.207  17.173  0.00  0.00    +0.000 OA
ATOM     22  N   UNL     1       7.040   7.001  17.775  0.00  0.00    +0.000 N 
ATOM     23  H   UNL     1       7.403   6.374  18.475  0.00  0.00    +0.000 HD
BRANCH  20  25
ATOM     24  C   UNL     1       9.047   9.936  18.885  0.00  0.00    +0.000 C 
ATOM     25  C   UNL     1       8.815   8.480  18.505  0.00  0.00    +0.000 C 
ENDBRANCH  20  25
ENDBRANCH  14  22
ENDBRANCH   1  14
TORSDOF 5
ENDMDL
MODEL 5
REMARK VINA RESULT:      -7.1      3.415      6.144
REMARK  Name = 
REMARK  6 active torsions:
REMARK  status: ('A' for Active; 'I' for Inactive)
REMARK    1  A    between atoms: C_1  and  C_2
REMARK    2  A    between atoms: C_2  and  C_3
REMARK    3  A    between atoms: N_5  and  C_6
REMARK    4  A    between atoms: C_6  and  C_7
REMARK    5  A    between atoms: C_6  and  C_12
REMARK    6  A    between atoms: C_22  and  O_23
REMARK                            x       y       z     vdW  Elec       q    Type
REMARK                         _______ _______ _______ _____ _____    ______ ____
ROOT
ATOM      1  C   UNL     1       2.209   7.022  19.594  0.00  0.00    +0.000 A 
ATOM      2  C   UNL     1       1.472   7.271  20.761  0.00  0.00    +0.000 A 
ATOM      3  C   UNL     1       0.821   8.486  20.962  0.00  0.00    +0.000 A 
ATOM      4 CL   UNL     1      -0.187   8.613  22.364  0.00  0.00    +0.000 Cl
ATOM      5  C   UNL     1       0.985   9.550  20.055  0.00  0.00    +0.000 A 
ATOM      6  C   UNL     1       0.418  10.826  20.229  0.00  0.00    +0.000 A 
ATOM      7  C   UNL     1       0.704  11.849  19.334  0.00  0.00    +0.000 A 
ATOM      8  C   UNL     1       1.517  11.556  18.259  0.00  0.00    +0.000 A 
ATOM      9  N   UNL     1       2.042  10.332  18.021  0.00  0.00    +0.000 NA
ATOM     10  C   UNL     1       1.789   9.351  18.913  0.00  0.00    +0.000 A 
ATOM     11  C   UNL     1       2.357   8.088  18.700  0.00  0.00    +0.000 A 
ENDROOT
BRANCH  11  12
ATOM     12  O   UNL     1       3.102   7.905  17.556  0.00  0.00    +0.000 OA
ATOM     13  H   UNL     1       3.317   6.947  17.550  0.00  0.00    +0.000 HD
ENDBRANCH  11  12
BRANCH   1  14
ATOM     14  C   UNL     1       2.814   5.647  19.319  0.00  0.00    +0.000 C 
BRANCH  14  15
ATOM     15  C   UNL     1       2.047   4.557  20.043  0.00  0.00    +0.000 A 
ATOM     16  C   UNL     1       2.232   3.963  21.277  0.00  0.00    +0.000 A 
ATOM     17  C   UNL     1       1.375   2.834  21.321  0.00  0.00    +0.000 A 
ATOM     18  C   UNL     1       0.671   2.844  20.143  0.00  0.00    +0.000 A 
ATOM     19  O   UNL     1       1.069   3.879  19.356  0.00  0.00    +0.000 OA
ENDBRANCH  14  15
BRANCH  14  22
ATOM     20  C   UNL     1       5.203   5.477  18.726  0.00  0.00    +0.000 C 
ATOM     21  O   UNL     1       4.962   5.329  17.541  0.00  0.00    +0.000 OA
ATOM     22  N   UNL     1       4.218   5.628  19.685  0.00  0.00    +0.000 N 
ATOM     23  H   UNL     1       4.479   6.009  20.580  0.00  0.00    +0.000 HD
BRANCH  20  25
ATOM     24  C   UNL     1       7.557   6.291  18.395  0.00  0.00    +0.000 C 
ATOM     25  C   UNL     1       6.607   5.512  19.294  0.00  0.00    +0.000 C 
ENDBRANCH  20  25
ENDBRANCH  14  22
ENDBRANCH   1  14
TORSDOF 5
ENDMDL
MODEL 6
REMARK VINA RESULT:      -7.1      1.085      1.254
REMARK  Name = 
REMARK  6 active torsions:
REMARK  status: ('A' for Active; 'I' for Inactive)
REMARK    1  A    between atoms: C_1  and  C_2
REMARK    2  A    between atoms: C_2  and  C_3
REMARK    3  A    between atoms: N_5  and  C_6
REMARK    4  A    between atoms: C_6  and  C_7
REMARK    5  A    between atoms: C_6  and  C_12
REMARK    6  A    between atoms: C_22  and  O_23
REMARK                            x       y       z     vdW  Elec       q    Type
REMARK                         _______ _______ _______ _____ _____    ______ ____
ROOT
ATOM      1  C   UNL     1       4.893   5.035  18.375  0.00  0.00    +0.000 A 
ATOM      2  C   UNL     1       4.005   6.118  18.461  0.00  0.00    +0.000 A 
ATOM      3  C   UNL     1       2.874   6.066  19.274  0.00  0.00    +0.000 A 
ATOM      4 CL   UNL     1       1.947   7.521  19.419  0.00  0.00    +0.000 Cl
ATOM      5  C   UNL     1       2.520   4.878  19.940  0.00  0.00    +0.000 A 
ATOM      6  C   UNL     1       1.357   4.730  20.718  0.00  0.00    +0.000 A 
ATOM      7  C   UNL     1       1.032   3.496  21.266  0.00  0.00    +0.000 A 
ATOM      8  C   UNL     1       1.906   2.449  21.059  0.00  0.00    +0.000 A 
ATOM      9  N   UNL     1       3.061   2.555  20.363  0.00  0.00    +0.000 NA
ATOM     10  C   UNL     1       3.353   3.748  19.803  0.00  0.00    +0.000 A 
ATOM     11  C   UNL     1       4.528   3.864  19.048  0.00  0.00    +0.000 A 
ENDROOT
BRANCH  11  12
ATOM     12  O   UNL     1       5.349   2.761  18.966  0.00  0.00    +0.000 OA
ATOM     13  H   UNL     1       6.101   3.052  18.405  0.00  0.00    +0.000 HD
ENDBRANCH  11  12
BRANCH   1  14
ATOM     14  C   UNL     1       6.195   5.141  17.585  0.00  0.00    +0.000 C 
BRANCH  14  15
ATOM     15  C   UNL     1       6.878   6.473  17.832  0.00  0.00    +0.000 A 
ATOM     16  C   UNL     1       6.810   7.682  17.168  0.00  0.00    +0.000 A 
ATOM     17  C   UNL     1       7.852   8.493  17.684  0.00  0.00    +0.000 A 
ATOM     18  C   UNL     1       8.450   7.759  18.677  0.00  0.00    +0.000 A 
ATOM     19  O   UNL     1       7.875   6.531  18.777  0.00  0.00    +0.000 OA
ENDBRANCH  14  15
BRANCH  14  22
ATOM     20  C   UNL     1       6.983   4.640  15.301  0.00  0.00    +0.000 C 
ATOM     21  O   UNL     1       8.146   4.556  15.655  0.00  0.00    +0.000 OA
ATOM     22  N   UNL     1       5.949   4.936  16.170  0.00  0.00    +0.000 N 
ATOM     23  H   UNL     1       5.007   4.727  15.879  0.00  0.00    +0.000 HD
BRANCH  20  25
ATOM     24  C   UNL     1       5.058   4.044  13.801  0.00  0.00    +0.000 C 
ATOM     25  C   UNL     1       6.528   4.430  13.872  0.00  0.00    +0.000 C 
ENDBRANCH  20  25
ENDBRANCH  14  22
ENDBRANCH   1  14
TORSDOF 5
ENDMDL
MODEL 7
REMARK VINA RESULT:      -7.0      2.895      6.494
REMARK  Name = 
REMARK  6 active torsions:
REMARK  status: ('A' for Active; 'I' for Inactive)
REMARK    1  A    between atoms: C_1  and  C_2
REMARK    2  A    between atoms: C_2  and  C_3
REMARK    3  A    between atoms: N_5  and  C_6
REMARK    4  A    between atoms: C_6  and  C_7
REMARK    5  A    between atoms: C_6  and  C_12
REMARK    6  A    between atoms: C_22  and  O_23
REMARK                            x       y       z     vdW  Elec       q    Type
REMARK                         _______ _______ _______ _____ _____    ______ ____
ROOT
ATOM      1  C   UNL     1       4.140   5.577  19.100  0.00  0.00    +0.000 A 
ATOM      2  C   UNL     1       5.474   5.587  19.533  0.00  0.00    +0.000 A 
ATOM      3  C   UNL     1       6.525   5.353  18.649  0.00  0.00    +0.000 A 
ATOM      4 CL   UNL     1       8.129   5.552  19.269  0.00  0.00    +0.000 Cl
ATOM      5  C   UNL     1       6.275   4.974  17.317  0.00  0.00    +0.000 A 
ATOM      6  C   UNL     1       7.283   4.651  16.388  0.00  0.00    +0.000 A 
ATOM      7  C   UNL     1       6.948   4.198  15.119  0.00  0.00    +0.000 A 
ATOM      8  C   UNL     1       5.609   4.121  14.794  0.00  0.00    +0.000 A 
ATOM      9  N   UNL     1       4.608   4.468  15.634  0.00  0.00    +0.000 NA
ATOM     10  C   UNL     1       4.938   4.876  16.878  0.00  0.00    +0.000 A 
ATOM     11  C   UNL     1       3.909   5.204  17.771  0.00  0.00    +0.000 A 
ENDROOT
BRANCH  11  12
ATOM     12  O   UNL     1       2.614   5.144  17.307  0.00  0.00    +0.000 OA
ATOM     13  H   UNL     1       2.175   5.935  17.689  0.00  0.00    +0.000 HD
ENDBRANCH  11  12
BRANCH   1  14
ATOM     14  C   UNL     1       3.000   5.959  20.041  0.00  0.00    +0.000 C 
BRANCH  14  15
ATOM     15  C   UNL     1       2.159   4.749  20.402  0.00  0.00    +0.000 A 
ATOM     16  C   UNL     1       2.229   3.860  21.457  0.00  0.00    +0.000 A 
ATOM     17  C   UNL     1       1.357   2.785  21.145  0.00  0.00    +0.000 A 
ATOM     18  C   UNL     1       0.757   3.114  19.955  0.00  0.00    +0.000 A 
ATOM     19  O   UNL     1       1.236   4.299  19.489  0.00  0.00    +0.000 OA
ENDBRANCH  14  15
BRANCH  14  22
ATOM     20  C   UNL     1       1.663   8.025  20.225  0.00  0.00    +0.000 C 
ATOM     21  O   UNL     1       1.832   8.100  21.430  0.00  0.00    +0.000 OA
ATOM     22  N   UNL     1       2.184   7.004  19.451  0.00  0.00    +0.000 N 
ATOM     23  H   UNL     1       2.239   7.142  18.455  0.00  0.00    +0.000 HD
BRANCH  20  25
ATOM     24  C   UNL     1       1.456   9.256  18.045  0.00  0.00    +0.000 C 
ATOM     25  C   UNL     1       0.865   9.037  19.430  0.00  0.00    +0.000 C 
ENDBRANCH  20  25
ENDBRANCH  14  22
ENDBRANCH   1  14
TORSDOF 5
ENDMDL
MODEL 8
REMARK VINA RESULT:      -6.9      2.110      4.104
REMARK  Name = 
REMARK  6 active torsions:
REMARK  status: ('A' for Active; 'I' for Inactive)
REMARK    1  A    between atoms: C_1  and  C_2
REMARK    2  A    between atoms: C_2  and  C_3
REMARK    3  A    between atoms: N_5  and  C_6
REMARK    4  A    between atoms: C_6  and  C_7
REMARK    5  A    between atoms: C_6  and  C_12
REMARK    6  A    between atoms: C_22  and  O_23
REMARK                            x       y       z     vdW  Elec       q    Type
REMARK                         _______ _______ _______ _____ _____    ______ ____
ROOT
ATOM      1  C   UNL     1       4.401   5.291  17.061  0.00  0.00    +0.000 A 
ATOM      2  C   UNL     1       4.442   3.890  17.106  0.00  0.00    +0.000 A 
ATOM      3  C   UNL     1       3.614   3.167  17.963  0.00  0.00    +0.000 A 
ATOM      4 CL   UNL     1       3.643   1.443  17.810  0.00  0.00    +0.000 Cl
ATOM      5  C   UNL     1       2.798   3.826  18.901  0.00  0.00    +0.000 A 
ATOM      6  C   UNL     1       1.993   3.163  19.846  0.00  0.00    +0.000 A 
ATOM      7  C   UNL     1       1.288   3.887  20.798  0.00  0.00    +0.000 A 
ATOM      8  C   UNL     1       1.372   5.263  20.754  0.00  0.00    +0.000 A 
ATOM      9  N   UNL     1       2.091   5.946  19.834  0.00  0.00    +0.000 NA
ATOM     10  C   UNL     1       2.802   5.236  18.932  0.00  0.00    +0.000 A 
ATOM     11  C   UNL     1       3.580   5.930  17.997  0.00  0.00    +0.000 A 
ENDROOT
BRANCH  11  12
ATOM     12  O   UNL     1       3.533   7.306  18.017  0.00  0.00    +0.000 OA
ATOM     13  H   UNL     1       2.700   7.520  18.490  0.00  0.00    +0.000 HD
ENDBRANCH  11  12
BRANCH   1  14
ATOM     14  C   UNL     1       5.215   6.073  16.033  0.00  0.00    +0.000 C 
BRANCH  14  15
ATOM     15  C   UNL     1       5.839   5.144  15.008  0.00  0.00    +0.000 A 
ATOM     16  C   UNL     1       7.136   5.015  14.550  0.00  0.00    +0.000 A 
ATOM     17  C   UNL     1       7.086   4.168  13.414  0.00  0.00    +0.000 A 
ATOM     18  C   UNL     1       5.777   3.776  13.286  0.00  0.00    +0.000 A 
ATOM     19  O   UNL     1       5.007   4.363  14.242  0.00  0.00    +0.000 OA
ENDBRANCH  14  15
BRANCH  14  22
ATOM     20  C   UNL     1       7.077   6.326  17.632  0.00  0.00    +0.000 C 
ATOM     21  O   UNL     1       7.019   5.159  17.978  0.00  0.00    +0.000 OA
ATOM     22  N   UNL     1       6.226   6.878  16.691  0.00  0.00    +0.000 N 
ATOM     23  H   UNL     1       6.493   7.748  16.260  0.00  0.00    +0.000 HD
BRANCH  20  25
ATOM     24  C   UNL     1       7.843   8.719  17.657  0.00  0.00    +0.000 C 
ATOM     25  C   UNL     1       8.084   7.312  18.186  0.00  0.00    +0.000 C 
ENDBRANCH  20  25
ENDBRANCH  14  22
ENDBRANCH   1  14
TORSDOF 5
ENDMDL
MODEL 9
REMARK VINA RESULT:      -6.9      3.057      5.288
REMARK  Name = 
REMARK  6 active torsions:
REMARK  status: ('A' for Active; 'I' for Inactive)
REMARK    1  A    between atoms: C_1  and  C_2
REMARK    2  A    between atoms: C_2  and  C_3
REMARK    3  A    between atoms: N_5  and  C_6
REMARK    4  A    between atoms: C_6  and  C_7
REMARK    5  A    between atoms: C_6  and  C_12
REMARK    6  A    between atoms: C_22  and  O_23
REMARK                            x       y       z     vdW  Elec       q    Type
REMARK                         _______ _______ _______ _____ _____    ______ ____
ROOT
ATOM      1  C   UNL     1       2.666   7.040  18.711  0.00  0.00    +0.000 A 
ATOM      2  C   UNL     1       2.431   8.192  17.946  0.00  0.00    +0.000 A 
ATOM      3  C   UNL     1       1.820   9.317  18.498  0.00  0.00    +0.000 A 
ATOM      4 CL   UNL     1       1.733  10.729  17.501  0.00  0.00    +0.000 Cl
ATOM      5  C   UNL     1       1.306   9.287  19.807  0.00  0.00    +0.000 A 
ATOM      6  C   UNL     1       0.613  10.357  20.405  0.00  0.00    +0.000 A 
ATOM      7  C   UNL     1       0.056  10.214  21.668  0.00  0.00    +0.000 A 
ATOM      8  C   UNL     1       0.245   9.015  22.324  0.00  0.00    +0.000 A 
ATOM      9  N   UNL     1       0.946   7.977  21.813  0.00  0.00    +0.000 NA
ATOM     10  C   UNL     1       1.456   8.110  20.570  0.00  0.00    +0.000 A 
ATOM     11  C   UNL     1       2.153   7.030  20.013  0.00  0.00    +0.000 A 
ENDROOT
BRANCH  11  12
ATOM     12  O   UNL     1       2.326   5.907  20.792  0.00  0.00    +0.000 OA
ATOM     13  H   UNL     1       3.297   5.842  20.922  0.00  0.00    +0.000 HD
ENDBRANCH  11  12
BRANCH   1  14
ATOM     14  C   UNL     1       3.448   5.859  18.141  0.00  0.00    +0.000 C 
BRANCH  14  15
ATOM     15  C   UNL     1       2.679   4.562  18.305  0.00  0.00    +0.000 A 
ATOM     16  C   UNL     1       1.460   4.144  17.807  0.00  0.00    +0.000 A 
ATOM     17  C   UNL     1       1.125   2.949  18.493  0.00  0.00    +0.000 A 
ATOM     18  C   UNL     1       2.186   2.673  19.318  0.00  0.00    +0.000 A 
ATOM     19  O   UNL     1       3.134   3.643  19.220  0.00  0.00    +0.000 OA
ENDBRANCH  14  15
BRANCH  14  22
ATOM     20  C   UNL     1       5.881   5.463  18.017  0.00  0.00    +0.000 C 
ATOM     21  O   UNL     1       5.844   5.228  16.822  0.00  0.00    +0.000 OA
ATOM     22  N   UNL     1       4.757   5.771  18.762  0.00  0.00    +0.000 N 
ATOM     23  H   UNL     1       4.885   6.211  19.660  0.00  0.00    +0.000 HD
BRANCH  20  25
ATOM     24  C   UNL     1       7.979   6.710  18.614  0.00  0.00    +0.000 C 
ATOM     25  C   UNL     1       7.157   5.447  18.832  0.00  0.00    +0.000 C 
ENDBRANCH  20  25
ENDBRANCH  14  22
ENDBRANCH   1  14
TORSDOF 5
ENDMDL
