MODEL 1
REMARK VINA RESULT:      -8.3      0.000      0.000
REMARK  Name = 
REMARK  6 active torsions:
REMARK  status: ('A' for Active; 'I' for Inactive)
REMARK    1  A    between atoms: C_1  and  N_2
REMARK    2  A    between atoms: N_9  and  C_10
REMARK    3  A    between atoms: C_10  and  C_11
REMARK    4  A    between atoms: N_13  and  C_14
REMARK    5  A    between atoms: C_19  and  N_20
REMARK    6  A    between atoms: N_26  and  C_27
REMARK                            x       y       z     vdW  Elec       q    Type
REMARK                         _______ _______ _______ _____ _____    ______ ____
ROOT
ATOM      1  C   UNL     1       2.432   6.783  19.132  0.00  0.00    +0.000 C 
ATOM      2  O   UNL     1       2.918   6.326  20.178  0.00  0.00    +0.000 OA
ATOM      3  N   UNL     1       2.200   6.011  18.001  0.00  0.00    +0.000 N 
ATOM      4  H   UNL     1       2.428   6.470  17.127  0.00  0.00    +0.000 HD
ENDROOT
BRANCH   3   5
ATOM      5  C   UNL     1       2.514   4.613  18.039  0.00  0.00    +0.000 A 
ATOM      6  C   UNL     1       1.491   3.729  18.405  0.00  0.00    +0.000 A 
ATOM      7  C   UNL     1       1.683   2.351  18.321  0.00  0.00    +0.000 A 
ATOM      8  C   UNL     1       2.903   1.840  17.905  0.00  0.00    +0.000 A 
ATOM      9  C   UNL     1       3.941   2.715  17.589  0.00  0.00    +0.000 A 
ATOM     10  C   UNL     1       3.789   4.118  17.652  0.00  0.00    +0.000 A 
BRANCH  10  11
ATOM     11  N   UNL     1       4.877   4.929  17.393  0.00  0.00    +0.000 N 
ATOM     12  C   UNL     1       5.147   5.514  16.072  0.00  0.00    +0.000 C 
ATOM     13  C   UNL     1       6.580   5.182  15.633  0.00  0.00    +0.000 C 
ATOM     14  O   UNL     1       7.548   5.558  16.632  0.00  0.00    +0.000 OA
ATOM     15  C   UNL     1       7.267   4.887  17.871  0.00  0.00    +0.000 C 
ATOM     16  C   UNL     1       5.880   5.245  18.412  0.00  0.00    +0.000 C 
ENDBRANCH  10  11
ENDBRANCH   3   5
BRANCH   1  17
ATOM     17  C   UNL     1       2.137   8.277  18.994  0.00  0.00    +0.000 C 
BRANCH  17  26
ATOM     18  C   UNL     1       0.911  13.766  19.194  0.00  0.00    +0.000 C 
ATOM     19  N   UNL     1       0.610  12.507  19.849  0.00  0.00    +0.000 N 
ATOM     20  C   UNL     1       1.169  11.331  19.329  0.00  0.00    +0.000 A 
ATOM     21  O   UNL     1       1.850  11.282  18.310  0.00  0.00    +0.000 OA
ATOM     22  C   UNL     1       0.887  10.182  20.122  0.00  0.00    +0.000 A 
ATOM     23  C   UNL     1       0.109  10.249  21.243  0.00  0.00    +0.000 A 
ATOM     24  N   UNL     1       0.048   9.058  21.885  0.00  0.00    +0.000 NA
ATOM     25  C   UNL     1       0.843   8.260  21.191  0.00  0.00    +0.000 A 
ATOM     26  N   UNL     1       1.299   8.866  20.044  0.00  0.00    +0.000 N 
ATOM     27  N   UNL     1      -0.478  11.412  21.671  0.00  0.00    +0.000 N 
ATOM     28  C   UNL     1      -1.278  11.456  22.881  0.00  0.00    +0.000 C 
ATOM     29  C   UNL     1      -0.202  12.598  21.000  0.00  0.00    +0.000 A 
ATOM     30  O   UNL     1      -0.635  13.683  21.398  0.00  0.00    +0.000 OA
ENDBRANCH  17  26
ENDBRANCH   1  17
TORSDOF 4
ENDMDL
MODEL 2
REMARK VINA RESULT:      -8.2      1.161      1.161
REMARK  Name = 
REMARK  6 active torsions:
REMARK  status: ('A' for Active; 'I' for Inactive)
REMARK    1  A    between atoms: C_1  and  N_2
REMARK    2  A    between atoms: N_9  and  C_10
REMARK    3  A    between atoms: C_10  and  C_11
REMARK    4  A    between atoms: N_13  and  C_14
REMARK    5  A    between atoms: C_19  and  N_20
REMARK    6  A    between atoms: N_26  and  C_27
REMARK                            x       y       z     vdW  Elec       q    Type
REMARK                         _______ _______ _______ _____ _____    ______ ____
ROOT
ATOM      1  C   UNL     1       2.288   6.714  19.265  0.00  0.00    +0.000 C 
ATOM      2  O   UNL     1       2.544   6.221  20.374  0.00  0.00    +0.000 OA
ATOM      3  N   UNL     1       2.247   5.971  18.093  0.00  0.00    +0.000 N 
ATOM      4  H   UNL     1       2.658   6.432  17.289  0.00  0.00    +0.000 HD
ENDROOT
BRANCH   3   5
ATOM      5  C   UNL     1       2.489   4.560  18.158  0.00  0.00    +0.000 A 
ATOM      6  C   UNL     1       1.433   3.739  18.573  0.00  0.00    +0.000 A 
ATOM      7  C   UNL     1       1.551   2.352  18.519  0.00  0.00    +0.000 A 
ATOM      8  C   UNL     1       2.730   1.768  18.084  0.00  0.00    +0.000 A 
ATOM      9  C   UNL     1       3.804   2.580  17.718  0.00  0.00    +0.000 A 
ATOM     10  C   UNL     1       3.726   3.990  17.749  0.00  0.00    +0.000 A 
BRANCH  10  11
ATOM     11  N   UNL     1       4.846   4.737  17.441  0.00  0.00    +0.000 N 
ATOM     12  C   UNL     1       5.205   5.117  16.068  0.00  0.00    +0.000 C 
ATOM     13  C   UNL     1       6.652   4.701  15.768  0.00  0.00    +0.000 C 
ATOM     14  O   UNL     1       7.571   5.203  16.758  0.00  0.00    +0.000 OA
ATOM     15  C   UNL     1       7.204   4.724  18.062  0.00  0.00    +0.000 C 
ATOM     16  C   UNL     1       5.798   5.180  18.462  0.00  0.00    +0.000 C 
ENDBRANCH  10  11
ENDBRANCH   3   5
BRANCH   1  17
ATOM     17  C   UNL     1       2.089   8.223  19.108  0.00  0.00    +0.000 C 
BRANCH  17  26
ATOM     18  C   UNL     1      -1.975  12.026  18.272  0.00  0.00    +0.000 C 
ATOM     19  N   UNL     1      -1.297  11.296  19.327  0.00  0.00    +0.000 N 
ATOM     20  C   UNL     1      -0.331  10.346  18.970  0.00  0.00    +0.000 A 
ATOM     21  O   UNL     1      -0.059  10.037  17.814  0.00  0.00    +0.000 OA
ATOM     22  C   UNL     1       0.336   9.779  20.094  0.00  0.00    +0.000 A 
ATOM     23  C   UNL     1       0.008  10.116  21.376  0.00  0.00    +0.000 A 
ATOM     24  N   UNL     1       0.827   9.523  22.277  0.00  0.00    +0.000 NA
ATOM     25  C   UNL     1       1.709   8.861  21.547  0.00  0.00    +0.000 A 
ATOM     26  N   UNL     1       1.393   8.897  20.209  0.00  0.00    +0.000 N 
ATOM     27  N   UNL     1      -0.999  10.998  21.677  0.00  0.00    +0.000 N 
ATOM     28  C   UNL     1      -1.305  11.356  23.050  0.00  0.00    +0.000 C 
ATOM     29  C   UNL     1      -1.657  11.655  20.644  0.00  0.00    +0.000 A 
ATOM     30  O   UNL     1      -2.508  12.520  20.865  0.00  0.00    +0.000 OA
ENDBRANCH  17  26
ENDBRANCH   1  17
TORSDOF 4
ENDMDL
MODEL 3
REMARK VINA RESULT:      -8.1      1.245      1.245
REMARK  Name = 
REMARK  6 active torsions:
REMARK  status: ('A' for Active; 'I' for Inactive)
REMARK    1  A    between atoms: C_1  and  N_2
REMARK    2  A    between atoms: N_9  and  C_10
REMARK    3  A    between atoms: C_10  and  C_11
REMARK    4  A    between atoms: N_13  and  C_14
REMARK    5  A    between atoms: C_19  and  N_20
REMARK    6  A    between atoms: N_26  and  C_27
REMARK                            x       y       z     vdW  Elec       q    Type
REMARK                         _______ _______ _______ _____ _____    ______ ____
ROOT
ATOM      1  C   UNL     1       2.423   6.822  18.851  0.00  0.00    +0.000 C 
ATOM      2  O   UNL     1       1.837   6.100  18.031  0.00  0.00    +0.000 OA
ATOM      3  N   UNL     1       3.231   6.323  19.863  0.00  0.00    +0.000 N 
ATOM      4  H   UNL     1       3.131   6.798  20.753  0.00  0.00    +0.000 HD
ENDROOT
BRANCH   3   5
ATOM      5  C   UNL     1       3.424   4.906  19.962  0.00  0.00    +0.000 A 
ATOM      6  C   UNL     1       2.607   4.202  20.856  0.00  0.00    +0.000 A 
ATOM      7  C   UNL     1       2.638   2.809  20.896  0.00  0.00    +0.000 A 
ATOM      8  C   UNL     1       3.505   2.106  20.074  0.00  0.00    +0.000 A 
ATOM      9  C   UNL     1       4.358   2.804  19.219  0.00  0.00    +0.000 A 
ATOM     10  C   UNL     1       4.354   4.214  19.139  0.00  0.00    +0.000 A 
BRANCH  10  11
ATOM     11  N   UNL     1       5.271   4.848  18.324  0.00  0.00    +0.000 N 
ATOM     12  C   UNL     1       5.086   5.002  16.874  0.00  0.00    +0.000 C 
ATOM     13  C   UNL     1       6.317   4.472  16.126  0.00  0.00    +0.000 C 
ATOM     14  O   UNL     1       7.536   5.067  16.612  0.00  0.00    +0.000 OA
ATOM     15  C   UNL     1       7.690   4.807  18.016  0.00  0.00    +0.000 C 
ATOM     16  C   UNL     1       6.532   5.389  18.834  0.00  0.00    +0.000 C 
ENDBRANCH  10  11
ENDBRANCH   3   5
BRANCH   1  17
ATOM     17  C   UNL     1       2.210   8.337  18.850  0.00  0.00    +0.000 C 
BRANCH  17  26
ATOM     18  C   UNL     1       0.881  13.789  19.276  0.00  0.00    +0.000 C 
ATOM     19  N   UNL     1       0.614  12.500  19.886  0.00  0.00    +0.000 N 
ATOM     20  C   UNL     1       1.188  11.356  19.315  0.00  0.00    +0.000 A 
ATOM     21  O   UNL     1       1.856  11.359  18.286  0.00  0.00    +0.000 OA
ATOM     22  C   UNL     1       0.939  10.172  20.067  0.00  0.00    +0.000 A 
ATOM     23  C   UNL     1       0.175  10.180  21.199  0.00  0.00    +0.000 A 
ATOM     24  N   UNL     1       0.146   8.965  21.795  0.00  0.00    +0.000 NA
ATOM     25  C   UNL     1       0.947   8.210  21.061  0.00  0.00    +0.000 A 
ATOM     26  N   UNL     1       1.375   8.868  19.932  0.00  0.00    +0.000 N 
ATOM     27  N   UNL     1      -0.429  11.315  21.678  0.00  0.00    +0.000 N 
ATOM     28  C   UNL     1      -1.213  11.296  22.899  0.00  0.00    +0.000 C 
ATOM     29  C   UNL     1      -0.185  12.531  21.050  0.00  0.00    +0.000 A 
ATOM     30  O   UNL     1      -0.633  13.591  21.495  0.00  0.00    +0.000 OA
ENDBRANCH  17  26
ENDBRANCH   1  17
TORSDOF 4
ENDMDL
MODEL 4
REMARK VINA RESULT:      -8.1      1.897      3.669
REMARK  Name = 
REMARK  6 active torsions:
REMARK  status: ('A' for Active; 'I' for Inactive)
REMARK    1  A    between atoms: C_1  and  N_2
REMARK    2  A    between atoms: N_9  and  C_10
REMARK    3  A    between atoms: C_10  and  C_11
REMARK    4  A    between atoms: N_13  and  C_14
REMARK    5  A    between atoms: C_19  and  N_20
REMARK    6  A    between atoms: N_26  and  C_27
REMARK                            x       y       z     vdW  Elec       q    Type
REMARK                         _______ _______ _______ _____ _____    ______ ____
ROOT
ATOM      1  C   UNL     1       2.714   6.325  18.245  0.00  0.00    +0.000 C 
ATOM      2  O   UNL     1       1.918   5.802  17.452  0.00  0.00    +0.000 OA
ATOM      3  N   UNL     1       4.091   6.172  18.152  0.00  0.00    +0.000 N 
ATOM      4  H   UNL     1       4.560   6.046  19.042  0.00  0.00    +0.000 HD
ENDROOT
BRANCH   3   5
ATOM      5  C   UNL     1       4.631   5.391  17.078  0.00  0.00    +0.000 A 
ATOM      6  C   UNL     1       5.183   6.078  15.990  0.00  0.00    +0.000 A 
ATOM      7  C   UNL     1       5.854   5.388  14.984  0.00  0.00    +0.000 A 
ATOM      8  C   UNL     1       5.955   4.006  15.032  0.00  0.00    +0.000 A 
ATOM      9  C   UNL     1       5.364   3.312  16.087  0.00  0.00    +0.000 A 
ATOM     10  C   UNL     1       4.680   3.971  17.133  0.00  0.00    +0.000 A 
BRANCH  10  11
ATOM     11  N   UNL     1       4.057   3.222  18.111  0.00  0.00    +0.000 N 
ATOM     12  C   UNL     1       2.891   2.367  17.849  0.00  0.00    +0.000 C 
ATOM     13  C   UNL     1       1.755   2.713  18.822  0.00  0.00    +0.000 C 
ATOM     14  O   UNL     1       2.194   2.672  20.194  0.00  0.00    +0.000 OA
ATOM     15  C   UNL     1       3.280   3.591  20.393  0.00  0.00    +0.000 C 
ATOM     16  C   UNL     1       4.485   3.249  19.511  0.00  0.00    +0.000 C 
ENDBRANCH  10  11
ENDBRANCH   3   5
BRANCH   1  17
ATOM     17  C   UNL     1       2.209   7.113  19.455  0.00  0.00    +0.000 C 
BRANCH  17  26
ATOM     18  C   UNL     1      -0.776  10.153  23.132  0.00  0.00    +0.000 C 
ATOM     19  N   UNL     1      -0.094  10.257  21.856  0.00  0.00    +0.000 N 
ATOM     20  C   UNL     1       0.605   9.141  21.377  0.00  0.00    +0.000 A 
ATOM     21  O   UNL     1       0.738   8.090  21.996  0.00  0.00    +0.000 OA
ATOM     22  C   UNL     1       1.137   9.335  20.069  0.00  0.00    +0.000 A 
ATOM     23  C   UNL     1       1.000  10.518  19.400  0.00  0.00    +0.000 A 
ATOM     24  N   UNL     1       1.505  10.447  18.146  0.00  0.00    +0.000 NA
ATOM     25  C   UNL     1       1.904   9.194  18.013  0.00  0.00    +0.000 A 
ATOM     26  N   UNL     1       1.799   8.497  19.194  0.00  0.00    +0.000 N 
ATOM     27  N   UNL     1       0.370  11.609  19.943  0.00  0.00    +0.000 N 
ATOM     28  C   UNL     1       0.217  12.844  19.196  0.00  0.00    +0.000 C 
ATOM     29  C   UNL     1      -0.242  11.491  21.186  0.00  0.00    +0.000 A 
ATOM     30  O   UNL     1      -0.896  12.415  21.676  0.00  0.00    +0.000 OA
ENDBRANCH  17  26
ENDBRANCH   1  17
TORSDOF 4
ENDMDL
MODEL 5
REMARK VINA RESULT:      -7.9      1.549      2.270
REMARK  Name = 
REMARK  6 active torsions:
REMARK  status: ('A' for Active; 'I' for Inactive)
REMARK    1  A    between atoms: C_1  and  N_2
REMARK    2  A    between atoms: N_9  and  C_10
REMARK    3  A    between atoms: C_10  and  C_11
REMARK    4  A    between atoms: N_13  and  C_14
REMARK    5  A    between atoms: C_19  and  N_20
REMARK    6  A    between atoms: N_26  and  C_27
REMARK                            x       y       z     vdW  Elec       q    Type
REMARK                         _______ _______ _______ _____ _____    ______ ____
ROOT
ATOM      1  C   UNL     1       2.414   6.523  19.369  0.00  0.00    +0.000 C 
ATOM      2  O   UNL     1       1.873   6.385  18.261  0.00  0.00    +0.000 OA
ATOM      3  N   UNL     1       3.079   5.495  20.023  0.00  0.00    +0.000 N 
ATOM      4  H   UNL     1       2.916   5.458  21.022  0.00  0.00    +0.000 HD
ENDROOT
BRANCH   3   5
ATOM      5  C   UNL     1       3.172   4.213  19.387  0.00  0.00    +0.000 A 
ATOM      6  C   UNL     1       2.264   3.225  19.785  0.00  0.00    +0.000 A 
ATOM      7  C   UNL     1       2.201   2.008  19.110  0.00  0.00    +0.000 A 
ATOM      8  C   UNL     1       3.062   1.749  18.055  0.00  0.00    +0.000 A 
ATOM      9  C   UNL     1       4.004   2.710  17.687  0.00  0.00    +0.000 A 
ATOM     10  C   UNL     1       4.097   3.960  18.338  0.00  0.00    +0.000 A 
BRANCH  10  11
ATOM     11  N   UNL     1       5.097   4.840  17.972  0.00  0.00    +0.000 N 
ATOM     12  C   UNL     1       5.026   5.682  16.770  0.00  0.00    +0.000 C 
ATOM     13  C   UNL     1       6.287   5.488  15.916  0.00  0.00    +0.000 C 
ATOM     14  O   UNL     1       7.490   5.691  16.684  0.00  0.00    +0.000 OA
ATOM     15  C   UNL     1       7.528   4.780  17.794  0.00  0.00    +0.000 C 
ATOM     16  C   UNL     1       6.338   4.980  18.736  0.00  0.00    +0.000 C 
ENDBRANCH  10  11
ENDBRANCH   3   5
BRANCH   1  17
ATOM     17  C   UNL     1       2.296   7.840  20.138  0.00  0.00    +0.000 C 
BRANCH  17  26
ATOM     18  C   UNL     1      -1.283  11.055  23.056  0.00  0.00    +0.000 C 
ATOM     19  N   UNL     1      -0.733  10.883  21.725  0.00  0.00    +0.000 N 
ATOM     20  C   UNL     1       0.250   9.902  21.528  0.00  0.00    +0.000 A 
ATOM     21  O   UNL     1       0.729   9.215  22.424  0.00  0.00    +0.000 OA
ATOM     22  C   UNL     1       0.629   9.758  20.163  0.00  0.00    +0.000 A 
ATOM     23  C   UNL     1       0.102  10.546  19.178  0.00  0.00    +0.000 A 
ATOM     24  N   UNL     1       0.539  10.176  17.951  0.00  0.00    +0.000 NA
ATOM     25  C   UNL     1       1.296   9.113  18.169  0.00  0.00    +0.000 A 
ATOM     26  N   UNL     1       1.470   8.877  19.512  0.00  0.00    +0.000 N 
ATOM     27  N   UNL     1      -0.803  11.545  19.432  0.00  0.00    +0.000 N 
ATOM     28  C   UNL     1      -1.364  12.347  18.360  0.00  0.00    +0.000 C 
ATOM     29  C   UNL     1      -1.285  11.712  20.725  0.00  0.00    +0.000 A 
ATOM     30  O   UNL     1      -2.165  12.537  20.987  0.00  0.00    +0.000 OA
ENDBRANCH  17  26
ENDBRANCH   1  17
TORSDOF 4
ENDMDL
MODEL 6
REMARK VINA RESULT:      -7.9      0.722      1.175
REMARK  Name = 
REMARK  6 active torsions:
REMARK  status: ('A' for Active; 'I' for Inactive)
REMARK    1  A    between atoms: C_1  and  N_2
REMARK    2  A    between atoms: N_9  and  C_10
REMARK    3  A    between atoms: C_10  and  C_11
REMARK    4  A    between atoms: N_13  and  C_14
REMARK    5  A    between atoms: C_19  and  N_20
REMARK    6  A    between atoms: N_26  and  C_27
REMARK                            x       y       z     vdW  Elec       q    Type
REMARK                         _______ _______ _______ _____ _____    ______ ____
ROOT
ATOM      1  C   UNL     1       2.496   6.608  19.064  0.00  0.00    +0.000 C 
ATOM      2  O   UNL     1       2.938   6.218  20.155  0.00  0.00    +0.000 OA
ATOM      3  N   UNL     1       2.244   5.756  17.997  0.00  0.00    +0.000 N 
ATOM      4  H   UNL     1       2.510   6.126  17.092  0.00  0.00    +0.000 HD
ENDROOT
BRANCH   3   5
ATOM      5  C   UNL     1       2.482   4.351  18.160  0.00  0.00    +0.000 A 
ATOM      6  C   UNL     1       1.452   3.578  18.708  0.00  0.00    +0.000 A 
ATOM      7  C   UNL     1       1.559   2.190  18.758  0.00  0.00    +0.000 A 
ATOM      8  C   UNL     1       2.704   1.560  18.296  0.00  0.00    +0.000 A 
ATOM      9  C   UNL     1       3.755   2.329  17.796  0.00  0.00    +0.000 A 
ATOM     10  C   UNL     1       3.686   3.738  17.719  0.00  0.00    +0.000 A 
BRANCH  10  11
ATOM     11  N   UNL     1       4.788   4.446  17.279  0.00  0.00    +0.000 N 
ATOM     12  C   UNL     1       5.776   5.043  18.188  0.00  0.00    +0.000 C 
ATOM     13  C   UNL     1       5.961   6.531  17.861  0.00  0.00    +0.000 C 
ATOM     14  O   UNL     1       6.269   6.739  16.469  0.00  0.00    +0.000 OA
ATOM     15  C   UNL     1       5.222   6.203  15.645  0.00  0.00    +0.000 C 
ATOM     16  C   UNL     1       5.043   4.697  15.859  0.00  0.00    +0.000 C 
ENDBRANCH  10  11
ENDBRANCH   3   5
BRANCH   1  17
ATOM     17  C   UNL     1       2.283   8.098  18.794  0.00  0.00    +0.000 C 
BRANCH  17  26
ATOM     18  C   UNL     1       1.391  13.649  18.545  0.00  0.00    +0.000 C 
ATOM     19  N   UNL     1       0.981  12.461  19.269  0.00  0.00    +0.000 N 
ATOM     20  C   UNL     1       1.490  11.220  18.863  0.00  0.00    +0.000 A 
ATOM     21  O   UNL     1       2.218  11.057  17.888  0.00  0.00    +0.000 OA
ATOM     22  C   UNL     1       1.099  10.150  19.718  0.00  0.00    +0.000 A 
ATOM     23  C   UNL     1       0.272  10.343  20.787  0.00  0.00    +0.000 A 
ATOM     24  N   UNL     1       0.105   9.207  21.506  0.00  0.00    +0.000 NA
ATOM     25  C   UNL     1       0.883   8.316  20.913  0.00  0.00    +0.000 A 
ATOM     26  N   UNL     1       1.432   8.810  19.753  0.00  0.00    +0.000 N 
ATOM     27  N   UNL     1      -0.263  11.567  21.101  0.00  0.00    +0.000 N 
ATOM     28  C   UNL     1      -1.118  11.744  22.260  0.00  0.00    +0.000 C 
ATOM     29  C   UNL     1       0.119  12.683  20.365  0.00  0.00    +0.000 A 
ATOM     30  O   UNL     1      -0.265  13.817  20.663  0.00  0.00    +0.000 OA
ENDBRANCH  17  26
ENDBRANCH   1  17
TORSDOF 4
ENDMDL
MODEL 7
REMARK VINA RESULT:      -7.9      1.635      2.128
REMARK  Name = 
REMARK  6 active torsions:
REMARK  status: ('A' for Active; 'I' for Inactive)
REMARK    1  A    between atoms: C_1  and  N_2
REMARK    2  A    between atoms: N_9  and  C_10
REMARK    3  A    between atoms: C_10  and  C_11
REMARK    4  A    between atoms: N_13  and  C_14
REMARK    5  A    between atoms: C_19  and  N_20
REMARK    6  A    between atoms: N_26  and  C_27
REMARK                            x       y       z     vdW  Elec       q    Type
REMARK                         _______ _______ _______ _____ _____    ______ ____
ROOT
ATOM      1  C   UNL     1       2.187   7.255  19.236  0.00  0.00    +0.000 C 
ATOM      2  O   UNL     1       1.981   6.654  20.302  0.00  0.00    +0.000 OA
ATOM      3  N   UNL     1       2.507   6.609  18.050  0.00  0.00    +0.000 N 
ATOM      4  H   UNL     1       3.220   7.074  17.498  0.00  0.00    +0.000 HD
ENDROOT
BRANCH   3   5
ATOM      5  C   UNL     1       2.584   5.178  18.037  0.00  0.00    +0.000 A 
ATOM      6  C   UNL     1       1.446   4.463  18.428  0.00  0.00    +0.000 A 
ATOM      7  C   UNL     1       1.401   3.077  18.301  0.00  0.00    +0.000 A 
ATOM      8  C   UNL     1       2.500   2.385  17.815  0.00  0.00    +0.000 A 
ATOM      9  C   UNL     1       3.656   3.086  17.472  0.00  0.00    +0.000 A 
ATOM     10  C   UNL     1       3.742   4.492  17.577  0.00  0.00    +0.000 A 
BRANCH  10  11
ATOM     11  N   UNL     1       4.938   5.120  17.288  0.00  0.00    +0.000 N 
ATOM     12  C   UNL     1       5.301   5.573  15.938  0.00  0.00    +0.000 C 
ATOM     13  C   UNL     1       6.675   5.011  15.547  0.00  0.00    +0.000 C 
ATOM     14  O   UNL     1       7.678   5.308  16.538  0.00  0.00    +0.000 OA
ATOM     15  C   UNL     1       7.293   4.766  17.811  0.00  0.00    +0.000 C 
ATOM     16  C   UNL     1       5.967   5.353  18.303  0.00  0.00    +0.000 C 
ENDBRANCH  10  11
ENDBRANCH   3   5
BRANCH   1  17
ATOM     17  C   UNL     1       2.191   8.783  19.189  0.00  0.00    +0.000 C 
BRANCH  17  26
ATOM     18  C   UNL     1      -0.880  11.862  22.762  0.00  0.00    +0.000 C 
ATOM     19  N   UNL     1      -0.822  11.450  21.372  0.00  0.00    +0.000 N 
ATOM     20  C   UNL     1       0.268  10.678  20.947  0.00  0.00    +0.000 A 
ATOM     21  O   UNL     1       1.220  10.375  21.659  0.00  0.00    +0.000 OA
ATOM     22  C   UNL     1       0.153  10.249  19.593  0.00  0.00    +0.000 A 
ATOM     23  C   UNL     1      -0.903  10.611  18.806  0.00  0.00    +0.000 A 
ATOM     24  N   UNL     1      -0.849  10.020  17.589  0.00  0.00    +0.000 NA
ATOM     25  C   UNL     1       0.215   9.236  17.642  0.00  0.00    +0.000 A 
ATOM     26  N   UNL     1       0.925   9.417  18.806  0.00  0.00    +0.000 N 
ATOM     27  N   UNL     1      -1.910  11.432  19.246  0.00  0.00    +0.000 N 
ATOM     28  C   UNL     1      -3.032  11.778  18.393  0.00  0.00    +0.000 C 
ATOM     29  C   UNL     1      -1.919  11.843  20.574  0.00  0.00    +0.000 A 
ATOM     30  O   UNL     1      -2.848  12.508  21.040  0.00  0.00    +0.000 OA
ENDBRANCH  17  26
ENDBRANCH   1  17
TORSDOF 4
ENDMDL
MODEL 8
REMARK VINA RESULT:      -7.9      1.235      1.535
REMARK  Name = 
REMARK  6 active torsions:
REMARK  status: ('A' for Active; 'I' for Inactive)
REMARK    1  A    between atoms: C_1  and  N_2
REMARK    2  A    between atoms: N_9  and  C_10
REMARK    3  A    between atoms: C_10  and  C_11
REMARK    4  A    between atoms: N_13  and  C_14
REMARK    5  A    between atoms: C_19  and  N_20
REMARK    6  A    between atoms: N_26  and  C_27
REMARK                            x       y       z     vdW  Elec       q    Type
REMARK                         _______ _______ _______ _____ _____    ______ ____
ROOT
ATOM      1  C   UNL     1       2.219   6.467  19.522  0.00  0.00    +0.000 C 
ATOM      2  O   UNL     1       2.334   5.942  20.639  0.00  0.00    +0.000 OA
ATOM      3  N   UNL     1       2.207   5.743  18.338  0.00  0.00    +0.000 N 
ATOM      4  H   UNL     1       2.724   6.171  17.578  0.00  0.00    +0.000 HD
ENDROOT
BRANCH   3   5
ATOM      5  C   UNL     1       2.311   4.314  18.397  0.00  0.00    +0.000 A 
ATOM      6  C   UNL     1       1.195   3.602  18.855  0.00  0.00    +0.000 A 
ATOM      7  C   UNL     1       1.174   2.210  18.800  0.00  0.00    +0.000 A 
ATOM      8  C   UNL     1       2.272   1.512  18.323  0.00  0.00    +0.000 A 
ATOM      9  C   UNL     1       3.406   2.214  17.914  0.00  0.00    +0.000 A 
ATOM     10  C   UNL     1       3.469   3.625  17.944  0.00  0.00    +0.000 A 
BRANCH  10  11
ATOM     11  N   UNL     1       4.645   4.258  17.592  0.00  0.00    +0.000 N 
ATOM     12  C   UNL     1       5.693   4.605  18.562  0.00  0.00    +0.000 C 
ATOM     13  C   UNL     1       6.049   6.094  18.442  0.00  0.00    +0.000 C 
ATOM     14  O   UNL     1       6.381   6.458  17.089  0.00  0.00    +0.000 OA
ATOM     15  C   UNL     1       5.281   6.166  16.212  0.00  0.00    +0.000 C 
ATOM     16  C   UNL     1       4.930   4.675  16.217  0.00  0.00    +0.000 C 
ENDBRANCH  10  11
ENDBRANCH   3   5
BRANCH   1  17
ATOM     17  C   UNL     1       2.174   7.989  19.375  0.00  0.00    +0.000 C 
BRANCH  17  26
ATOM     18  C   UNL     1      -1.462  12.101  18.131  0.00  0.00    +0.000 C 
ATOM     19  N   UNL     1      -0.968  11.317  19.247  0.00  0.00    +0.000 N 
ATOM     20  C   UNL     1      -0.043  10.295  18.990  0.00  0.00    +0.000 A 
ATOM     21  O   UNL     1       0.335   9.971  17.869  0.00  0.00    +0.000 OA
ATOM     22  C   UNL     1       0.445   9.673  20.175  0.00  0.00    +0.000 A 
ATOM     23  C   UNL     1      -0.001  10.029  21.416  0.00  0.00    +0.000 A 
ATOM     24  N   UNL     1       0.661   9.371  22.397  0.00  0.00    +0.000 NA
ATOM     25  C   UNL     1       1.566   8.645  21.763  0.00  0.00    +0.000 A 
ATOM     26  N   UNL     1       1.410   8.711  20.399  0.00  0.00    +0.000 N 
ATOM     27  N   UNL     1      -0.965  10.986  21.612  0.00  0.00    +0.000 N 
ATOM     28  C   UNL     1      -1.399  11.361  22.945  0.00  0.00    +0.000 C 
ATOM     29  C   UNL     1      -1.448  11.696  20.519  0.00  0.00    +0.000 A 
ATOM     30  O   UNL     1      -2.249  12.625  20.653  0.00  0.00    +0.000 OA
ENDBRANCH  17  26
ENDBRANCH   1  17
TORSDOF 4
ENDMDL
MODEL 9
REMARK VINA RESULT:      -7.9      1.812      2.705
REMARK  Name = 
REMARK  6 active torsions:
REMARK  status: ('A' for Active; 'I' for Inactive)
REMARK    1  A    between atoms: C_1  and  N_2
REMARK    2  A    between atoms: N_9  and  C_10
REMARK    3  A    between atoms: C_10  and  C_11
REMARK    4  A    between atoms: N_13  and  C_14
REMARK    5  A    between atoms: C_19  and  N_20
REMARK    6  A    between atoms: N_26  and  C_27
REMARK                            x       y       z     vdW  Elec       q    Type
REMARK                         _______ _______ _______ _____ _____    ______ ____
ROOT
ATOM      1  C   UNL     1       2.292   6.998  18.652  0.00  0.00    +0.000 C 
ATOM      2  O   UNL     1       1.547   6.483  17.805  0.00  0.00    +0.000 OA
ATOM      3  N   UNL     1       2.830   6.294  19.721  0.00  0.00    +0.000 N 
ATOM      4  H   UNL     1       2.842   6.805  20.596  0.00  0.00    +0.000 HD
ENDROOT
BRANCH   3   5
ATOM      5  C   UNL     1       2.536   4.897  19.850  0.00  0.00    +0.000 A 
ATOM      6  C   UNL     1       1.481   4.533  20.696  0.00  0.00    +0.000 A 
ATOM      7  C   UNL     1       1.047   3.210  20.756  0.00  0.00    +0.000 A 
ATOM      8  C   UNL     1       1.678   2.233  20.002  0.00  0.00    +0.000 A 
ATOM      9  C   UNL     1       2.762   2.581  19.197  0.00  0.00    +0.000 A 
ATOM     10  C   UNL     1       3.231   3.910  19.099  0.00  0.00    +0.000 A 
BRANCH  10  11
ATOM     11  N   UNL     1       4.352   4.178  18.339  0.00  0.00    +0.000 N 
ATOM     12  C   UNL     1       5.676   4.437  18.922  0.00  0.00    +0.000 C 
ATOM     13  C   UNL     1       6.242   5.757  18.378  0.00  0.00    +0.000 C 
ATOM     14  O   UNL     1       6.237   5.787  16.937  0.00  0.00    +0.000 OA
ATOM     15  C   UNL     1       4.901   5.609  16.442  0.00  0.00    +0.000 C 
ATOM     16  C   UNL     1       4.306   4.266  16.878  0.00  0.00    +0.000 C 
ENDBRANCH  10  11
ENDBRANCH   3   5
BRANCH   1  17
ATOM     17  C   UNL     1       2.594   8.497  18.618  0.00  0.00    +0.000 C 
BRANCH  17  26
ATOM     18  C   UNL     1       0.165   9.480  23.599  0.00  0.00    +0.000 C 
ATOM     19  N   UNL     1       0.118   9.890  22.209  0.00  0.00    +0.000 N 
ATOM     20  C   UNL     1       1.055   9.347  21.318  0.00  0.00    +0.000 A 
ATOM     21  O   UNL     1       1.962   8.589  21.647  0.00  0.00    +0.000 OA
ATOM     22  C   UNL     1       0.836   9.744  19.967  0.00  0.00    +0.000 A 
ATOM     23  C   UNL     1      -0.166  10.605  19.619  0.00  0.00    +0.000 A 
ATOM     24  N   UNL     1      -0.242  10.772  18.278  0.00  0.00    +0.000 NA
ATOM     25  C   UNL     1       0.680   9.962  17.785  0.00  0.00    +0.000 A 
ATOM     26  N   UNL     1       1.439   9.388  18.777  0.00  0.00    +0.000 N 
ATOM     27  N   UNL     1      -1.012  11.170  20.539  0.00  0.00    +0.000 N 
ATOM     28  C   UNL     1      -2.084  12.060  20.134  0.00  0.00    +0.000 C 
ATOM     29  C   UNL     1      -0.919  10.786  21.872  0.00  0.00    +0.000 A 
ATOM     30  O   UNL     1      -1.714  11.198  22.722  0.00  0.00    +0.000 OA
ENDBRANCH  17  26
ENDBRANCH   1  17
TORSDOF 4
ENDMDL
