MODEL 1
REMARK VINA RESULT:      -7.5      0.000      0.000
REMARK  Name = 
REMARK  2 active torsions:
REMARK  status: ('A' for Active; 'I' for Inactive)
REMARK    1  A    between atoms: C_2  and  C_3
REMARK    2  A    between atoms: C_3  and  C_13
REMARK                            x       y       z     vdW  Elec       q    Type
REMARK                         _______ _______ _______ _____ _____    ______ ____
ROOT
ATOM      1  C   UNL     1       6.161   5.268  16.097  0.00  0.00    +0.000 C 
ATOM      2  C   UNL     1       5.218   4.700  16.902  0.00  0.00    +0.000 C 
ATOM      3  N   UNL     1       4.363   3.635  16.666  0.00  0.00    +0.000 N 
ATOM      4  C   UNL     1       3.469   3.388  17.717  0.00  0.00    +0.000 A 
ATOM      5  C   UNL     1       2.525   2.378  17.782  0.00  0.00    +0.000 A 
ATOM      6  C   UNL     1       1.758   2.236  18.952  0.00  0.00    +0.000 A 
ATOM      7  C   UNL     1       1.942   3.089  20.052  0.00  0.00    +0.000 A 
ATOM      8  C   UNL     1       2.900   4.091  20.000  0.00  0.00    +0.000 A 
ATOM      9  C   UNL     1       3.653   4.216  18.842  0.00  0.00    +0.000 A 
ATOM     10  S   UNL     1       4.955   5.388  18.580  0.00  0.00    +0.000 S 
ATOM     11  H   UNL     1       4.279   3.257  15.732  0.00  0.00    +0.000 HD
ENDROOT
BRANCH   1  12
ATOM     12  C   UNL     1       6.501   4.880  14.714  0.00  0.00    +0.000 A 
ATOM     13  C   UNL     1       5.749   3.937  14.028  0.00  0.00    +0.000 A 
ATOM     14  C   UNL     1       6.154   3.633  12.746  0.00  0.00    +0.000 A 
ATOM     15  N   UNL     1       7.215   4.201  12.158  0.00  0.00    +0.000 NA
ATOM     16  C   UNL     1       7.878   5.101  12.896  0.00  0.00    +0.000 A 
ATOM     17  N   UNL     1       7.580   5.473  14.151  0.00  0.00    +0.000 NA
ENDBRANCH   1  12
BRANCH   1  19
ATOM     18  N   UNL     1       7.545   7.349  17.317  0.00  0.00    +0.000 NA
ATOM     19  C   UNL     1       6.917   6.405  16.764  0.00  0.00    +0.000 C 
ENDBRANCH   1  19
TORSDOF 2
ENDMDL
MODEL 2
REMARK VINA RESULT:      -7.3      1.903      3.896
REMARK  Name = 
REMARK  2 active torsions:
REMARK  status: ('A' for Active; 'I' for Inactive)
REMARK    1  A    between atoms: C_2  and  C_3
REMARK    2  A    between atoms: C_3  and  C_13
REMARK                            x       y       z     vdW  Elec       q    Type
REMARK                         _______ _______ _______ _____ _____    ______ ____
ROOT
ATOM      1  C   UNL     1       5.814   5.165  17.184  0.00  0.00    +0.000 C 
ATOM      2  C   UNL     1       4.683   4.743  17.819  0.00  0.00    +0.000 C 
ATOM      3  N   UNL     1       4.116   5.163  19.012  0.00  0.00    +0.000 N 
ATOM      4  C   UNL     1       2.981   4.428  19.384  0.00  0.00    +0.000 A 
ATOM      5  C   UNL     1       2.190   4.635  20.500  0.00  0.00    +0.000 A 
ATOM      6  C   UNL     1       1.042   3.844  20.678  0.00  0.00    +0.000 A 
ATOM      7  C   UNL     1       0.682   2.861  19.743  0.00  0.00    +0.000 A 
ATOM      8  C   UNL     1       1.461   2.662  18.612  0.00  0.00    +0.000 A 
ATOM      9  C   UNL     1       2.587   3.454  18.447  0.00  0.00    +0.000 A 
ATOM     10  S   UNL     1       3.690   3.401  17.062  0.00  0.00    +0.000 S 
ATOM     11  H   UNL     1       4.633   5.781  19.622  0.00  0.00    +0.000 HD
ENDROOT
BRANCH   1  12
ATOM     12  C   UNL     1       6.756   6.205  17.642  0.00  0.00    +0.000 A 
ATOM     13  C   UNL     1       7.612   5.977  18.711  0.00  0.00    +0.000 A 
ATOM     14  C   UNL     1       8.445   7.015  19.070  0.00  0.00    +0.000 A 
ATOM     15  N   UNL     1       8.456   8.198  18.442  0.00  0.00    +0.000 NA
ATOM     16  C   UNL     1       7.598   8.325  17.422  0.00  0.00    +0.000 A 
ATOM     17  N   UNL     1       6.740   7.388  16.986  0.00  0.00    +0.000 NA
ENDBRANCH   1  12
BRANCH   1  19
ATOM     18  N   UNL     1       6.265   3.876  14.761  0.00  0.00    +0.000 NA
ATOM     19  C   UNL     1       6.061   4.461  15.860  0.00  0.00    +0.000 C 
ENDBRANCH   1  19
TORSDOF 2
ENDMDL
MODEL 3
REMARK VINA RESULT:      -7.2      0.763      1.146
REMARK  Name = 
REMARK  2 active torsions:
REMARK  status: ('A' for Active; 'I' for Inactive)
REMARK    1  A    between atoms: C_2  and  C_3
REMARK    2  A    between atoms: C_3  and  C_13
REMARK                            x       y       z     vdW  Elec       q    Type
REMARK                         _______ _______ _______ _____ _____    ______ ____
ROOT
ATOM      1  C   UNL     1       5.947   5.213  16.083  0.00  0.00    +0.000 C 
ATOM      2  C   UNL     1       4.982   4.715  16.908  0.00  0.00    +0.000 C 
ATOM      3  N   UNL     1       4.078   3.684  16.707  0.00  0.00    +0.000 N 
ATOM      4  C   UNL     1       3.177   3.513  17.768  0.00  0.00    +0.000 A 
ATOM      5  C   UNL     1       2.187   2.551  17.867  0.00  0.00    +0.000 A 
ATOM      6  C   UNL     1       1.419   2.481  19.042  0.00  0.00    +0.000 A 
ATOM      7  C   UNL     1       1.645   3.360  20.114  0.00  0.00    +0.000 A 
ATOM      8  C   UNL     1       2.649   4.314  20.027  0.00  0.00    +0.000 A 
ATOM      9  C   UNL     1       3.402   4.367  18.865  0.00  0.00    +0.000 A 
ATOM     10  S   UNL     1       4.756   5.468  18.563  0.00  0.00    +0.000 S 
ATOM     11  H   UNL     1       3.973   3.281  15.786  0.00  0.00    +0.000 HD
ENDROOT
BRANCH   1  12
ATOM     12  C   UNL     1       6.264   4.766  14.713  0.00  0.00    +0.000 A 
ATOM     13  C   UNL     1       7.408   5.205  14.061  0.00  0.00    +0.000 A 
ATOM     14  C   UNL     1       7.609   4.740  12.779  0.00  0.00    +0.000 A 
ATOM     15  N   UNL     1       6.764   3.904  12.161  0.00  0.00    +0.000 NA
ATOM     16  C   UNL     1       5.689   3.533  12.868  0.00  0.00    +0.000 A 
ATOM     17  N   UNL     1       5.388   3.923  14.118  0.00  0.00    +0.000 NA
ENDBRANCH   1  12
BRANCH   1  19
ATOM     18  N   UNL     1       7.430   7.265  17.233  0.00  0.00    +0.000 NA
ATOM     19  C   UNL     1       6.758   6.335  16.712  0.00  0.00    +0.000 C 
ENDBRANCH   1  19
TORSDOF 2
ENDMDL
MODEL 4
REMARK VINA RESULT:      -7.2      1.869      6.096
REMARK  Name = 
REMARK  2 active torsions:
REMARK  status: ('A' for Active; 'I' for Inactive)
REMARK    1  A    between atoms: C_2  and  C_3
REMARK    2  A    between atoms: C_3  and  C_13
REMARK                            x       y       z     vdW  Elec       q    Type
REMARK                         _______ _______ _______ _____ _____    ______ ____
ROOT
ATOM      1  C   UNL     1       5.220   4.223  18.039  0.00  0.00    +0.000 C 
ATOM      2  C   UNL     1       5.618   4.296  16.736  0.00  0.00    +0.000 C 
ATOM      3  N   UNL     1       5.021   3.797  15.589  0.00  0.00    +0.000 N 
ATOM      4  C   UNL     1       5.778   4.005  14.426  0.00  0.00    +0.000 A 
ATOM      5  C   UNL     1       5.427   3.649  13.136  0.00  0.00    +0.000 A 
ATOM      6  C   UNL     1       6.280   4.003  12.076  0.00  0.00    +0.000 A 
ATOM      7  C   UNL     1       7.468   4.716  12.303  0.00  0.00    +0.000 A 
ATOM      8  C   UNL     1       7.814   5.093  13.593  0.00  0.00    +0.000 A 
ATOM      9  C   UNL     1       6.960   4.742  14.628  0.00  0.00    +0.000 A 
ATOM     10  S   UNL     1       7.183   5.161  16.334  0.00  0.00    +0.000 S 
ATOM     11  H   UNL     1       4.240   3.161  15.667  0.00  0.00    +0.000 HD
ENDROOT
BRANCH   1  12
ATOM     12  C   UNL     1       4.016   3.552  18.565  0.00  0.00    +0.000 A 
ATOM     13  C   UNL     1       3.449   3.938  19.771  0.00  0.00    +0.000 A 
ATOM     14  C   UNL     1       2.333   3.242  20.184  0.00  0.00    +0.000 A 
ATOM     15  N   UNL     1       1.794   2.237  19.480  0.00  0.00    +0.000 NA
ATOM     16  C   UNL     1       2.407   1.936  18.329  0.00  0.00    +0.000 A 
ATOM     17  N   UNL     1       3.498   2.540  17.830  0.00  0.00    +0.000 NA
ENDBRANCH   1  12
BRANCH   1  19
ATOM     18  N   UNL     1       6.928   5.548  19.789  0.00  0.00    +0.000 NA
ATOM     19  C   UNL     1       6.154   4.947  18.995  0.00  0.00    +0.000 C 
ENDBRANCH   1  19
TORSDOF 2
ENDMDL
MODEL 5
REMARK VINA RESULT:      -7.1      5.338      7.958
REMARK  Name = 
REMARK  2 active torsions:
REMARK  status: ('A' for Active; 'I' for Inactive)
REMARK    1  A    between atoms: C_2  and  C_3
REMARK    2  A    between atoms: C_3  and  C_13
REMARK                            x       y       z     vdW  Elec       q    Type
REMARK                         _______ _______ _______ _____ _____    ______ ____
ROOT
ATOM      1  C   UNL     1       1.485   8.504  19.931  0.00  0.00    +0.000 C 
ATOM      2  C   UNL     1       1.836   7.188  19.984  0.00  0.00    +0.000 C 
ATOM      3  N   UNL     1       1.671   6.258  20.999  0.00  0.00    +0.000 N 
ATOM      4  C   UNL     1       2.239   5.008  20.713  0.00  0.00    +0.000 A 
ATOM      5  C   UNL     1       2.207   3.881  21.515  0.00  0.00    +0.000 A 
ATOM      6  C   UNL     1       2.769   2.686  21.034  0.00  0.00    +0.000 A 
ATOM      7  C   UNL     1       3.350   2.615  19.758  0.00  0.00    +0.000 A 
ATOM      8  C   UNL     1       3.367   3.737  18.942  0.00  0.00    +0.000 A 
ATOM      9  C   UNL     1       2.804   4.908  19.427  0.00  0.00    +0.000 A 
ATOM     10  S   UNL     1       2.676   6.435  18.540  0.00  0.00    +0.000 S 
ATOM     11  H   UNL     1       1.371   6.563  21.914  0.00  0.00    +0.000 HD
ENDROOT
BRANCH   1  12
ATOM     12  C   UNL     1       0.831   9.295  20.992  0.00  0.00    +0.000 A 
ATOM     13  C   UNL     1       0.297  10.548  20.728  0.00  0.00    +0.000 A 
ATOM     14  C   UNL     1      -0.281  11.213  21.788  0.00  0.00    +0.000 A 
ATOM     15  N   UNL     1      -0.345  10.705  23.026  0.00  0.00    +0.000 NA
ATOM     16  C   UNL     1       0.194   9.489  23.185  0.00  0.00    +0.000 A 
ATOM     17  N   UNL     1       0.786   8.752  22.231  0.00  0.00    +0.000 NA
ENDBRANCH   1  12
BRANCH   1  19
ATOM     18  N   UNL     1       2.086   9.708  17.497  0.00  0.00    +0.000 NA
ATOM     19  C   UNL     1       1.813   9.162  18.601  0.00  0.00    +0.000 C 
ENDBRANCH   1  19
TORSDOF 2
ENDMDL
MODEL 6
REMARK VINA RESULT:      -7.1      1.949      3.912
REMARK  Name = 
REMARK  2 active torsions:
REMARK  status: ('A' for Active; 'I' for Inactive)
REMARK    1  A    between atoms: C_2  and  C_3
REMARK    2  A    between atoms: C_3  and  C_13
REMARK                            x       y       z     vdW  Elec       q    Type
REMARK                         _______ _______ _______ _____ _____    ______ ____
ROOT
ATOM      1  C   UNL     1       5.612   5.043  17.184  0.00  0.00    +0.000 C 
ATOM      2  C   UNL     1       4.519   4.580  17.856  0.00  0.00    +0.000 C 
ATOM      3  N   UNL     1       4.043   4.899  19.118  0.00  0.00    +0.000 N 
ATOM      4  C   UNL     1       2.923   4.148  19.501  0.00  0.00    +0.000 A 
ATOM      5  C   UNL     1       2.213   4.264  20.684  0.00  0.00    +0.000 A 
ATOM      6  C   UNL     1       1.065   3.475  20.871  0.00  0.00    +0.000 A 
ATOM      7  C   UNL     1       0.624   2.583  19.879  0.00  0.00    +0.000 A 
ATOM      8  C   UNL     1       1.321   2.477  18.684  0.00  0.00    +0.000 A 
ATOM      9  C   UNL     1       2.448   3.266  18.511  0.00  0.00    +0.000 A 
ATOM     10  S   UNL     1       3.453   3.324  17.054  0.00  0.00    +0.000 S 
ATOM     11  H   UNL     1       4.612   5.453  19.743  0.00  0.00    +0.000 HD
ENDROOT
BRANCH   1  12
ATOM     12  C   UNL     1       6.602   6.026  17.666  0.00  0.00    +0.000 A 
ATOM     13  C   UNL     1       6.758   7.254  17.039  0.00  0.00    +0.000 A 
ATOM     14  C   UNL     1       7.718   8.098  17.556  0.00  0.00    +0.000 A 
ATOM     15  N   UNL     1       8.480   7.782  18.611  0.00  0.00    +0.000 NA
ATOM     16  C   UNL     1       8.258   6.577  19.152  0.00  0.00    +0.000 A 
ATOM     17  N   UNL     1       7.357   5.674  18.733  0.00  0.00    +0.000 NA
ENDBRANCH   1  12
BRANCH   1  19
ATOM     18  N   UNL     1       5.874   3.970  14.632  0.00  0.00    +0.000 NA
ATOM     19  C   UNL     1       5.755   4.457  15.789  0.00  0.00    +0.000 C 
ENDBRANCH   1  19
TORSDOF 2
ENDMDL
MODEL 7
REMARK VINA RESULT:      -7.1      1.316      1.744
REMARK  Name = 
REMARK  2 active torsions:
REMARK  status: ('A' for Active; 'I' for Inactive)
REMARK    1  A    between atoms: C_2  and  C_3
REMARK    2  A    between atoms: C_3  and  C_13
REMARK                            x       y       z     vdW  Elec       q    Type
REMARK                         _______ _______ _______ _____ _____    ______ ____
ROOT
ATOM      1  C   UNL     1       6.018   4.530  17.232  0.00  0.00    +0.000 C 
ATOM      2  C   UNL     1       4.872   4.198  17.892  0.00  0.00    +0.000 C 
ATOM      3  N   UNL     1       3.668   3.715  17.406  0.00  0.00    +0.000 N 
ATOM      4  C   UNL     1       2.683   3.564  18.393  0.00  0.00    +0.000 A 
ATOM      5  C   UNL     1       1.400   3.075  18.216  0.00  0.00    +0.000 A 
ATOM      6  C   UNL     1       0.567   2.925  19.338  0.00  0.00    +0.000 A 
ATOM      7  C   UNL     1       1.016   3.251  20.628  0.00  0.00    +0.000 A 
ATOM      8  C   UNL     1       2.308   3.722  20.814  0.00  0.00    +0.000 A 
ATOM      9  C   UNL     1       3.120   3.860  19.699  0.00  0.00    +0.000 A 
ATOM     10  S   UNL     1       4.808   4.396  19.713  0.00  0.00    +0.000 S 
ATOM     11  H   UNL     1       3.496   3.706  16.410  0.00  0.00    +0.000 HD
ENDROOT
BRANCH   1  12
ATOM     12  C   UNL     1       6.257   4.469  15.777  0.00  0.00    +0.000 A 
ATOM     13  C   UNL     1       7.379   5.055  15.209  0.00  0.00    +0.000 A 
ATOM     14  C   UNL     1       7.506   4.954  13.840  0.00  0.00    +0.000 A 
ATOM     15  N   UNL     1       6.611   4.327  13.064  0.00  0.00    +0.000 NA
ATOM     16  C   UNL     1       5.563   3.790  13.701  0.00  0.00    +0.000 A 
ATOM     17  N   UNL     1       5.333   3.829  15.024  0.00  0.00    +0.000 NA
ENDBRANCH   1  12
BRANCH   1  19
ATOM     18  N   UNL     1       8.061   5.367  18.924  0.00  0.00    +0.000 NA
ATOM     19  C   UNL     1       7.135   4.988  18.157  0.00  0.00    +0.000 C 
ENDBRANCH   1  19
TORSDOF 2
ENDMDL
MODEL 8
REMARK VINA RESULT:      -6.9      3.664      6.911
REMARK  Name = 
REMARK  2 active torsions:
REMARK  status: ('A' for Active; 'I' for Inactive)
REMARK    1  A    between atoms: C_2  and  C_3
REMARK    2  A    between atoms: C_3  and  C_13
REMARK                            x       y       z     vdW  Elec       q    Type
REMARK                         _______ _______ _______ _____ _____    ______ ____
ROOT
ATOM      1  C   UNL     1       2.557   6.135  19.661  0.00  0.00    +0.000 C 
ATOM      2  C   UNL     1       3.381   5.766  18.638  0.00  0.00    +0.000 C 
ATOM      3  N   UNL     1       3.879   6.508  17.579  0.00  0.00    +0.000 N 
ATOM      4  C   UNL     1       4.640   5.753  16.674  0.00  0.00    +0.000 A 
ATOM      5  C   UNL     1       5.289   6.222  15.545  0.00  0.00    +0.000 A 
ATOM      6  C   UNL     1       6.071   5.331  14.789  0.00  0.00    +0.000 A 
ATOM      7  C   UNL     1       6.212   3.986  15.165  0.00  0.00    +0.000 A 
ATOM      8  C   UNL     1       5.580   3.515  16.307  0.00  0.00    +0.000 A 
ATOM      9  C   UNL     1       4.817   4.406  17.046  0.00  0.00    +0.000 A 
ATOM     10  S   UNL     1       3.968   4.032  18.555  0.00  0.00    +0.000 S 
ATOM     11  H   UNL     1       3.517   7.434  17.401  0.00  0.00    +0.000 HD
ENDROOT
BRANCH   1  12
ATOM     12  C   UNL     1       1.960   7.466  19.887  0.00  0.00    +0.000 A 
ATOM     13  C   UNL     1       1.424   7.812  21.119  0.00  0.00    +0.000 A 
ATOM     14  C   UNL     1       0.878   9.074  21.226  0.00  0.00    +0.000 A 
ATOM     15  N   UNL     1       0.849   9.949  20.212  0.00  0.00    +0.000 NA
ATOM     16  C   UNL     1       1.392   9.528  19.062  0.00  0.00    +0.000 A 
ATOM     17  N   UNL     1       1.947   8.325  18.841  0.00  0.00    +0.000 NA
ENDBRANCH   1  12
BRANCH   1  19
ATOM     18  N   UNL     1       2.052   4.081  21.466  0.00  0.00    +0.000 NA
ATOM     19  C   UNL     1       2.281   5.012  20.648  0.00  0.00    +0.000 C 
ENDBRANCH   1  19
TORSDOF 2
ENDMDL
MODEL 9
REMARK VINA RESULT:      -6.9      1.923      6.070
REMARK  Name = 
REMARK  2 active torsions:
REMARK  status: ('A' for Active; 'I' for Inactive)
REMARK    1  A    between atoms: C_2  and  C_3
REMARK    2  A    between atoms: C_3  and  C_13
REMARK                            x       y       z     vdW  Elec       q    Type
REMARK                         _______ _______ _______ _____ _____    ______ ____
ROOT
ATOM      1  C   UNL     1       5.055   4.257  17.983  0.00  0.00    +0.000 C 
ATOM      2  C   UNL     1       5.483   4.307  16.689  0.00  0.00    +0.000 C 
ATOM      3  N   UNL     1       4.877   3.855  15.528  0.00  0.00    +0.000 N 
ATOM      4  C   UNL     1       5.670   4.015  14.382  0.00  0.00    +0.000 A 
ATOM      5  C   UNL     1       5.323   3.689  13.083  0.00  0.00    +0.000 A 
ATOM      6  C   UNL     1       6.220   3.986  12.042  0.00  0.00    +0.000 A 
ATOM      7  C   UNL     1       7.449   4.615  12.297  0.00  0.00    +0.000 A 
ATOM      8  C   UNL     1       7.794   4.962  13.596  0.00  0.00    +0.000 A 
ATOM      9  C   UNL     1       6.897   4.667  14.611  0.00  0.00    +0.000 A 
ATOM     10  S   UNL     1       7.113   5.063  16.324  0.00  0.00    +0.000 S 
ATOM     11  H   UNL     1       4.052   3.275  15.586  0.00  0.00    +0.000 HD
ENDROOT
BRANCH   1  12
ATOM     12  C   UNL     1       3.796   3.670  18.482  0.00  0.00    +0.000 A 
ATOM     13  C   UNL     1       3.572   2.301  18.429  0.00  0.00    +0.000 A 
ATOM     14  C   UNL     1       2.360   1.851  18.907  0.00  0.00    +0.000 A 
ATOM     15  N   UNL     1       1.421   2.665  19.407  0.00  0.00    +0.000 NA
ATOM     16  C   UNL     1       1.726   3.969  19.420  0.00  0.00    +0.000 A 
ATOM     17  N   UNL     1       2.868   4.521  18.979  0.00  0.00    +0.000 NA
ENDBRANCH   1  12
BRANCH   1  19
ATOM     18  N   UNL     1       6.814   5.453  19.775  0.00  0.00    +0.000 NA
ATOM     19  C   UNL     1       6.016   4.911  18.963  0.00  0.00    +0.000 C 
ENDBRANCH   1  19
TORSDOF 2
ENDMDL
