MODEL 1
REMARK VINA RESULT:      -5.6      0.000      0.000
REMARK  Name = 
REMARK  4 active torsions:
REMARK  status: ('A' for Active; 'I' for Inactive)
REMARK    1  A    between atoms: C_2  and  C_20
REMARK    2  A    between atoms: N_3  and  C_4
REMARK    3  A    between atoms: C_5  and  N_6
REMARK    4  A    between atoms: C_14  and  N_15
REMARK                            x       y       z     vdW  Elec       q    Type
REMARK                         _______ _______ _______ _____ _____    ______ ____
ROOT
ATOM      1  C   UNL     1      -3.886  12.499  19.565  0.00  0.00    +0.000 A 
ATOM      2  C   UNL     1      -4.533  11.600  18.658  0.00  0.00    +0.000 A 
ATOM      3  C   UNL     1      -5.803  11.142  19.038  0.00  0.00    +0.000 A 
ATOM      4  C   UNL     1      -6.391  11.525  20.242  0.00  0.00    +0.000 A 
ATOM      5  C   UNL     1      -5.711  12.360  21.129  0.00  0.00    +0.000 A 
ATOM      6  C   UNL     1      -4.432  12.854  20.842  0.00  0.00    +0.000 A 
ENDROOT
BRANCH   2   7
ATOM      7  N   UNL     1      -3.911  11.076  17.533  0.00  0.00    +0.000 N 
ATOM      8  C   UNL     1      -3.265   9.773  17.528  0.00  0.00    +0.000 C 
ATOM      9  C   UNL     1      -2.484   9.818  16.227  0.00  0.00    +0.000 C 
ATOM     10  C   UNL     1      -3.442  10.523  15.272  0.00  0.00    +0.000 C 
ATOM     11  C   UNL     1      -4.311  11.414  16.170  0.00  0.00    +0.000 C 
ENDBRANCH   2   7
BRANCH   6  12
ATOM     12  N   UNL     1      -3.719  13.667  21.748  0.00  0.00    +0.000 N 
ATOM     13  C   UNL     1      -3.044  13.094  22.928  0.00  0.00    +0.000 C 
ATOM     14  C   UNL     1      -3.650  13.818  24.126  0.00  0.00    +0.000 C 
ATOM     15  C   UNL     1      -3.957  15.192  23.571  0.00  0.00    +0.000 C 
ATOM     16  C   UNL     1      -4.424  14.900  22.151  0.00  0.00    +0.000 C 
ENDBRANCH   6  12
BRANCH   1  19
ATOM     17  O   UNL     1      -1.582  11.127  20.314  0.00  0.00    +0.000 OA
ATOM     18  C   UNL     1      -1.493  12.183  19.686  0.00  0.00    +0.000 C 
ATOM     19  N   UNL     1      -2.574  12.939  19.257  0.00  0.00    +0.000 N 
ATOM     20  H   UNL     1      -2.454  13.314  18.322  0.00  0.00    +0.000 HD
BRANCH  18  21
ATOM     21  C   UNL     1      -0.182  12.749  19.366  0.00  0.00    +0.000 A 
ATOM     22  C   UNL     1       0.048  14.151  19.162  0.00  0.00    +0.000 A 
ATOM     23  N   UNL     1       1.275  14.496  18.773  0.00  0.00    +0.000 NA
ATOM     24  S   UNL     1       2.097  13.042  18.657  0.00  0.00    +0.000 S 
ATOM     25  N   UNL     1       0.903  11.982  19.161  0.00  0.00    +0.000 NA
ENDBRANCH  18  21
ENDBRANCH   1  19
TORSDOF 4
ENDMDL
MODEL 2
REMARK VINA RESULT:      -5.5      1.612      1.717
REMARK  Name = 
REMARK  4 active torsions:
REMARK  status: ('A' for Active; 'I' for Inactive)
REMARK    1  A    between atoms: C_2  and  C_20
REMARK    2  A    between atoms: N_3  and  C_4
REMARK    3  A    between atoms: C_5  and  N_6
REMARK    4  A    between atoms: C_14  and  N_15
REMARK                            x       y       z     vdW  Elec       q    Type
REMARK                         _______ _______ _______ _____ _____    ______ ____
ROOT
ATOM      1  C   UNL     1      -4.897  12.309  19.545  0.00  0.00    +0.000 A 
ATOM      2  C   UNL     1      -5.056  11.257  18.587  0.00  0.00    +0.000 A 
ATOM      3  C   UNL     1      -6.192  10.447  18.735  0.00  0.00    +0.000 A 
ATOM      4  C   UNL     1      -7.102  10.645  19.771  0.00  0.00    +0.000 A 
ATOM      5  C   UNL     1      -6.890  11.645  20.721  0.00  0.00    +0.000 A 
ATOM      6  C   UNL     1      -5.775  12.492  20.662  0.00  0.00    +0.000 A 
ENDROOT
BRANCH   2   7
ATOM      7  N   UNL     1      -4.089  10.935  17.643  0.00  0.00    +0.000 N 
ATOM      8  C   UNL     1      -3.235   9.764  17.762  0.00  0.00    +0.000 C 
ATOM      9  C   UNL     1      -2.178  10.042  16.709  0.00  0.00    +0.000 C 
ATOM     10  C   UNL     1      -2.983  10.648  15.563  0.00  0.00    +0.000 C 
ATOM     11  C   UNL     1      -4.194  11.307  16.235  0.00  0.00    +0.000 C 
ENDBRANCH   2   7
BRANCH   6  12
ATOM     12  N   UNL     1      -5.530  13.480  21.639  0.00  0.00    +0.000 N 
ATOM     13  C   UNL     1      -5.387  13.134  23.065  0.00  0.00    +0.000 C 
ATOM     14  C   UNL     1      -6.459  13.947  23.783  0.00  0.00    +0.000 C 
ATOM     15  C   UNL     1      -6.553  15.201  22.942  0.00  0.00    +0.000 C 
ATOM     16  C   UNL     1      -6.379  14.683  21.520  0.00  0.00    +0.000 C 
ENDBRANCH   6  12
BRANCH   1  19
ATOM     17  O   UNL     1      -2.556  11.757  20.948  0.00  0.00    +0.000 OA
ATOM     18  C   UNL     1      -2.621  12.752  20.224  0.00  0.00    +0.000 C 
ATOM     19  N   UNL     1      -3.731  13.113  19.476  0.00  0.00    +0.000 N 
ATOM     20  H   UNL     1      -3.497  13.453  18.550  0.00  0.00    +0.000 HD
BRANCH  18  21
ATOM     21  C   UNL     1      -1.489  13.675  20.127  0.00  0.00    +0.000 A 
ATOM     22  C   UNL     1      -1.212  14.694  21.099  0.00  0.00    +0.000 A 
ATOM     23  N   UNL     1      -0.207  15.522  20.815  0.00  0.00    +0.000 NA
ATOM     24  S   UNL     1       0.347  15.004  19.322  0.00  0.00    +0.000 S 
ATOM     25  N   UNL     1      -0.657  13.688  19.070  0.00  0.00    +0.000 NA
ENDBRANCH  18  21
ENDBRANCH   1  19
TORSDOF 4
ENDMDL
MODEL 3
REMARK VINA RESULT:      -5.5      0.815      1.052
REMARK  Name = 
REMARK  4 active torsions:
REMARK  status: ('A' for Active; 'I' for Inactive)
REMARK    1  A    between atoms: C_2  and  C_20
REMARK    2  A    between atoms: N_3  and  C_4
REMARK    3  A    between atoms: C_5  and  N_6
REMARK    4  A    between atoms: C_14  and  N_15
REMARK                            x       y       z     vdW  Elec       q    Type
REMARK                         _______ _______ _______ _____ _____    ______ ____
ROOT
ATOM      1  C   UNL     1      -3.450  12.646  19.611  0.00  0.00    +0.000 A 
ATOM      2  C   UNL     1      -4.267  11.797  18.798  0.00  0.00    +0.000 A 
ATOM      3  C   UNL     1      -5.527  11.466  19.317  0.00  0.00    +0.000 A 
ATOM      4  C   UNL     1      -5.950  11.923  20.563  0.00  0.00    +0.000 A 
ATOM      5  C   UNL     1      -5.107  12.705  21.355  0.00  0.00    +0.000 A 
ATOM      6  C   UNL     1      -3.825  13.072  20.926  0.00  0.00    +0.000 A 
ENDROOT
BRANCH   2   7
ATOM      7  N   UNL     1      -3.815  11.198  17.629  0.00  0.00    +0.000 N 
ATOM      8  C   UNL     1      -3.217   9.872  17.607  0.00  0.00    +0.000 C 
ATOM      9  C   UNL     1      -2.613   9.827  16.215  0.00  0.00    +0.000 C 
ATOM     10  C   UNL     1      -3.667  10.522  15.358  0.00  0.00    +0.000 C 
ATOM     11  C   UNL     1      -4.380  11.487  16.314  0.00  0.00    +0.000 C 
ENDBRANCH   2   7
BRANCH   6  12
ATOM     12  N   UNL     1      -2.951  13.829  21.734  0.00  0.00    +0.000 N 
ATOM     13  C   UNL     1      -2.321  13.252  22.936  0.00  0.00    +0.000 C 
ATOM     14  C   UNL     1      -2.748  14.159  24.086  0.00  0.00    +0.000 C 
ATOM     15  C   UNL     1      -2.858  15.515  23.424  0.00  0.00    +0.000 C 
ATOM     16  C   UNL     1      -3.432  15.189  22.051  0.00  0.00    +0.000 C 
ENDBRANCH   6  12
BRANCH   1  19
ATOM     17  O   UNL     1      -1.203  11.121  20.227  0.00  0.00    +0.000 OA
ATOM     18  C   UNL     1      -1.090  12.132  19.532  0.00  0.00    +0.000 C 
ATOM     19  N   UNL     1      -2.141  12.955  19.160  0.00  0.00    +0.000 N 
ATOM     20  H   UNL     1      -2.082  13.270  18.197  0.00  0.00    +0.000 HD
BRANCH  18  21
ATOM     21  C   UNL     1       0.226  12.566  19.062  0.00  0.00    +0.000 A 
ATOM     22  C   UNL     1       1.278  11.658  18.701  0.00  0.00    +0.000 A 
ATOM     23  N   UNL     1       2.452  12.209  18.394  0.00  0.00    +0.000 NA
ATOM     24  S   UNL     1       2.202  13.853  18.588  0.00  0.00    +0.000 S 
ATOM     25  N   UNL     1       0.580  13.862  19.005  0.00  0.00    +0.000 NA
ENDBRANCH  18  21
ENDBRANCH   1  19
TORSDOF 4
ENDMDL
MODEL 4
REMARK VINA RESULT:      -5.3      2.052      2.449
REMARK  Name = 
REMARK  4 active torsions:
REMARK  status: ('A' for Active; 'I' for Inactive)
REMARK    1  A    between atoms: C_2  and  C_20
REMARK    2  A    between atoms: N_3  and  C_4
REMARK    3  A    between atoms: C_5  and  N_6
REMARK    4  A    between atoms: C_14  and  N_15
REMARK                            x       y       z     vdW  Elec       q    Type
REMARK                         _______ _______ _______ _____ _____    ______ ____
ROOT
ATOM      1  C   UNL     1      -5.422  12.302  19.744  0.00  0.00    +0.000 A 
ATOM      2  C   UNL     1      -5.397  11.242  18.783  0.00  0.00    +0.000 A 
ATOM      3  C   UNL     1      -6.408  10.276  18.897  0.00  0.00    +0.000 A 
ATOM      4  C   UNL     1      -7.369  10.336  19.904  0.00  0.00    +0.000 A 
ATOM      5  C   UNL     1      -7.333  11.353  20.859  0.00  0.00    +0.000 A 
ATOM      6  C   UNL     1      -6.351  12.353  20.834  0.00  0.00    +0.000 A 
ENDROOT
BRANCH   2   7
ATOM      7  N   UNL     1      -4.366  11.067  17.869  0.00  0.00    +0.000 N 
ATOM      8  C   UNL     1      -3.413   9.971  17.962  0.00  0.00    +0.000 C 
ATOM      9  C   UNL     1      -2.342  10.407  16.978  0.00  0.00    +0.000 C 
ATOM     10  C   UNL     1      -3.150  11.008  15.832  0.00  0.00    +0.000 C 
ATOM     11  C   UNL     1      -4.444  11.514  16.482  0.00  0.00    +0.000 C 
ENDBRANCH   2   7
BRANCH   6  12
ATOM     12  N   UNL     1      -6.282  13.363  21.816  0.00  0.00    +0.000 N 
ATOM     13  C   UNL     1      -6.011  13.043  23.230  0.00  0.00    +0.000 C 
ATOM     14  C   UNL     1      -7.201  13.604  24.002  0.00  0.00    +0.000 C 
ATOM     15  C   UNL     1      -7.593  14.817  23.185  0.00  0.00    +0.000 C 
ATOM     16  C   UNL     1      -7.371  14.358  21.750  0.00  0.00    +0.000 C 
ENDBRANCH   6  12
BRANCH   1  19
ATOM     17  O   UNL     1      -3.082  12.105  21.240  0.00  0.00    +0.000 OA
ATOM     18  C   UNL     1      -3.262  13.076  20.503  0.00  0.00    +0.000 C 
ATOM     19  N   UNL     1      -4.384  13.267  19.711  0.00  0.00    +0.000 N 
ATOM     20  H   UNL     1      -4.165  13.632  18.790  0.00  0.00    +0.000 HD
BRANCH  18  21
ATOM     21  C   UNL     1      -2.274  14.153  20.439  0.00  0.00    +0.000 A 
ATOM     22  C   UNL     1      -0.929  13.968  19.971  0.00  0.00    +0.000 A 
ATOM     23  N   UNL     1      -0.120  15.021  20.074  0.00  0.00    +0.000 NA
ATOM     24  S   UNL     1      -1.070  16.208  20.775  0.00  0.00    +0.000 S 
ATOM     25  N   UNL     1      -2.529  15.394  20.891  0.00  0.00    +0.000 NA
ENDBRANCH  18  21
ENDBRANCH   1  19
TORSDOF 4
ENDMDL
MODEL 5
REMARK VINA RESULT:      -5.3      1.825      5.333
REMARK  Name = 
REMARK  4 active torsions:
REMARK  status: ('A' for Active; 'I' for Inactive)
REMARK    1  A    between atoms: C_2  and  C_20
REMARK    2  A    between atoms: N_3  and  C_4
REMARK    3  A    between atoms: C_5  and  N_6
REMARK    4  A    between atoms: C_14  and  N_15
REMARK                            x       y       z     vdW  Elec       q    Type
REMARK                         _______ _______ _______ _____ _____    ______ ____
ROOT
ATOM      1  C   UNL     1      -4.841  12.370  19.692  0.00  0.00    +0.000 A 
ATOM      2  C   UNL     1      -5.917  12.486  20.629  0.00  0.00    +0.000 A 
ATOM      3  C   UNL     1      -6.946  11.540  20.514  0.00  0.00    +0.000 A 
ATOM      4  C   UNL     1      -6.930  10.556  19.528  0.00  0.00    +0.000 A 
ATOM      5  C   UNL     1      -5.893  10.504  18.595  0.00  0.00    +0.000 A 
ATOM      6  C   UNL     1      -4.831  11.417  18.622  0.00  0.00    +0.000 A 
ENDROOT
BRANCH   2   7
ATOM      7  N   UNL     1      -6.041  13.546  21.518  0.00  0.00    +0.000 N 
ATOM      8  C   UNL     1      -7.059  14.575  21.374  0.00  0.00    +0.000 C 
ATOM      9  C   UNL     1      -6.573  15.631  22.351  0.00  0.00    +0.000 C 
ATOM     10  C   UNL     1      -6.069  14.804  23.531  0.00  0.00    +0.000 C 
ATOM     11  C   UNL     1      -5.643  13.463  22.920  0.00  0.00    +0.000 C 
ENDBRANCH   2   7
BRANCH   6  12
ATOM     12  N   UNL     1      -3.799  11.398  17.661  0.00  0.00    +0.000 N 
ATOM     13  C   UNL     1      -4.094  11.380  16.216  0.00  0.00    +0.000 C 
ATOM     14  C   UNL     1      -3.409  10.126  15.684  0.00  0.00    +0.000 C 
ATOM     15  C   UNL     1      -2.195   9.997  16.578  0.00  0.00    +0.000 C 
ATOM     16  C   UNL     1      -2.718  10.432  17.941  0.00  0.00    +0.000 C 
ENDBRANCH   6  12
BRANCH   1  19
ATOM     17  O   UNL     1      -2.529  12.117  21.221  0.00  0.00    +0.000 OA
ATOM     18  C   UNL     1      -2.703  13.121  20.530  0.00  0.00    +0.000 C 
ATOM     19  N   UNL     1      -3.811  13.343  19.726  0.00  0.00    +0.000 N 
ATOM     20  H   UNL     1      -3.578  13.755  18.828  0.00  0.00    +0.000 HD
BRANCH  18  21
ATOM     21  C   UNL     1      -1.722  14.207  20.538  0.00  0.00    +0.000 A 
ATOM     22  C   UNL     1      -0.321  14.012  20.297  0.00  0.00    +0.000 A 
ATOM     23  N   UNL     1       0.457  15.084  20.444  0.00  0.00    +0.000 NA
ATOM     24  S   UNL     1      -0.597  16.302  20.900  0.00  0.00    +0.000 S 
ATOM     25  N   UNL     1      -2.051  15.474  20.851  0.00  0.00    +0.000 NA
ENDBRANCH  18  21
ENDBRANCH   1  19
TORSDOF 4
ENDMDL
MODEL 6
REMARK VINA RESULT:      -5.3      3.204      6.114
REMARK  Name = 
REMARK  4 active torsions:
REMARK  status: ('A' for Active; 'I' for Inactive)
REMARK    1  A    between atoms: C_2  and  C_20
REMARK    2  A    between atoms: N_3  and  C_4
REMARK    3  A    between atoms: C_5  and  N_6
REMARK    4  A    between atoms: C_14  and  N_15
REMARK                            x       y       z     vdW  Elec       q    Type
REMARK                         _______ _______ _______ _____ _____    ______ ____
ROOT
ATOM      1  C   UNL     1      -4.771  13.968  22.561  0.00  0.00    +0.000 A 
ATOM      2  C   UNL     1      -4.706  15.015  23.536  0.00  0.00    +0.000 A 
ATOM      3  C   UNL     1      -5.916  15.651  23.847  0.00  0.00    +0.000 A 
ATOM      4  C   UNL     1      -7.111  15.297  23.225  0.00  0.00    +0.000 A 
ATOM      5  C   UNL     1      -7.132  14.309  22.239  0.00  0.00    +0.000 A 
ATOM      6  C   UNL     1      -5.969  13.630  21.852  0.00  0.00    +0.000 A 
ENDROOT
BRANCH   2   7
ATOM      7  N   UNL     1      -3.511  15.497  24.055  0.00  0.00    +0.000 N 
ATOM      8  C   UNL     1      -2.983  16.810  23.719  0.00  0.00    +0.000 C 
ATOM      9  C   UNL     1      -1.563  16.719  24.249  0.00  0.00    +0.000 C 
ATOM     10  C   UNL     1      -1.732  15.954  25.559  0.00  0.00    +0.000 C 
ATOM     11  C   UNL     1      -2.983  15.090  25.354  0.00  0.00    +0.000 C 
ENDBRANCH   2   7
BRANCH   6  12
ATOM     12  N   UNL     1      -5.972  12.658  20.829  0.00  0.00    +0.000 N 
ATOM     13  C   UNL     1      -5.890  13.038  19.407  0.00  0.00    +0.000 C 
ATOM     14  C   UNL     1      -7.136  12.442  18.761  0.00  0.00    +0.000 C 
ATOM     15  C   UNL     1      -7.369  11.184  19.571  0.00  0.00    +0.000 C 
ATOM     16  C   UNL     1      -6.996  11.606  20.986  0.00  0.00    +0.000 C 
ENDBRANCH   6  12
BRANCH   1  19
ATOM     17  O   UNL     1      -3.620  11.836  23.932  0.00  0.00    +0.000 OA
ATOM     18  C   UNL     1      -3.072  12.289  22.926  0.00  0.00    +0.000 C 
ATOM     19  N   UNL     1      -3.564  13.339  22.165  0.00  0.00    +0.000 N 
ATOM     20  H   UNL     1      -3.462  13.192  21.167  0.00  0.00    +0.000 HD
BRANCH  18  21
ATOM     21  C   UNL     1      -1.794  11.744  22.467  0.00  0.00    +0.000 A 
ATOM     22  C   UNL     1      -1.056  10.744  23.184  0.00  0.00    +0.000 A 
ATOM     23  N   UNL     1       0.141  10.428  22.691  0.00  0.00    +0.000 NA
ATOM     24  S   UNL     1       0.310  11.414  21.349  0.00  0.00    +0.000 S 
ATOM     25  N   UNL     1      -1.169  12.199  21.366  0.00  0.00    +0.000 NA
ENDBRANCH  18  21
ENDBRANCH   1  19
TORSDOF 4
ENDMDL
MODEL 7
REMARK VINA RESULT:      -5.3      2.362      5.014
REMARK  Name = 
REMARK  4 active torsions:
REMARK  status: ('A' for Active; 'I' for Inactive)
REMARK    1  A    between atoms: C_2  and  C_20
REMARK    2  A    between atoms: N_3  and  C_4
REMARK    3  A    between atoms: C_5  and  N_6
REMARK    4  A    between atoms: C_14  and  N_15
REMARK                            x       y       z     vdW  Elec       q    Type
REMARK                         _______ _______ _______ _____ _____    ______ ____
ROOT
ATOM      1  C   UNL     1      -2.728  12.188  19.060  0.00  0.00    +0.000 A 
ATOM      2  C   UNL     1      -3.788  11.448  18.446  0.00  0.00    +0.000 A 
ATOM      3  C   UNL     1      -3.410  10.310  17.718  0.00  0.00    +0.000 A 
ATOM      4  C   UNL     1      -2.075   9.935  17.585  0.00  0.00    +0.000 A 
ATOM      5  C   UNL     1      -1.061  10.709  18.151  0.00  0.00    +0.000 A 
ATOM      6  C   UNL     1      -1.342  11.871  18.882  0.00  0.00    +0.000 A 
ENDROOT
BRANCH   2   7
ATOM      7  N   UNL     1      -5.107  11.881  18.426  0.00  0.00    +0.000 N 
ATOM      8  C   UNL     1      -5.799  12.233  17.196  0.00  0.00    +0.000 C 
ATOM      9  C   UNL     1      -7.037  12.934  17.726  0.00  0.00    +0.000 C 
ATOM     10  C   UNL     1      -7.413  12.096  18.945  0.00  0.00    +0.000 C 
ATOM     11  C   UNL     1      -6.091  11.489  19.430  0.00  0.00    +0.000 C 
ENDBRANCH   2   7
BRANCH   6  12
ATOM     12  N   UNL     1      -0.324  12.682  19.425  0.00  0.00    +0.000 N 
ATOM     13  C   UNL     1       0.665  13.355  18.563  0.00  0.00    +0.000 C 
ATOM     14  C   UNL     1       2.023  12.857  19.048  0.00  0.00    +0.000 C 
ATOM     15  C   UNL     1       1.795  12.639  20.528  0.00  0.00    +0.000 C 
ATOM     16  C   UNL     1       0.374  12.094  20.586  0.00  0.00    +0.000 C 
ENDBRANCH   6  12
BRANCH   1  19
ATOM     17  O   UNL     1      -3.168  12.311  21.807  0.00  0.00    +0.000 OA
ATOM     18  C   UNL     1      -3.261  13.331  21.122  0.00  0.00    +0.000 C 
ATOM     19  N   UNL     1      -3.053  13.383  19.752  0.00  0.00    +0.000 N 
ATOM     20  H   UNL     1      -2.539  14.205  19.456  0.00  0.00    +0.000 HD
BRANCH  18  21
ATOM     21  C   UNL     1      -3.645  14.604  21.733  0.00  0.00    +0.000 A 
ATOM     22  C   UNL     1      -4.022  14.739  23.111  0.00  0.00    +0.000 A 
ATOM     23  N   UNL     1      -4.447  15.944  23.490  0.00  0.00    +0.000 NA
ATOM     24  S   UNL     1      -4.378  16.866  22.095  0.00  0.00    +0.000 S 
ATOM     25  N   UNL     1      -3.749  15.742  21.024  0.00  0.00    +0.000 NA
ENDBRANCH  18  21
ENDBRANCH   1  19
TORSDOF 4
ENDMDL
MODEL 8
REMARK VINA RESULT:      -5.3      0.738      5.114
REMARK  Name = 
REMARK  4 active torsions:
REMARK  status: ('A' for Active; 'I' for Inactive)
REMARK    1  A    between atoms: C_2  and  C_20
REMARK    2  A    between atoms: N_3  and  C_4
REMARK    3  A    between atoms: C_5  and  N_6
REMARK    4  A    between atoms: C_14  and  N_15
REMARK                            x       y       z     vdW  Elec       q    Type
REMARK                         _______ _______ _______ _____ _____    ______ ____
ROOT
ATOM      1  C   UNL     1      -3.836  12.294  19.381  0.00  0.00    +0.000 A 
ATOM      2  C   UNL     1      -4.703  12.625  20.471  0.00  0.00    +0.000 A 
ATOM      3  C   UNL     1      -5.974  12.032  20.458  0.00  0.00    +0.000 A 
ATOM      4  C   UNL     1      -6.375  11.184  19.427  0.00  0.00    +0.000 A 
ATOM      5  C   UNL     1      -5.526  10.924  18.351  0.00  0.00    +0.000 A 
ATOM      6  C   UNL     1      -4.244  11.485  18.272  0.00  0.00    +0.000 A 
ENDROOT
BRANCH   2   7
ATOM      7  N   UNL     1      -4.393  13.586  21.425  0.00  0.00    +0.000 N 
ATOM      8  C   UNL     1      -4.978  14.918  21.417  0.00  0.00    +0.000 C 
ATOM      9  C   UNL     1      -4.097  15.651  22.412  0.00  0.00    +0.000 C 
ATOM     10  C   UNL     1      -3.865  14.608  23.502  0.00  0.00    +0.000 C 
ATOM     11  C   UNL     1      -3.981  13.256  22.787  0.00  0.00    +0.000 C 
ENDBRANCH   2   7
BRANCH   6  12
ATOM     12  N   UNL     1      -3.393  11.261  17.169  0.00  0.00    +0.000 N 
ATOM     13  C   UNL     1      -3.845  11.502  15.787  0.00  0.00    +0.000 C 
ATOM     14  C   UNL     1      -3.666  10.169  15.069  0.00  0.00    +0.000 C 
ATOM     15  C   UNL     1      -2.462   9.570  15.762  0.00  0.00    +0.000 C 
ATOM     16  C   UNL     1      -2.654   9.984  17.216  0.00  0.00    +0.000 C 
ENDBRANCH   6  12
BRANCH   1  19
ATOM     17  O   UNL     1      -1.533  11.235  20.531  0.00  0.00    +0.000 OA
ATOM     18  C   UNL     1      -1.483  12.310  19.932  0.00  0.00    +0.000 C 
ATOM     19  N   UNL     1      -2.566  12.920  19.316  0.00  0.00    +0.000 N 
ATOM     20  H   UNL     1      -2.335  13.334  18.419  0.00  0.00    +0.000 HD
BRANCH  18  21
ATOM     21  C   UNL     1      -0.230  13.061  19.856  0.00  0.00    +0.000 A 
ATOM     22  C   UNL     1      -0.022  14.169  18.968  0.00  0.00    +0.000 A 
ATOM     23  N   UNL     1       1.208  14.680  18.941  0.00  0.00    +0.000 NA
ATOM     24  S   UNL     1       2.072  13.737  20.021  0.00  0.00    +0.000 S 
ATOM     25  N   UNL     1       0.861  12.717  20.564  0.00  0.00    +0.000 NA
ENDBRANCH  18  21
ENDBRANCH   1  19
TORSDOF 4
ENDMDL
MODEL 9
REMARK VINA RESULT:      -5.2      2.975      6.938
REMARK  Name = 
REMARK  4 active torsions:
REMARK  status: ('A' for Active; 'I' for Inactive)
REMARK    1  A    between atoms: C_2  and  C_20
REMARK    2  A    between atoms: N_3  and  C_4
REMARK    3  A    between atoms: C_5  and  N_6
REMARK    4  A    between atoms: C_14  and  N_15
REMARK                            x       y       z     vdW  Elec       q    Type
REMARK                         _______ _______ _______ _____ _____    ______ ____
ROOT
ATOM      1  C   UNL     1      -2.366  13.140  20.450  0.00  0.00    +0.000 A 
ATOM      2  C   UNL     1      -1.682  14.227  21.083  0.00  0.00    +0.000 A 
ATOM      3  C   UNL     1      -0.532  14.700  20.435  0.00  0.00    +0.000 A 
ATOM      4  C   UNL     1      -0.070  14.127  19.251  0.00  0.00    +0.000 A 
ATOM      5  C   UNL     1      -0.729  13.033  18.689  0.00  0.00    +0.000 A 
ATOM      6  C   UNL     1      -1.877  12.484  19.274  0.00  0.00    +0.000 A 
ENDROOT
BRANCH   2   7
ATOM      7  N   UNL     1      -2.024  14.714  22.338  0.00  0.00    +0.000 N 
ATOM      8  C   UNL     1      -1.304  14.341  23.547  0.00  0.00    +0.000 C 
ATOM      9  C   UNL     1      -2.238  14.846  24.632  0.00  0.00    +0.000 C 
ATOM     10  C   UNL     1      -2.737  16.173  24.069  0.00  0.00    +0.000 C 
ATOM     11  C   UNL     1      -2.663  16.010  22.546  0.00  0.00    +0.000 C 
ENDBRANCH   2   7
BRANCH   6  12
ATOM     12  N   UNL     1      -2.528  11.354  18.736  0.00  0.00    +0.000 N 
ATOM     13  C   UNL     1      -1.781  10.136  18.372  0.00  0.00    +0.000 C 
ATOM     14  C   UNL     1      -2.077   9.912  16.893  0.00  0.00    +0.000 C 
ATOM     15  C   UNL     1      -3.486  10.444  16.745  0.00  0.00    +0.000 C 
ATOM     16  C   UNL     1      -3.499  11.658  17.666  0.00  0.00    +0.000 C 
ENDBRANCH   6  12
BRANCH   1  19
ATOM     17  O   UNL     1      -4.965  14.072  20.093  0.00  0.00    +0.000 OA
ATOM     18  C   UNL     1      -4.747  13.131  20.859  0.00  0.00    +0.000 C 
ATOM     19  N   UNL     1      -3.496  12.585  21.101  0.00  0.00    +0.000 N 
ATOM     20  H   UNL     1      -3.506  11.572  21.158  0.00  0.00    +0.000 HD
BRANCH  18  21
ATOM     21  C   UNL     1      -5.841  12.525  21.619  0.00  0.00    +0.000 A 
ATOM     22  C   UNL     1      -6.855  11.699  21.028  0.00  0.00    +0.000 A 
ATOM     23  N   UNL     1      -7.841  11.309  21.834  0.00  0.00    +0.000 NA
ATOM     24  S   UNL     1      -7.473  12.010  23.309  0.00  0.00    +0.000 S 
ATOM     25  N   UNL     1      -6.025  12.761  22.930  0.00  0.00    +0.000 NA
ENDBRANCH  18  21
ENDBRANCH   1  19
TORSDOF 4
ENDMDL
