MODEL 1
REMARK VINA RESULT:      -8.4      0.000      0.000
REMARK  Name = 
REMARK  4 active torsions:
REMARK  status: ('A' for Active; 'I' for Inactive)
REMARK    1  A    between atoms: C_1  and  C_2
REMARK    2  A    between atoms: C_6  and  C_7
REMARK    3  A    between atoms: C_13  and  C_14
REMARK    4  A    between atoms: C_13  and  C_15
REMARK                            x       y       z     vdW  Elec       q    Type
REMARK                         _______ _______ _______ _____ _____    ______ ____
ROOT
ATOM      1  C   UNL     1       6.352   3.933  14.535  0.00  0.00    +0.000 C 
ATOM      2  C   UNL     1       5.333   4.560  15.485  0.00  0.00    +0.000 C 
ATOM      3  C   UNL     1       5.482   6.082  15.464  0.00  0.00    +0.000 C 
ATOM      4  C   UNL     1       4.443   6.753  16.344  0.00  0.00    +0.000 C 
ATOM      5  C   UNL     1       4.483   6.260  17.807  0.00  0.00    +0.000 C 
ATOM      6  C   UNL     1       3.397   6.943  18.698  0.00  0.00    +0.000 C 
ATOM      7  C   UNL     1       2.524   8.040  18.070  0.00  0.00    +0.000 C 
ATOM      8  C   UNL     1       2.383   5.945  19.178  0.00  0.00    +0.000 C 
ATOM      9  O   UNL     1       1.878   5.941  20.291  0.00  0.00    +0.000 OA
ATOM     10  O   UNL     1       1.947   5.152  18.169  0.00  0.00    +0.000 OA
ATOM     11  C   UNL     1       2.949   4.288  17.604  0.00  0.00    +0.000 C 
ATOM     12  O   UNL     1       2.743   2.974  18.120  0.00  0.00    +0.000 OA
ATOM     13  C   UNL     1       2.677   3.141  19.544  0.00  0.00    +0.000 C 
ATOM     14  C   UNL     1       2.740   2.675  21.032  0.00  0.00    +0.000 C 
ATOM     15  C   UNL     1       1.326   2.295  19.370  0.00  0.00    +0.000 C 
ATOM     16  O   UNL     1       4.128   2.928  19.474  0.00  0.00    +0.000 OA
ATOM     17  O   UNL     1       4.718   4.297  19.264  0.00  0.00    +0.000 OA
ATOM     18  C   UNL     1       4.411   4.705  17.894  0.00  0.00    +0.000 C 
ATOM     19  C   UNL     1       5.447   4.046  16.935  0.00  0.00    +0.000 C 
ENDROOT
TORSDOF 0
ENDMDL
MODEL 2
REMARK VINA RESULT:      -8.3      1.607      4.453
REMARK  Name = 
REMARK  4 active torsions:
REMARK  status: ('A' for Active; 'I' for Inactive)
REMARK    1  A    between atoms: C_1  and  C_2
REMARK    2  A    between atoms: C_6  and  C_7
REMARK    3  A    between atoms: C_13  and  C_14
REMARK    4  A    between atoms: C_13  and  C_15
REMARK                            x       y       z     vdW  Elec       q    Type
REMARK                         _______ _______ _______ _____ _____    ______ ____
ROOT
ATOM      1  C   UNL     1       2.044   2.556  21.697  0.00  0.00    +0.000 C 
ATOM      2  C   UNL     1       2.518   3.695  20.795  0.00  0.00    +0.000 C 
ATOM      3  C   UNL     1       1.427   4.761  20.699  0.00  0.00    +0.000 C 
ATOM      4  C   UNL     1       1.881   5.945  19.865  0.00  0.00    +0.000 C 
ATOM      5  C   UNL     1       2.327   5.546  18.441  0.00  0.00    +0.000 C 
ATOM      6  C   UNL     1       2.810   6.770  17.600  0.00  0.00    +0.000 C 
ATOM      7  C   UNL     1       2.700   8.169  18.222  0.00  0.00    +0.000 C 
ATOM      8  C   UNL     1       4.273   6.662  17.277  0.00  0.00    +0.000 C 
ATOM      9  O   UNL     1       4.780   6.988  16.214  0.00  0.00    +0.000 OA
ATOM     10  O   UNL     1       5.003   6.336  18.373  0.00  0.00    +0.000 OA
ATOM     11  C   UNL     1       4.735   5.029  18.909  0.00  0.00    +0.000 C 
ATOM     12  O   UNL     1       5.791   4.159  18.505  0.00  0.00    +0.000 OA
ATOM     13  C   UNL     1       5.890   4.332  17.083  0.00  0.00    +0.000 C 
ATOM     14  C   UNL     1       6.303   3.937  15.631  0.00  0.00    +0.000 C 
ATOM     15  C   UNL     1       7.438   4.557  17.428  0.00  0.00    +0.000 C 
ATOM     16  O   UNL     1       4.917   3.232  17.045  0.00  0.00    +0.000 OA
ATOM     17  O   UNL     1       3.567   3.896  17.109  0.00  0.00    +0.000 OA
ATOM     18  C   UNL     1       3.389   4.404  18.469  0.00  0.00    +0.000 C 
ATOM     19  C   UNL     1       2.921   3.231  19.380  0.00  0.00    +0.000 C 
ENDROOT
TORSDOF 0
ENDMDL
MODEL 3
REMARK VINA RESULT:      -7.3      1.405      3.611
REMARK  Name = 
REMARK  4 active torsions:
REMARK  status: ('A' for Active; 'I' for Inactive)
REMARK    1  A    between atoms: C_1  and  C_2
REMARK    2  A    between atoms: C_6  and  C_7
REMARK    3  A    between atoms: C_13  and  C_14
REMARK    4  A    between atoms: C_13  and  C_15
REMARK                            x       y       z     vdW  Elec       q    Type
REMARK                         _______ _______ _______ _____ _____    ______ ____
ROOT
ATOM      1  C   UNL     1       1.871   9.285  17.828  0.00  0.00    +0.000 C 
ATOM      2  C   UNL     1       2.709   8.034  18.090  0.00  0.00    +0.000 C 
ATOM      3  C   UNL     1       3.895   8.000  17.125  0.00  0.00    +0.000 C 
ATOM      4  C   UNL     1       4.794   6.807  17.393  0.00  0.00    +0.000 C 
ATOM      5  C   UNL     1       4.045   5.458  17.323  0.00  0.00    +0.000 C 
ATOM      6  C   UNL     1       4.976   4.241  17.621  0.00  0.00    +0.000 C 
ATOM      7  C   UNL     1       6.473   4.505  17.841  0.00  0.00    +0.000 C 
ATOM      8  C   UNL     1       4.571   3.544  18.887  0.00  0.00    +0.000 C 
ATOM      9  O   UNL     1       4.585   2.334  19.055  0.00  0.00    +0.000 OA
ATOM     10  O   UNL     1       4.363   4.426  19.897  0.00  0.00    +0.000 OA
ATOM     11  C   UNL     1       3.254   5.320  19.698  0.00  0.00    +0.000 C 
ATOM     12  O   UNL     1       2.161   4.852  20.487  0.00  0.00    +0.000 OA
ATOM     13  C   UNL     1       2.020   3.466  20.141  0.00  0.00    +0.000 C 
ATOM     14  C   UNL     1       1.275   2.099  20.032  0.00  0.00    +0.000 C 
ATOM     15  C   UNL     1       2.059   3.281  21.733  0.00  0.00    +0.000 C 
ATOM     16  O   UNL     1       1.108   3.982  19.113  0.00  0.00    +0.000 OA
ATOM     17  O   UNL     1       1.980   4.270  17.920  0.00  0.00    +0.000 OA
ATOM     18  C   UNL     1       2.777   5.456  18.231  0.00  0.00    +0.000 C 
ATOM     19  C   UNL     1       1.906   6.721  17.976  0.00  0.00    +0.000 C 
ENDROOT
TORSDOF 0
ENDMDL
MODEL 4
REMARK VINA RESULT:      -6.9      1.768      2.791
REMARK  Name = 
REMARK  4 active torsions:
REMARK  status: ('A' for Active; 'I' for Inactive)
REMARK    1  A    between atoms: C_1  and  C_2
REMARK    2  A    between atoms: C_6  and  C_7
REMARK    3  A    between atoms: C_13  and  C_14
REMARK    4  A    between atoms: C_13  and  C_15
REMARK                            x       y       z     vdW  Elec       q    Type
REMARK                         _______ _______ _______ _____ _____    ______ ____
ROOT
ATOM      1  C   UNL     1       5.420   3.671  12.626  0.00  0.00    +0.000 C 
ATOM      2  C   UNL     1       5.607   4.295  14.009  0.00  0.00    +0.000 C 
ATOM      3  C   UNL     1       7.058   4.749  14.175  0.00  0.00    +0.000 C 
ATOM      4  C   UNL     1       7.274   5.436  15.511  0.00  0.00    +0.000 C 
ATOM      5  C   UNL     1       6.878   4.554  16.715  0.00  0.00    +0.000 C 
ATOM      6  C   UNL     1       7.086   5.280  18.082  0.00  0.00    +0.000 C 
ATOM      7  C   UNL     1       7.719   6.679  18.075  0.00  0.00    +0.000 C 
ATOM      8  C   UNL     1       5.776   5.510  18.779  0.00  0.00    +0.000 C 
ATOM      9  O   UNL     1       5.598   5.410  19.984  0.00  0.00    +0.000 OA
ATOM     10  O   UNL     1       4.848   6.030  17.937  0.00  0.00    +0.000 OA
ATOM     11  C   UNL     1       4.449   5.156  16.866  0.00  0.00    +0.000 C 
ATOM     12  O   UNL     1       3.178   4.600  17.198  0.00  0.00    +0.000 OA
ATOM     13  C   UNL     1       3.341   4.066  18.521  0.00  0.00    +0.000 C 
ATOM     14  C   UNL     1       2.979   3.163  19.741  0.00  0.00    +0.000 C 
ATOM     15  C   UNL     1       2.017   4.924  18.804  0.00  0.00    +0.000 C 
ATOM     16  O   UNL     1       3.732   2.845  17.805  0.00  0.00    +0.000 OA
ATOM     17  O   UNL     1       5.216   2.971  17.590  0.00  0.00    +0.000 OA
ATOM     18  C   UNL     1       5.429   3.996  16.568  0.00  0.00    +0.000 C 
ATOM     19  C   UNL     1       5.221   3.351  15.166  0.00  0.00    +0.000 C 
ENDROOT
TORSDOF 0
ENDMDL
MODEL 5
REMARK VINA RESULT:      -6.6      1.637      4.884
REMARK  Name = 
REMARK  4 active torsions:
REMARK  status: ('A' for Active; 'I' for Inactive)
REMARK    1  A    between atoms: C_1  and  C_2
REMARK    2  A    between atoms: C_6  and  C_7
REMARK    3  A    between atoms: C_13  and  C_14
REMARK    4  A    between atoms: C_13  and  C_15
REMARK                            x       y       z     vdW  Elec       q    Type
REMARK                         _______ _______ _______ _____ _____    ______ ____
ROOT
ATOM      1  C   UNL     1       1.572   8.137  20.688  0.00  0.00    +0.000 C 
ATOM      2  C   UNL     1       1.842   6.797  20.006  0.00  0.00    +0.000 C 
ATOM      3  C   UNL     1       1.130   5.680  20.769  0.00  0.00    +0.000 C 
ATOM      4  C   UNL     1       1.316   4.337  20.087  0.00  0.00    +0.000 C 
ATOM      5  C   UNL     1       2.800   3.955  19.899  0.00  0.00    +0.000 C 
ATOM      6  C   UNL     1       2.979   2.581  19.180  0.00  0.00    +0.000 C 
ATOM      7  C   UNL     1       1.721   1.765  18.846  0.00  0.00    +0.000 C 
ATOM      8  C   UNL     1       3.631   2.752  17.838  0.00  0.00    +0.000 C 
ATOM      9  O   UNL     1       4.459   1.991  17.361  0.00  0.00    +0.000 OA
ATOM     10  O   UNL     1       3.055   3.753  17.127  0.00  0.00    +0.000 OA
ATOM     11  C   UNL     1       3.220   5.066  17.691  0.00  0.00    +0.000 C 
ATOM     12  O   UNL     1       4.239   5.740  16.955  0.00  0.00    +0.000 OA
ATOM     13  C   UNL     1       5.351   4.832  16.944  0.00  0.00    +0.000 C 
ATOM     14  C   UNL     1       6.849   4.425  16.788  0.00  0.00    +0.000 C 
ATOM     15  C   UNL     1       5.298   5.116  15.367  0.00  0.00    +0.000 C 
ATOM     16  O   UNL     1       5.727   5.531  18.179  0.00  0.00    +0.000 OA
ATOM     17  O   UNL     1       5.029   4.784  19.284  0.00  0.00    +0.000 OA
ATOM     18  C   UNL     1       3.602   5.090  19.192  0.00  0.00    +0.000 C 
ATOM     19  C   UNL     1       3.343   6.465  19.877  0.00  0.00    +0.000 C 
ENDROOT
TORSDOF 0
ENDMDL
MODEL 6
REMARK VINA RESULT:      -6.5      2.386      5.133
REMARK  Name = 
REMARK  4 active torsions:
REMARK  status: ('A' for Active; 'I' for Inactive)
REMARK    1  A    between atoms: C_1  and  C_2
REMARK    2  A    between atoms: C_6  and  C_7
REMARK    3  A    between atoms: C_13  and  C_14
REMARK    4  A    between atoms: C_13  and  C_15
REMARK                            x       y       z     vdW  Elec       q    Type
REMARK                         _______ _______ _______ _____ _____    ______ ____
ROOT
ATOM      1  C   UNL     1       1.427   4.046  19.287  0.00  0.00    +0.000 C 
ATOM      2  C   UNL     1       2.508   4.292  18.235  0.00  0.00    +0.000 C 
ATOM      3  C   UNL     1       2.483   3.164  17.201  0.00  0.00    +0.000 C 
ATOM      4  C   UNL     1       3.498   3.402  16.098  0.00  0.00    +0.000 C 
ATOM      5  C   UNL     1       4.938   3.572  16.628  0.00  0.00    +0.000 C 
ATOM      6  C   UNL     1       5.969   3.836  15.485  0.00  0.00    +0.000 C 
ATOM      7  C   UNL     1       5.472   3.800  14.033  0.00  0.00    +0.000 C 
ATOM      8  C   UNL     1       6.567   5.208  15.599  0.00  0.00    +0.000 C 
ATOM      9  O   UNL     1       7.736   5.483  15.372  0.00  0.00    +0.000 OA
ATOM     10  O   UNL     1       5.614   6.152  15.803  0.00  0.00    +0.000 OA
ATOM     11  C   UNL     1       4.915   6.042  17.056  0.00  0.00    +0.000 C 
ATOM     12  O   UNL     1       5.440   7.028  17.943  0.00  0.00    +0.000 OA
ATOM     13  C   UNL     1       6.862   6.838  17.910  0.00  0.00    +0.000 C 
ATOM     14  C   UNL     1       8.325   6.970  18.439  0.00  0.00    +0.000 C 
ATOM     15  C   UNL     1       6.856   8.415  17.626  0.00  0.00    +0.000 C 
ATOM     16  O   UNL     1       6.602   5.917  19.024  0.00  0.00    +0.000 OA
ATOM     17  O   UNL     1       6.332   4.584  18.380  0.00  0.00    +0.000 OA
ATOM     18  C   UNL     1       5.017   4.659  17.744  0.00  0.00    +0.000 C 
ATOM     19  C   UNL     1       3.926   4.423  18.829  0.00  0.00    +0.000 C 
ENDROOT
TORSDOF 0
ENDMDL
MODEL 7
REMARK VINA RESULT:      -6.4      2.369      5.026
REMARK  Name = 
REMARK  4 active torsions:
REMARK  status: ('A' for Active; 'I' for Inactive)
REMARK    1  A    between atoms: C_1  and  C_2
REMARK    2  A    between atoms: C_6  and  C_7
REMARK    3  A    between atoms: C_13  and  C_14
REMARK    4  A    between atoms: C_13  and  C_15
REMARK                            x       y       z     vdW  Elec       q    Type
REMARK                         _______ _______ _______ _____ _____    ______ ____
ROOT
ATOM      1  C   UNL     1       1.254   4.992  19.796  0.00  0.00    +0.000 C 
ATOM      2  C   UNL     1       2.400   4.932  18.787  0.00  0.00    +0.000 C 
ATOM      3  C   UNL     1       2.046   3.952  17.667  0.00  0.00    +0.000 C 
ATOM      4  C   UNL     1       3.130   3.911  16.604  0.00  0.00    +0.000 C 
ATOM      5  C   UNL     1       4.520   3.550  17.172  0.00  0.00    +0.000 C 
ATOM      6  C   UNL     1       5.628   3.530  16.073  0.00  0.00    +0.000 C 
ATOM      7  C   UNL     1       5.211   3.764  14.614  0.00  0.00    +0.000 C 
ATOM      8  C   UNL     1       6.644   4.611  16.307  0.00  0.00    +0.000 C 
ATOM      9  O   UNL     1       7.846   4.492  16.124  0.00  0.00    +0.000 OA
ATOM     10  O   UNL     1       6.052   5.803  16.568  0.00  0.00    +0.000 OA
ATOM     11  C   UNL     1       5.303   5.849  17.795  0.00  0.00    +0.000 C 
ATOM     12  O   UNL     1       6.086   6.538  18.768  0.00  0.00    +0.000 OA
ATOM     13  C   UNL     1       7.364   5.884  18.746  0.00  0.00    +0.000 C 
ATOM     14  C   UNL     1       8.762   5.480  19.310  0.00  0.00    +0.000 C 
ATOM     15  C   UNL     1       7.897   7.387  18.587  0.00  0.00    +0.000 C 
ATOM     16  O   UNL     1       6.764   5.029  19.778  0.00  0.00    +0.000 OA
ATOM     17  O   UNL     1       6.092   3.912  19.024  0.00  0.00    +0.000 OA
ATOM     18  C   UNL     1       4.907   4.468  18.372  0.00  0.00    +0.000 C 
ATOM     19  C   UNL     1       3.753   4.538  19.415  0.00  0.00    +0.000 C 
ENDROOT
TORSDOF 0
ENDMDL
MODEL 8
REMARK VINA RESULT:      -6.3      1.596      4.052
REMARK  Name = 
REMARK  4 active torsions:
REMARK  status: ('A' for Active; 'I' for Inactive)
REMARK    1  A    between atoms: C_1  and  C_2
REMARK    2  A    between atoms: C_6  and  C_7
REMARK    3  A    between atoms: C_13  and  C_14
REMARK    4  A    between atoms: C_13  and  C_15
REMARK                            x       y       z     vdW  Elec       q    Type
REMARK                         _______ _______ _______ _____ _____    ______ ____
ROOT
ATOM      1  C   UNL     1       0.863   7.941  21.120  0.00  0.00    +0.000 C 
ATOM      2  C   UNL     1       1.933   7.321  20.222  0.00  0.00    +0.000 C 
ATOM      3  C   UNL     1       2.222   8.257  19.047  0.00  0.00    +0.000 C 
ATOM      4  C   UNL     1       3.329   7.711  18.164  0.00  0.00    +0.000 C 
ATOM      5  C   UNL     1       3.029   6.296  17.623  0.00  0.00    +0.000 C 
ATOM      6  C   UNL     1       4.183   5.739  16.732  0.00  0.00    +0.000 C 
ATOM      7  C   UNL     1       5.380   6.654  16.433  0.00  0.00    +0.000 C 
ATOM      8  C   UNL     1       4.830   4.542  17.368  0.00  0.00    +0.000 C 
ATOM      9  O   UNL     1       5.217   3.553  16.764  0.00  0.00    +0.000 OA
ATOM     10  O   UNL     1       5.109   4.763  18.677  0.00  0.00    +0.000 OA
ATOM     11  C   UNL     1       3.956   4.941  19.518  0.00  0.00    +0.000 C 
ATOM     12  O   UNL     1       3.738   3.728  20.235  0.00  0.00    +0.000 OA
ATOM     13  C   UNL     1       3.728   2.701  19.233  0.00  0.00    +0.000 C 
ATOM     14  C   UNL     1       3.410   1.288  18.652  0.00  0.00    +0.000 C 
ATOM     15  C   UNL     1       4.795   2.021  20.217  0.00  0.00    +0.000 C 
ATOM     16  O   UNL     1       2.287   2.980  19.192  0.00  0.00    +0.000 OA
ATOM     17  O   UNL     1       2.126   4.080  18.176  0.00  0.00    +0.000 OA
ATOM     18  C   UNL     1       2.651   5.309  18.770  0.00  0.00    +0.000 C 
ATOM     19  C   UNL     1       1.557   5.922  19.693  0.00  0.00    +0.000 C 
ENDROOT
TORSDOF 0
ENDMDL
MODEL 9
REMARK VINA RESULT:      -6.3      1.604      4.457
REMARK  Name = 
REMARK  4 active torsions:
REMARK  status: ('A' for Active; 'I' for Inactive)
REMARK    1  A    between atoms: C_1  and  C_2
REMARK    2  A    between atoms: C_6  and  C_7
REMARK    3  A    between atoms: C_13  and  C_14
REMARK    4  A    between atoms: C_13  and  C_15
REMARK                            x       y       z     vdW  Elec       q    Type
REMARK                         _______ _______ _______ _____ _____    ______ ____
ROOT
ATOM      1  C   UNL     1       1.852   9.400  17.781  0.00  0.00    +0.000 C 
ATOM      2  C   UNL     1       2.241   7.959  18.111  0.00  0.00    +0.000 C 
ATOM      3  C   UNL     1       1.689   7.581  19.486  0.00  0.00    +0.000 C 
ATOM      4  C   UNL     1       1.994   6.133  19.826  0.00  0.00    +0.000 C 
ATOM      5  C   UNL     1       3.503   5.806  19.777  0.00  0.00    +0.000 C 
ATOM      6  C   UNL     1       3.802   4.310  20.110  0.00  0.00    +0.000 C 
ATOM      7  C   UNL     1       2.630   3.407  20.520  0.00  0.00    +0.000 C 
ATOM      8  C   UNL     1       4.374   3.594  18.920  0.00  0.00    +0.000 C 
ATOM      9  O   UNL     1       5.261   2.755  18.969  0.00  0.00    +0.000 OA
ATOM     10  O   UNL     1       3.661   3.848  17.795  0.00  0.00    +0.000 OA
ATOM     11  C   UNL     1       3.703   5.215  17.349  0.00  0.00    +0.000 C 
ATOM     12  O   UNL     1       4.609   5.295  16.250  0.00  0.00    +0.000 OA
ATOM     13  C   UNL     1       5.813   4.667  16.715  0.00  0.00    +0.000 C 
ATOM     14  C   UNL     1       7.340   4.343  16.706  0.00  0.00    +0.000 C 
ATOM     15  C   UNL     1       5.662   3.842  15.349  0.00  0.00    +0.000 C 
ATOM     16  O   UNL     1       6.161   6.025  17.151  0.00  0.00    +0.000 OA
ATOM     17  O   UNL     1       5.598   6.150  18.542  0.00  0.00    +0.000 OA
ATOM     18  C   UNL     1       4.143   6.240  18.423  0.00  0.00    +0.000 C 
ATOM     19  C   UNL     1       3.763   7.709  18.072  0.00  0.00    +0.000 C 
ENDROOT
TORSDOF 0
ENDMDL
