MODEL 1
REMARK VINA RESULT:      -7.3      0.000      0.000
REMARK  Name = 
REMARK  7 active torsions:
REMARK  status: ('A' for Active; 'I' for Inactive)
REMARK    1  A    between atoms: C_1  and  N_2
REMARK    2  A    between atoms: N_2  and  C_3
REMARK    3  A    between atoms: N_13  and  C1*_14
REMARK    4  A    between atoms: C4*_16  and  C5*_17
REMARK    5  A    between atoms: C5*_17  and  O5*_18
REMARK    6  A    between atoms: C3*_19  and  O3*_20
REMARK    7  A    between atoms: C2*_21  and  O2*_22
REMARK                            x       y       z     vdW  Elec       q    Type
REMARK                         _______ _______ _______ _____ _____    ______ ____
ROOT
ATOM      1  C   UNL     1       5.227   6.013  15.540  0.00  0.00    +0.000 C 
ATOM      2  N   UNL     1       5.166   5.701  16.978  0.00  0.00    +0.000 N 
ATOM      3  C   UNL     1       6.498   5.613  17.599  0.00  0.00    +0.000 C 
ATOM      4  C   UNL     1       4.206   6.395  17.670  0.00  0.00    +0.000 A 
ATOM      5  N   UNL     1       3.667   7.546  17.310  0.00  0.00    +0.000 NA
ATOM      6  C   UNL     1       2.777   7.878  18.306  0.00  0.00    +0.000 A 
ATOM      7  C   UNL     1       1.955   9.001  18.518  0.00  0.00    +0.000 A 
ATOM      8  N   UNL     1       1.932  10.117  17.692  0.00  0.00    +0.000 N 
ATOM      9  N   UNL     1       1.135   9.012  19.591  0.00  0.00    +0.000 NA
ATOM     10  C   UNL     1       1.162   7.957  20.425  0.00  0.00    +0.000 A 
ATOM     11  N   UNL     1       1.917   6.850  20.334  0.00  0.00    +0.000 NA
ATOM     12  C   UNL     1       2.715   6.872  19.254  0.00  0.00    +0.000 A 
ATOM     13  N   UNL     1       3.641   5.939  18.854  0.00  0.00    +0.000 N 
ATOM     14  H   UNL     1       2.254   9.940  16.750  0.00  0.00    +0.000 HD
ATOM     15  H   UNL     1       1.089  10.661  17.817  0.00  0.00    +0.000 HD
ENDROOT
BRANCH  13  16
ATOM     16  C1* UNL     1       4.028   4.727  19.559  0.00  0.00    +0.000 C 
ATOM     17  O4* UNL     1       3.101   4.404  20.627  0.00  0.00    +0.000 OA
ATOM     18  C4* UNL     1       2.387   3.204  20.293  0.00  0.00    +0.000 C 
ATOM     19  C3* UNL     1       2.748   2.854  18.852  0.00  0.00    +0.000 C 
ATOM     20  C2* UNL     1       4.130   3.464  18.700  0.00  0.00    +0.000 C 
BRANCH  19  21
ATOM     21  O3* UNL     1       2.745   1.448  18.633  0.00  0.00    +0.000 OA
ATOM     22  H3* UNL     1       3.644   1.217  18.318  0.00  0.00    +0.000 HD
ENDBRANCH  19  21
BRANCH  20  23
ATOM     23  O2* UNL     1       5.099   2.532  19.234  0.00  0.00    +0.000 OA
ATOM     24  H2* UNL     1       4.744   1.628  19.136  0.00  0.00    +0.000 HD
ENDBRANCH  20  23
BRANCH  18  25
ATOM     25  C5* UNL     1       0.878   3.377  20.481  0.00  0.00    +0.000 C 
BRANCH  25  26
ATOM     26  O5* UNL     1       0.136   2.655  19.503  0.00  0.00    +0.000 OA
ATOM     27  H5* UNL     1       0.741   2.027  19.063  0.00  0.00    +0.000 HD
ENDBRANCH  25  26
ENDBRANCH  18  25
ENDBRANCH  13  16
TORSDOF 5
ENDMDL
MODEL 2
REMARK VINA RESULT:      -7.1      2.048      4.311
REMARK  Name = 
REMARK  7 active torsions:
REMARK  status: ('A' for Active; 'I' for Inactive)
REMARK    1  A    between atoms: C_1  and  N_2
REMARK    2  A    between atoms: N_2  and  C_3
REMARK    3  A    between atoms: N_13  and  C1*_14
REMARK    4  A    between atoms: C4*_16  and  C5*_17
REMARK    5  A    between atoms: C5*_17  and  O5*_18
REMARK    6  A    between atoms: C3*_19  and  O3*_20
REMARK    7  A    between atoms: C2*_21  and  O2*_22
REMARK                            x       y       z     vdW  Elec       q    Type
REMARK                         _______ _______ _______ _____ _____    ______ ____
ROOT
ATOM      1  C   UNL     1       2.238   3.471  21.737  0.00  0.00    +0.000 C 
ATOM      2  N   UNL     1       2.376   3.746  20.296  0.00  0.00    +0.000 N 
ATOM      3  C   UNL     1       1.647   2.779  19.460  0.00  0.00    +0.000 C 
ATOM      4  C   UNL     1       2.258   5.070  19.957  0.00  0.00    +0.000 A 
ATOM      5  N   UNL     1       1.642   6.002  20.662  0.00  0.00    +0.000 NA
ATOM      6  C   UNL     1       1.752   7.166  19.934  0.00  0.00    +0.000 A 
ATOM      7  C   UNL     1       1.255   8.467  20.131  0.00  0.00    +0.000 A 
ATOM      8  N   UNL     1       0.434   8.835  21.189  0.00  0.00    +0.000 N 
ATOM      9  N   UNL     1       1.583   9.429  19.243  0.00  0.00    +0.000 NA
ATOM     10  C   UNL     1       2.351   9.091  18.191  0.00  0.00    +0.000 A 
ATOM     11  N   UNL     1       2.860   7.884  17.892  0.00  0.00    +0.000 NA
ATOM     12  C   UNL     1       2.517   6.955  18.800  0.00  0.00    +0.000 A 
ATOM     13  N   UNL     1       2.819   5.615  18.809  0.00  0.00    +0.000 N 
ATOM     14  H   UNL     1       0.504   8.230  21.996  0.00  0.00    +0.000 HD
ATOM     15  H   UNL     1       0.436   9.835  21.337  0.00  0.00    +0.000 HD
ENDROOT
BRANCH  13  16
ATOM     16  C1* UNL     1       3.532   4.868  17.785  0.00  0.00    +0.000 C 
ATOM     17  O4* UNL     1       4.180   5.745  16.829  0.00  0.00    +0.000 OA
ATOM     18  C4* UNL     1       5.605   5.641  16.975  0.00  0.00    +0.000 C 
ATOM     19  C3* UNL     1       5.867   4.794  18.217  0.00  0.00    +0.000 C 
ATOM     20  C2* UNL     1       4.626   3.924  18.292  0.00  0.00    +0.000 C 
BRANCH  19  21
ATOM     21  O3* UNL     1       7.062   4.030  18.092  0.00  0.00    +0.000 OA
ATOM     22  H3* UNL     1       7.692   4.587  17.587  0.00  0.00    +0.000 HD
ENDBRANCH  19  21
BRANCH  20  23
ATOM     23  O2* UNL     1       4.808   2.794  17.407  0.00  0.00    +0.000 OA
ATOM     24  H2* UNL     1       4.573   1.981  17.894  0.00  0.00    +0.000 HD
ENDBRANCH  20  23
BRANCH  18  25
ATOM     25  C5* UNL     1       6.262   7.020  17.072  0.00  0.00    +0.000 C 
BRANCH  25  26
ATOM     26  O5* UNL     1       7.658   6.963  16.796  0.00  0.00    +0.000 OA
ATOM     27  H5* UNL     1       7.773   6.786  15.843  0.00  0.00    +0.000 HD
ENDBRANCH  25  26
ENDBRANCH  18  25
ENDBRANCH  13  16
TORSDOF 5
ENDMDL
MODEL 3
REMARK VINA RESULT:      -7.1      1.161      1.224
REMARK  Name = 
REMARK  7 active torsions:
REMARK  status: ('A' for Active; 'I' for Inactive)
REMARK    1  A    between atoms: C_1  and  N_2
REMARK    2  A    between atoms: N_2  and  C_3
REMARK    3  A    between atoms: N_13  and  C1*_14
REMARK    4  A    between atoms: C4*_16  and  C5*_17
REMARK    5  A    between atoms: C5*_17  and  O5*_18
REMARK    6  A    between atoms: C3*_19  and  O3*_20
REMARK    7  A    between atoms: C2*_21  and  O2*_22
REMARK                            x       y       z     vdW  Elec       q    Type
REMARK                         _______ _______ _______ _____ _____    ______ ____
ROOT
ATOM      1  C   UNL     1       5.579   5.460  14.905  0.00  0.00    +0.000 C 
ATOM      2  N   UNL     1       5.515   4.932  16.278  0.00  0.00    +0.000 N 
ATOM      3  C   UNL     1       6.844   4.646  16.841  0.00  0.00    +0.000 C 
ATOM      4  C   UNL     1       4.625   5.582  17.095  0.00  0.00    +0.000 A 
ATOM      5  N   UNL     1       4.175   6.814  16.933  0.00  0.00    +0.000 NA
ATOM      6  C   UNL     1       3.329   7.054  17.993  0.00  0.00    +0.000 A 
ATOM      7  C   UNL     1       2.605   8.189  18.399  0.00  0.00    +0.000 A 
ATOM      8  N   UNL     1       2.659   9.419  17.756  0.00  0.00    +0.000 N 
ATOM      9  N   UNL     1       1.805   8.096  19.483  0.00  0.00    +0.000 NA
ATOM     10  C   UNL     1       1.759   6.924  20.143  0.00  0.00    +0.000 A 
ATOM     11  N   UNL     1       2.420   5.790  19.861  0.00  0.00    +0.000 NA
ATOM     12  C   UNL     1       3.201   5.919  18.775  0.00  0.00    +0.000 A 
ATOM     13  N   UNL     1       4.043   4.992  18.210  0.00  0.00    +0.000 N 
ATOM     14  H   UNL     1       2.951   9.367  16.790  0.00  0.00    +0.000 HD
ATOM     15  H   UNL     1       1.865  10.001  17.987  0.00  0.00    +0.000 HD
ENDROOT
BRANCH  13  16
ATOM     16  C1* UNL     1       4.341   3.657  18.708  0.00  0.00    +0.000 C 
ATOM     17  O4* UNL     1       4.153   3.561  20.142  0.00  0.00    +0.000 OA
ATOM     18  C4* UNL     1       3.032   2.707  20.420  0.00  0.00    +0.000 C 
ATOM     19  C3* UNL     1       2.363   2.398  19.084  0.00  0.00    +0.000 C 
ATOM     20  C2* UNL     1       3.513   2.522  18.101  0.00  0.00    +0.000 C 
BRANCH  19  21
ATOM     21  O3* UNL     1       1.775   1.101  19.074  0.00  0.00    +0.000 OA
ATOM     22  H3* UNL     1       2.425   0.502  19.499  0.00  0.00    +0.000 HD
ENDBRANCH  19  21
BRANCH  20  23
ATOM     23  O2* UNL     1       4.243   1.274  18.094  0.00  0.00    +0.000 OA
ATOM     24  H2* UNL     1       3.702   0.598  18.545  0.00  0.00    +0.000 HD
ENDBRANCH  20  23
BRANCH  18  25
ATOM     25  C5* UNL     1       2.062   3.355  21.411  0.00  0.00    +0.000 C 
BRANCH  25  26
ATOM     26  O5* UNL     1       0.735   3.406  20.897  0.00  0.00    +0.000 OA
ATOM     27  H5* UNL     1       0.601   2.630  20.319  0.00  0.00    +0.000 HD
ENDBRANCH  25  26
ENDBRANCH  18  25
ENDBRANCH  13  16
TORSDOF 5
ENDMDL
MODEL 4
REMARK VINA RESULT:      -6.9      2.565      4.507
REMARK  Name = 
REMARK  7 active torsions:
REMARK  status: ('A' for Active; 'I' for Inactive)
REMARK    1  A    between atoms: C_1  and  N_2
REMARK    2  A    between atoms: N_2  and  C_3
REMARK    3  A    between atoms: N_13  and  C1*_14
REMARK    4  A    between atoms: C4*_16  and  C5*_17
REMARK    5  A    between atoms: C5*_17  and  O5*_18
REMARK    6  A    between atoms: C3*_19  and  O3*_20
REMARK    7  A    between atoms: C2*_21  and  O2*_22
REMARK                            x       y       z     vdW  Elec       q    Type
REMARK                         _______ _______ _______ _____ _____    ______ ____
ROOT
ATOM      1  C   UNL     1       3.945   2.560  20.428  0.00  0.00    +0.000 C 
ATOM      2  N   UNL     1       3.928   3.165  19.085  0.00  0.00    +0.000 N 
ATOM      3  C   UNL     1       3.387   2.259  18.059  0.00  0.00    +0.000 C 
ATOM      4  C   UNL     1       3.492   4.465  19.053  0.00  0.00    +0.000 A 
ATOM      5  N   UNL     1       2.726   5.052  19.956  0.00  0.00    +0.000 NA
ATOM      6  C   UNL     1       2.525   6.338  19.508  0.00  0.00    +0.000 A 
ATOM      7  C   UNL     1       1.758   7.412  19.998  0.00  0.00    +0.000 A 
ATOM      8  N   UNL     1       0.943   7.338  21.119  0.00  0.00    +0.000 N 
ATOM      9  N   UNL     1       1.805   8.593  19.345  0.00  0.00    +0.000 NA
ATOM     10  C   UNL     1       2.563   8.681  18.237  0.00  0.00    +0.000 A 
ATOM     11  N   UNL     1       3.312   7.722  17.670  0.00  0.00    +0.000 NA
ATOM     12  C   UNL     1       3.245   6.564  18.348  0.00  0.00    +0.000 A 
ATOM     13  N   UNL     1       3.843   5.362  18.052  0.00  0.00    +0.000 N 
ATOM     14  H   UNL     1       1.197   6.607  21.768  0.00  0.00    +0.000 HD
ATOM     15  H   UNL     1       0.727   8.255  21.488  0.00  0.00    +0.000 HD
ENDROOT
BRANCH  13  16
ATOM     16  C1* UNL     1       4.643   5.044  16.880  0.00  0.00    +0.000 C 
ATOM     17  O4* UNL     1       5.329   6.211  16.361  0.00  0.00    +0.000 OA
ATOM     18  C4* UNL     1       6.744   6.061  16.561  0.00  0.00    +0.000 C 
ATOM     19  C3* UNL     1       6.945   4.817  17.421  0.00  0.00    +0.000 C 
ATOM     20  C2* UNL     1       5.725   3.980  17.082  0.00  0.00    +0.000 C 
BRANCH  19  21
ATOM     21  O3* UNL     1       8.165   4.152  17.111  0.00  0.00    +0.000 OA
ATOM     22  H3* UNL     1       7.920   3.244  16.832  0.00  0.00    +0.000 HD
ENDBRANCH  19  21
BRANCH  20  23
ATOM     23  O2* UNL     1       5.995   3.254  15.861  0.00  0.00    +0.000 OA
ATOM     24  H2* UNL     1       5.558   2.383  15.917  0.00  0.00    +0.000 HD
ENDBRANCH  20  23
BRANCH  18  25
ATOM     25  C5* UNL     1       7.356   7.308  17.203  0.00  0.00    +0.000 C 
BRANCH  25  26
ATOM     26  O5* UNL     1       8.047   6.998  18.409  0.00  0.00    +0.000 OA
ATOM     27  H5* UNL     1       8.861   6.509  18.178  0.00  0.00    +0.000 HD
ENDBRANCH  25  26
ENDBRANCH  18  25
ENDBRANCH  13  16
TORSDOF 5
ENDMDL
MODEL 5
REMARK VINA RESULT:      -6.1      2.741      5.130
REMARK  Name = 
REMARK  7 active torsions:
REMARK  status: ('A' for Active; 'I' for Inactive)
REMARK    1  A    between atoms: C_1  and  N_2
REMARK    2  A    between atoms: N_2  and  C_3
REMARK    3  A    between atoms: N_13  and  C1*_14
REMARK    4  A    between atoms: C4*_16  and  C5*_17
REMARK    5  A    between atoms: C5*_17  and  O5*_18
REMARK    6  A    between atoms: C3*_19  and  O3*_20
REMARK    7  A    between atoms: C2*_21  and  O2*_22
REMARK                            x       y       z     vdW  Elec       q    Type
REMARK                         _______ _______ _______ _____ _____    ______ ____
ROOT
ATOM      1  C   UNL     1       0.957   8.159  17.796  0.00  0.00    +0.000 C 
ATOM      2  N   UNL     1       2.396   7.849  17.728  0.00  0.00    +0.000 N 
ATOM      3  C   UNL     1       3.244   9.005  18.058  0.00  0.00    +0.000 C 
ATOM      4  C   UNL     1       2.744   6.646  18.288  0.00  0.00    +0.000 A 
ATOM      5  N   UNL     1       2.059   5.986  19.205  0.00  0.00    +0.000 NA
ATOM      6  C   UNL     1       2.789   4.854  19.486  0.00  0.00    +0.000 A 
ATOM      7  C   UNL     1       2.611   3.805  20.407  0.00  0.00    +0.000 A 
ATOM      8  N   UNL     1       1.574   3.747  21.329  0.00  0.00    +0.000 N 
ATOM      9  N   UNL     1       3.496   2.786  20.410  0.00  0.00    +0.000 NA
ATOM     10  C   UNL     1       4.528   2.834  19.548  0.00  0.00    +0.000 A 
ATOM     11  N   UNL     1       4.808   3.789  18.647  0.00  0.00    +0.000 NA
ATOM     12  C   UNL     1       3.905   4.783  18.669  0.00  0.00    +0.000 A 
ATOM     13  N   UNL     1       3.882   5.937  17.923  0.00  0.00    +0.000 N 
ATOM     14  H   UNL     1       0.763   4.293  21.074  0.00  0.00    +0.000 HD
ATOM     15  H   UNL     1       1.431   2.808  21.677  0.00  0.00    +0.000 HD
ENDROOT
BRANCH  13  16
ATOM     16  C1* UNL     1       4.885   6.388  16.971  0.00  0.00    +0.000 C 
ATOM     17  O4* UNL     1       5.962   7.107  17.622  0.00  0.00    +0.000 OA
ATOM     18  C4* UNL     1       7.171   6.335  17.538  0.00  0.00    +0.000 C 
ATOM     19  C3* UNL     1       6.792   4.972  16.968  0.00  0.00    +0.000 C 
ATOM     20  C2* UNL     1       5.557   5.289  16.144  0.00  0.00    +0.000 C 
BRANCH  19  21
ATOM     21  O3* UNL     1       7.843   4.417  16.184  0.00  0.00    +0.000 OA
ATOM     22  H3* UNL     1       8.547   5.099  16.146  0.00  0.00    +0.000 HD
ENDBRANCH  19  21
BRANCH  20  23
ATOM     23  O2* UNL     1       5.985   5.779  14.852  0.00  0.00    +0.000 OA
ATOM     24  H2* UNL     1       5.438   6.553  14.620  0.00  0.00    +0.000 HD
ENDBRANCH  20  23
BRANCH  18  25
ATOM     25  C5* UNL     1       7.858   6.217  18.900  0.00  0.00    +0.000 C 
BRANCH  25  26
ATOM     26  O5* UNL     1       7.119   5.393  19.797  0.00  0.00    +0.000 OA
ATOM     27  H5* UNL     1       7.004   4.517  19.382  0.00  0.00    +0.000 HD
ENDBRANCH  25  26
ENDBRANCH  18  25
ENDBRANCH  13  16
TORSDOF 5
ENDMDL
MODEL 6
REMARK VINA RESULT:      -5.7      2.587      4.748
REMARK  Name = 
REMARK  7 active torsions:
REMARK  status: ('A' for Active; 'I' for Inactive)
REMARK    1  A    between atoms: C_1  and  N_2
REMARK    2  A    between atoms: N_2  and  C_3
REMARK    3  A    between atoms: N_13  and  C1*_14
REMARK    4  A    between atoms: C4*_16  and  C5*_17
REMARK    5  A    between atoms: C5*_17  and  O5*_18
REMARK    6  A    between atoms: C3*_19  and  O3*_20
REMARK    7  A    between atoms: C2*_21  and  O2*_22
REMARK                            x       y       z     vdW  Elec       q    Type
REMARK                         _______ _______ _______ _____ _____    ______ ____
ROOT
ATOM      1  C   UNL     1       4.037   1.798  21.182  0.00  0.00    +0.000 C 
ATOM      2  N   UNL     1       4.398   2.277  19.837  0.00  0.00    +0.000 N 
ATOM      3  C   UNL     1       4.141   1.276  18.789  0.00  0.00    +0.000 C 
ATOM      4  C   UNL     1       4.010   3.565  19.569  0.00  0.00    +0.000 A 
ATOM      5  N   UNL     1       3.037   4.226  20.171  0.00  0.00    +0.000 NA
ATOM      6  C   UNL     1       2.988   5.464  19.570  0.00  0.00    +0.000 A 
ATOM      7  C   UNL     1       2.136   6.572  19.732  0.00  0.00    +0.000 A 
ATOM      8  N   UNL     1       1.044   6.596  20.590  0.00  0.00    +0.000 N 
ATOM      9  N   UNL     1       2.379   7.689  19.013  0.00  0.00    +0.000 NA
ATOM     10  C   UNL     1       3.413   7.680  18.152  0.00  0.00    +0.000 A 
ATOM     11  N   UNL     1       4.271   6.679  17.900  0.00  0.00    +0.000 NA
ATOM     12  C   UNL     1       4.002   5.588  18.636  0.00  0.00    +0.000 A 
ATOM     13  N   UNL     1       4.637   4.369  18.626  0.00  0.00    +0.000 N 
ATOM     14  H   UNL     1       1.099   5.929  21.347  0.00  0.00    +0.000 HD
ATOM     15  H   UNL     1       0.752   7.540  20.801  0.00  0.00    +0.000 HD
ENDROOT
BRANCH  13  16
ATOM     16  C1* UNL     1       5.720   3.951  17.750  0.00  0.00    +0.000 C 
ATOM     17  O4* UNL     1       5.299   3.882  16.364  0.00  0.00    +0.000 OA
ATOM     18  C4* UNL     1       5.961   4.912  15.613  0.00  0.00    +0.000 C 
ATOM     19  C3* UNL     1       6.696   5.796  16.616  0.00  0.00    +0.000 C 
ATOM     20  C2* UNL     1       6.966   4.840  17.764  0.00  0.00    +0.000 C 
BRANCH  19  21
ATOM     21  O3* UNL     1       7.892   6.338  16.065  0.00  0.00    +0.000 OA
ATOM     22  H3* UNL     1       8.614   6.094  16.682  0.00  0.00    +0.000 HD
ENDBRANCH  19  21
BRANCH  20  23
ATOM     23  O2* UNL     1       8.163   4.087  17.458  0.00  0.00    +0.000 OA
ATOM     24  H2* UNL     1       7.985   3.531  16.675  0.00  0.00    +0.000 HD
ENDBRANCH  20  23
BRANCH  18  25
ATOM     25  C5* UNL     1       4.972   5.710  14.761  0.00  0.00    +0.000 C 
BRANCH  25  26
ATOM     26  O5* UNL     1       5.042   7.106  15.036  0.00  0.00    +0.000 OA
ATOM     27  H5* UNL     1       5.533   7.228  15.872  0.00  0.00    +0.000 HD
ENDBRANCH  25  26
ENDBRANCH  18  25
ENDBRANCH  13  16
TORSDOF 5
ENDMDL
MODEL 7
REMARK VINA RESULT:      -5.7      9.412     11.544
REMARK  Name = 
REMARK  7 active torsions:
REMARK  status: ('A' for Active; 'I' for Inactive)
REMARK    1  A    between atoms: C_1  and  N_2
REMARK    2  A    between atoms: N_2  and  C_3
REMARK    3  A    between atoms: N_13  and  C1*_14
REMARK    4  A    between atoms: C4*_16  and  C5*_17
REMARK    5  A    between atoms: C5*_17  and  O5*_18
REMARK    6  A    between atoms: C3*_19  and  O3*_20
REMARK    7  A    between atoms: C2*_21  and  O2*_22
REMARK                            x       y       z     vdW  Elec       q    Type
REMARK                         _______ _______ _______ _____ _____    ______ ____
ROOT
ATOM      1  C   UNL     1      -1.066  11.754  20.542  0.00  0.00    +0.000 C 
ATOM      2  N   UNL     1      -2.036  12.769  20.987  0.00  0.00    +0.000 N 
ATOM      3  C   UNL     1      -1.450  14.117  21.075  0.00  0.00    +0.000 C 
ATOM      4  C   UNL     1      -3.272  12.671  20.399  0.00  0.00    +0.000 A 
ATOM      5  N   UNL     1      -3.540  12.089  19.243  0.00  0.00    +0.000 NA
ATOM      6  C   UNL     1      -4.892  12.248  19.041  0.00  0.00    +0.000 A 
ATOM      7  C   UNL     1      -5.747  11.903  17.978  0.00  0.00    +0.000 A 
ATOM      8  N   UNL     1      -5.319  11.318  16.793  0.00  0.00    +0.000 N 
ATOM      9  N   UNL     1      -7.068  12.153  18.099  0.00  0.00    +0.000 NA
ATOM     10  C   UNL     1      -7.504  12.749  19.224  0.00  0.00    +0.000 A 
ATOM     11  N   UNL     1      -6.781  13.141  20.286  0.00  0.00    +0.000 NA
ATOM     12  C   UNL     1      -5.474  12.871  20.132  0.00  0.00    +0.000 A 
ATOM     13  N   UNL     1      -4.434  13.156  20.984  0.00  0.00    +0.000 N 
ATOM     14  H   UNL     1      -4.440  10.826  16.870  0.00  0.00    +0.000 HD
ATOM     15  H   UNL     1      -6.079  10.870  16.298  0.00  0.00    +0.000 HD
ENDROOT
BRANCH  13  16
ATOM     16  C1* UNL     1      -4.503  13.889  22.239  0.00  0.00    +0.000 C 
ATOM     17  O4* UNL     1      -5.871  14.175  22.624  0.00  0.00    +0.000 OA
ATOM     18  C4* UNL     1      -6.204  13.420  23.799  0.00  0.00    +0.000 C 
ATOM     19  C3* UNL     1      -5.044  12.463  24.061  0.00  0.00    +0.000 C 
ATOM     20  C2* UNL     1      -3.865  13.198  23.447  0.00  0.00    +0.000 C 
BRANCH  19  21
ATOM     21  O3* UNL     1      -4.868  12.215  25.451  0.00  0.00    +0.000 OA
ATOM     22  H3* UNL     1      -5.600  11.620  25.719  0.00  0.00    +0.000 HD
ENDBRANCH  19  21
BRANCH  20  23
ATOM     23  O2* UNL     1      -3.373  14.156  24.412  0.00  0.00    +0.000 OA
ATOM     24  H2* UNL     1      -3.434  13.757  25.301  0.00  0.00    +0.000 HD
ENDBRANCH  20  23
BRANCH  18  25
ATOM     25  C5* UNL     1      -7.533  12.678  23.634  0.00  0.00    +0.000 C 
BRANCH  25  26
ATOM     26  O5* UNL     1      -7.415  11.299  23.970  0.00  0.00    +0.000 OA
ATOM     27  H5* UNL     1      -7.775  10.773  23.230  0.00  0.00    +0.000 HD
ENDBRANCH  25  26
ENDBRANCH  18  25
ENDBRANCH  13  16
TORSDOF 5
ENDMDL
MODEL 8
REMARK VINA RESULT:      -5.5      1.764      4.424
REMARK  Name = 
REMARK  7 active torsions:
REMARK  status: ('A' for Active; 'I' for Inactive)
REMARK    1  A    between atoms: C_1  and  N_2
REMARK    2  A    between atoms: N_2  and  C_3
REMARK    3  A    between atoms: N_13  and  C1*_14
REMARK    4  A    between atoms: C4*_16  and  C5*_17
REMARK    5  A    between atoms: C5*_17  and  O5*_18
REMARK    6  A    between atoms: C3*_19  and  O3*_20
REMARK    7  A    between atoms: C2*_21  and  O2*_22
REMARK                            x       y       z     vdW  Elec       q    Type
REMARK                         _______ _______ _______ _____ _____    ______ ____
ROOT
ATOM      1  C   UNL     1       2.242   7.978  19.371  0.00  0.00    +0.000 C 
ATOM      2  N   UNL     1       2.216   6.814  18.469  0.00  0.00    +0.000 N 
ATOM      3  C   UNL     1       1.146   6.898  17.461  0.00  0.00    +0.000 C 
ATOM      4  C   UNL     1       3.450   6.410  18.027  0.00  0.00    +0.000 A 
ATOM      5  N   UNL     1       4.539   7.157  17.968  0.00  0.00    +0.000 NA
ATOM      6  C   UNL     1       5.526   6.352  17.445  0.00  0.00    +0.000 A 
ATOM      7  C   UNL     1       6.867   6.591  17.093  0.00  0.00    +0.000 A 
ATOM      8  N   UNL     1       7.485   7.832  17.177  0.00  0.00    +0.000 N 
ATOM      9  N   UNL     1       7.612   5.560  16.639  0.00  0.00    +0.000 NA
ATOM     10  C   UNL     1       7.028   4.355  16.518  0.00  0.00    +0.000 A 
ATOM     11  N   UNL     1       5.759   4.019  16.800  0.00  0.00    +0.000 NA
ATOM     12  C   UNL     1       5.050   5.067  17.253  0.00  0.00    +0.000 A 
ATOM     13  N   UNL     1       3.723   5.114  17.607  0.00  0.00    +0.000 N 
ATOM     14  H   UNL     1       7.050   8.466  17.831  0.00  0.00    +0.000 HD
ATOM     15  H   UNL     1       8.493   7.751  17.184  0.00  0.00    +0.000 HD
ENDROOT
BRANCH  13  16
ATOM     16  C1* UNL     1       2.747   4.041  17.503  0.00  0.00    +0.000 C 
ATOM     17  O4* UNL     1       3.382   2.742  17.395  0.00  0.00    +0.000 OA
ATOM     18  C4* UNL     1       3.123   1.983  18.586  0.00  0.00    +0.000 C 
ATOM     19  C3* UNL     1       2.446   2.924  19.578  0.00  0.00    +0.000 C 
ATOM     20  C2* UNL     1       1.759   3.926  18.668  0.00  0.00    +0.000 C 
BRANCH  19  21
ATOM     21  O3* UNL     1       1.528   2.233  20.419  0.00  0.00    +0.000 OA
ATOM     22  H3* UNL     1       1.028   1.623  19.837  0.00  0.00    +0.000 HD
ENDBRANCH  19  21
BRANCH  20  23
ATOM     23  O2* UNL     1       0.496   3.365  18.243  0.00  0.00    +0.000 OA
ATOM     24  H2* UNL     1      -0.210   4.008  18.445  0.00  0.00    +0.000 HD
ENDBRANCH  20  23
BRANCH  18  25
ATOM     25  C5* UNL     1       4.407   1.376  19.157  0.00  0.00    +0.000 C 
BRANCH  25  26
ATOM     26  O5* UNL     1       5.302   2.378  19.631  0.00  0.00    +0.000 OA
ATOM     27  H5* UNL     1       6.090   1.933  19.999  0.00  0.00    +0.000 HD
ENDBRANCH  25  26
ENDBRANCH  18  25
ENDBRANCH  13  16
TORSDOF 5
ENDMDL
MODEL 9
REMARK VINA RESULT:      -5.5      2.562      4.691
REMARK  Name = 
REMARK  7 active torsions:
REMARK  status: ('A' for Active; 'I' for Inactive)
REMARK    1  A    between atoms: C_1  and  N_2
REMARK    2  A    between atoms: N_2  and  C_3
REMARK    3  A    between atoms: N_13  and  C1*_14
REMARK    4  A    between atoms: C4*_16  and  C5*_17
REMARK    5  A    between atoms: C5*_17  and  O5*_18
REMARK    6  A    between atoms: C3*_19  and  O3*_20
REMARK    7  A    between atoms: C2*_21  and  O2*_22
REMARK                            x       y       z     vdW  Elec       q    Type
REMARK                         _______ _______ _______ _____ _____    ______ ____
ROOT
ATOM      1  C   UNL     1       3.439   2.566  21.099  0.00  0.00    +0.000 C 
ATOM      2  N   UNL     1       4.001   2.793  19.756  0.00  0.00    +0.000 N 
ATOM      3  C   UNL     1       3.704   1.695  18.822  0.00  0.00    +0.000 C 
ATOM      4  C   UNL     1       3.838   4.069  19.281  0.00  0.00    +0.000 A 
ATOM      5  N   UNL     1       2.920   4.935  19.672  0.00  0.00    +0.000 NA
ATOM      6  C   UNL     1       3.117   6.068  18.916  0.00  0.00    +0.000 A 
ATOM      7  C   UNL     1       2.428   7.292  18.831  0.00  0.00    +0.000 A 
ATOM      8  N   UNL     1       1.272   7.586  19.541  0.00  0.00    +0.000 N 
ATOM      9  N   UNL     1       2.907   8.251  18.009  0.00  0.00    +0.000 NA
ATOM     10  C   UNL     1       4.008   7.979  17.285  0.00  0.00    +0.000 A 
ATOM     11  N   UNL     1       4.728   6.846  17.269  0.00  0.00    +0.000 NA
ATOM     12  C   UNL     1       4.226   5.919  18.102  0.00  0.00    +0.000 A 
ATOM     13  N   UNL     1       4.670   4.637  18.324  0.00  0.00    +0.000 N 
ATOM     14  H   UNL     1       1.150   7.034  20.379  0.00  0.00    +0.000 HD
ATOM     15  H   UNL     1       1.104   8.582  19.593  0.00  0.00    +0.000 HD
ENDROOT
BRANCH  13  16
ATOM     16  C1* UNL     1       5.761   3.955  17.645  0.00  0.00    +0.000 C 
ATOM     17  O4* UNL     1       5.334   3.368  16.391  0.00  0.00    +0.000 OA
ATOM     18  C4* UNL     1       5.958   4.065  15.301  0.00  0.00    +0.000 C 
ATOM     19  C3* UNL     1       6.670   5.277  15.894  0.00  0.00    +0.000 C 
ATOM     20  C2* UNL     1       6.978   4.821  17.308  0.00  0.00    +0.000 C 
BRANCH  19  21
ATOM     21  O3* UNL     1       7.844   5.611  15.161  0.00  0.00    +0.000 OA
ATOM     22  H3* UNL     1       8.503   4.915  15.367  0.00  0.00    +0.000 HD
ENDBRANCH  19  21
BRANCH  20  23
ATOM     23  O2* UNL     1       8.196   4.042  17.281  0.00  0.00    +0.000 OA
ATOM     24  H2* UNL     1       7.998   3.148  17.619  0.00  0.00    +0.000 HD
ENDBRANCH  20  23
BRANCH  18  25
ATOM     25  C5* UNL     1       4.938   4.465  14.232  0.00  0.00    +0.000 C 
BRANCH  25  26
ATOM     26  O5* UNL     1       5.188   3.813  12.991  0.00  0.00    +0.000 OA
ATOM     27  H5* UNL     1       5.240   2.852  13.156  0.00  0.00    +0.000 HD
ENDBRANCH  25  26
ENDBRANCH  18  25
ENDBRANCH  13  16
TORSDOF 5
ENDMDL
