MODEL 1
REMARK VINA RESULT:      -7.0      0.000      0.000
REMARK  Name = 
REMARK  3 active torsions:
REMARK  status: ('A' for Active; 'I' for Inactive)
REMARK    1  A    between atoms: C_1  and  N_2
REMARK    2  A    between atoms: C_5  and  C_6
REMARK    3  A    between atoms: C_12  and  C_13
REMARK                            x       y       z     vdW  Elec       q    Type
REMARK                         _______ _______ _______ _____ _____    ______ ____
ROOT
ATOM      1  C   UNL     1       4.422   3.924  18.800  0.00  0.00    +0.000 A 
ATOM      2  C   UNL     1       4.270   2.775  19.545  0.00  0.00    +0.000 A 
ATOM      3  N   UNL     1       3.269   2.996  20.456  0.00  0.00    +0.000 N 
ATOM      4  C   UNL     1       2.772   4.272  20.316  0.00  0.00    +0.000 A 
ATOM      5  C   UNL     1       1.756   4.925  21.020  0.00  0.00    +0.000 A 
ATOM      6  C   UNL     1       1.454   6.241  20.658  0.00  0.00    +0.000 A 
ATOM      7  C   UNL     1       2.148   6.901  19.633  0.00  0.00    +0.000 A 
ATOM      8  C   UNL     1       3.165   6.216  18.942  0.00  0.00    +0.000 A 
ATOM      9  C   UNL     1       3.481   4.885  19.280  0.00  0.00    +0.000 A 
ATOM     10  H   UNL     1       2.943   2.325  21.136  0.00  0.00    +0.000 HD
ENDROOT
BRANCH   1  15
ATOM     11  C   UNL     1       7.195   5.609  14.622  0.00  0.00    +0.000 C 
ATOM     12  N   UNL     1       7.189   4.439  15.482  0.00  0.00    +0.000 NA
ATOM     13  C   UNL     1       7.623   4.706  16.848  0.00  0.00    +0.000 C 
ATOM     14  C   UNL     1       6.604   4.575  17.932  0.00  0.00    +0.000 C 
ATOM     15  C   UNL     1       5.374   4.081  17.748  0.00  0.00    +0.000 C 
ATOM     16  C   UNL     1       4.909   3.626  16.398  0.00  0.00    +0.000 C 
ATOM     17  C   UNL     1       6.016   3.580  15.325  0.00  0.00    +0.000 C 
ENDBRANCH   1  15
BRANCH   7  18
ATOM     18  C   UNL     1       1.815   8.279  19.255  0.00  0.00    +0.000 A 
ATOM     19  C   UNL     1       2.151   8.949  18.030  0.00  0.00    +0.000 A 
ATOM     20  C   UNL     1       1.696  10.248  17.987  0.00  0.00    +0.000 A 
ATOM     21  S   UNL     1       0.866  10.682  19.414  0.00  0.00    +0.000 S 
ATOM     22  C   UNL     1       1.122   9.131  20.097  0.00  0.00    +0.000 A 
ENDBRANCH   7  18
TORSDOF 2
ENDMDL
MODEL 2
REMARK VINA RESULT:      -7.0      0.999      1.367
REMARK  Name = 
REMARK  3 active torsions:
REMARK  status: ('A' for Active; 'I' for Inactive)
REMARK    1  A    between atoms: C_1  and  N_2
REMARK    2  A    between atoms: C_5  and  C_6
REMARK    3  A    between atoms: C_12  and  C_13
REMARK                            x       y       z     vdW  Elec       q    Type
REMARK                         _______ _______ _______ _____ _____    ______ ____
ROOT
ATOM      1  C   UNL     1       4.262   4.202  18.375  0.00  0.00    +0.000 A 
ATOM      2  C   UNL     1       4.239   2.900  18.825  0.00  0.00    +0.000 A 
ATOM      3  N   UNL     1       3.334   2.827  19.853  0.00  0.00    +0.000 N 
ATOM      4  C   UNL     1       2.772   4.064  20.079  0.00  0.00    +0.000 A 
ATOM      5  C   UNL     1       1.811   4.458  21.016  0.00  0.00    +0.000 A 
ATOM      6  C   UNL     1       1.417   5.799  21.020  0.00  0.00    +0.000 A 
ATOM      7  C   UNL     1       1.968   6.732  20.128  0.00  0.00    +0.000 A 
ATOM      8  C   UNL     1       2.933   6.303  19.197  0.00  0.00    +0.000 A 
ATOM      9  C   UNL     1       3.339   4.954  19.165  0.00  0.00    +0.000 A 
ATOM     10  H   UNL     1       3.112   1.992  20.374  0.00  0.00    +0.000 HD
ENDROOT
BRANCH   1  15
ATOM     11  C   UNL     1       7.109   4.683  13.943  0.00  0.00    +0.000 C 
ATOM     12  N   UNL     1       6.866   5.479  15.133  0.00  0.00    +0.000 NA
ATOM     13  C   UNL     1       5.507   5.998  15.231  0.00  0.00    +0.000 C 
ATOM     14  C   UNL     1       4.645   5.467  16.328  0.00  0.00    +0.000 C 
ATOM     15  C   UNL     1       5.086   4.671  17.310  0.00  0.00    +0.000 C 
ATOM     16  C   UNL     1       6.518   4.229  17.372  0.00  0.00    +0.000 C 
ATOM     17  C   UNL     1       7.445   4.928  16.358  0.00  0.00    +0.000 C 
ENDBRANCH   1  15
BRANCH   7  18
ATOM     18  C   UNL     1       1.539   8.135  20.135  0.00  0.00    +0.000 A 
ATOM     19  C   UNL     1       1.469   9.027  19.012  0.00  0.00    +0.000 A 
ATOM     20  C   UNL     1       1.032  10.287  19.355  0.00  0.00    +0.000 A 
ATOM     21  S   UNL     1       0.704  10.417  21.025  0.00  0.00    +0.000 S 
ATOM     22  C   UNL     1       1.156   8.787  21.294  0.00  0.00    +0.000 A 
ENDBRANCH   7  18
TORSDOF 2
ENDMDL
MODEL 3
REMARK VINA RESULT:      -6.8      1.653      2.193
REMARK  Name = 
REMARK  3 active torsions:
REMARK  status: ('A' for Active; 'I' for Inactive)
REMARK    1  A    between atoms: C_1  and  N_2
REMARK    2  A    between atoms: C_5  and  C_6
REMARK    3  A    between atoms: C_12  and  C_13
REMARK                            x       y       z     vdW  Elec       q    Type
REMARK                         _______ _______ _______ _____ _____    ______ ____
ROOT
ATOM      1  C   UNL     1       4.579   4.421  19.085  0.00  0.00    +0.000 A 
ATOM      2  C   UNL     1       4.502   3.045  19.080  0.00  0.00    +0.000 A 
ATOM      3  N   UNL     1       3.281   2.692  19.593  0.00  0.00    +0.000 N 
ATOM      4  C   UNL     1       2.565   3.818  19.936  0.00  0.00    +0.000 A 
ATOM      5  C   UNL     1       1.286   3.939  20.487  0.00  0.00    +0.000 A 
ATOM      6  C   UNL     1       0.802   5.227  20.734  0.00  0.00    +0.000 A 
ATOM      7  C   UNL     1       1.569   6.369  20.454  0.00  0.00    +0.000 A 
ATOM      8  C   UNL     1       2.852   6.213  19.899  0.00  0.00    +0.000 A 
ATOM      9  C   UNL     1       3.359   4.925  19.630  0.00  0.00    +0.000 A 
ATOM     10  H   UNL     1       2.950   1.745  19.710  0.00  0.00    +0.000 HD
ENDROOT
BRANCH   1  15
ATOM     11  C   UNL     1       7.921   8.238  17.588  0.00  0.00    +0.000 C 
ATOM     12  N   UNL     1       7.905   6.786  17.579  0.00  0.00    +0.000 NA
ATOM     13  C   UNL     1       7.973   6.185  18.906  0.00  0.00    +0.000 C 
ATOM     14  C   UNL     1       6.770   5.444  19.388  0.00  0.00    +0.000 C 
ATOM     15  C   UNL     1       5.706   5.165  18.625  0.00  0.00    +0.000 C 
ATOM     16  C   UNL     1       5.635   5.605  17.194  0.00  0.00    +0.000 C 
ATOM     17  C   UNL     1       6.948   6.198  16.644  0.00  0.00    +0.000 C 
ENDBRANCH   1  15
BRANCH   7  18
ATOM     18  C   UNL     1       1.046   7.716  20.708  0.00  0.00    +0.000 A 
ATOM     19  C   UNL     1       0.123   8.109  21.735  0.00  0.00    +0.000 A 
ATOM     20  C   UNL     1      -0.176   9.454  21.700  0.00  0.00    +0.000 A 
ATOM     21  S   UNL     1       0.641  10.257  20.435  0.00  0.00    +0.000 S 
ATOM     22  C   UNL     1       1.391   8.803  19.925  0.00  0.00    +0.000 A 
ENDBRANCH   7  18
TORSDOF 2
ENDMDL
MODEL 4
REMARK VINA RESULT:      -6.7      3.918      8.173
REMARK  Name = 
REMARK  3 active torsions:
REMARK  status: ('A' for Active; 'I' for Inactive)
REMARK    1  A    between atoms: C_1  and  N_2
REMARK    2  A    between atoms: C_5  and  C_6
REMARK    3  A    between atoms: C_12  and  C_13
REMARK                            x       y       z     vdW  Elec       q    Type
REMARK                         _______ _______ _______ _____ _____    ______ ____
ROOT
ATOM      1  C   UNL     1       1.154  10.024  19.626  0.00  0.00    +0.000 A 
ATOM      2  C   UNL     1       1.368  10.869  18.559  0.00  0.00    +0.000 A 
ATOM      3  N   UNL     1       2.032  10.162  17.591  0.00  0.00    +0.000 N 
ATOM      4  C   UNL     1       2.257   8.871  18.015  0.00  0.00    +0.000 A 
ATOM      5  C   UNL     1       2.891   7.808  17.365  0.00  0.00    +0.000 A 
ATOM      6  C   UNL     1       2.976   6.588  18.044  0.00  0.00    +0.000 A 
ATOM      7  C   UNL     1       2.459   6.426  19.338  0.00  0.00    +0.000 A 
ATOM      8  C   UNL     1       1.826   7.517  19.964  0.00  0.00    +0.000 A 
ATOM      9  C   UNL     1       1.717   8.754  19.297  0.00  0.00    +0.000 A 
ATOM     10  H   UNL     1       2.321  10.530  16.697  0.00  0.00    +0.000 HD
ENDROOT
BRANCH   1  15
ATOM     11  C   UNL     1      -2.405  11.426  23.279  0.00  0.00    +0.000 C 
ATOM     12  N   UNL     1      -0.960  11.299  23.208  0.00  0.00    +0.000 NA
ATOM     13  C   UNL     1      -0.493   9.924  23.082  0.00  0.00    +0.000 C 
ATOM     14  C   UNL     1       0.165   9.536  21.799  0.00  0.00    +0.000 C 
ATOM     15  C   UNL     1       0.490  10.402  20.831  0.00  0.00    +0.000 C 
ATOM     16  C   UNL     1       0.192  11.865  20.961  0.00  0.00    +0.000 C 
ATOM     17  C   UNL     1      -0.308  12.292  22.356  0.00  0.00    +0.000 C 
ENDBRANCH   1  15
BRANCH   7  18
ATOM     18  C   UNL     1       2.546   5.139  20.035  0.00  0.00    +0.000 A 
ATOM     19  C   UNL     1       1.787   4.718  21.179  0.00  0.00    +0.000 A 
ATOM     20  C   UNL     1       2.112   3.448  21.601  0.00  0.00    +0.000 A 
ATOM     21  S   UNL     1       3.332   2.747  20.635  0.00  0.00    +0.000 S 
ATOM     22  C   UNL     1       3.434   4.148  19.654  0.00  0.00    +0.000 A 
ENDBRANCH   7  18
TORSDOF 2
ENDMDL
MODEL 5
REMARK VINA RESULT:      -6.6      2.974      6.296
REMARK  Name = 
REMARK  3 active torsions:
REMARK  status: ('A' for Active; 'I' for Inactive)
REMARK    1  A    between atoms: C_1  and  N_2
REMARK    2  A    between atoms: C_5  and  C_6
REMARK    3  A    between atoms: C_12  and  C_13
REMARK                            x       y       z     vdW  Elec       q    Type
REMARK                         _______ _______ _______ _____ _____    ______ ____
ROOT
ATOM      1  C   UNL     1       2.235   6.653  19.855  0.00  0.00    +0.000 A 
ATOM      2  C   UNL     1       1.743   6.079  21.007  0.00  0.00    +0.000 A 
ATOM      3  N   UNL     1       2.295   4.830  21.122  0.00  0.00    +0.000 N 
ATOM      4  C   UNL     1       3.136   4.582  20.060  0.00  0.00    +0.000 A 
ATOM      5  C   UNL     1       3.907   3.453  19.767  0.00  0.00    +0.000 A 
ATOM      6  C   UNL     1       4.681   3.477  18.602  0.00  0.00    +0.000 A 
ATOM      7  C   UNL     1       4.684   4.586  17.743  0.00  0.00    +0.000 A 
ATOM      8  C   UNL     1       3.898   5.708  18.067  0.00  0.00    +0.000 A 
ATOM      9  C   UNL     1       3.118   5.713  19.241  0.00  0.00    +0.000 A 
ATOM     10  H   UNL     1       2.112   4.180  21.873  0.00  0.00    +0.000 HD
ENDROOT
BRANCH   1  15
ATOM     11  C   UNL     1       2.030  11.850  18.891  0.00  0.00    +0.000 C 
ATOM     12  N   UNL     1       1.200  10.692  18.613  0.00  0.00    +0.000 NA
ATOM     13  C   UNL     1       1.787   9.758  17.659  0.00  0.00    +0.000 C 
ATOM     14  C   UNL     1       2.181   8.411  18.168  0.00  0.00    +0.000 C 
ATOM     15  C   UNL     1       1.888   7.958  19.393  0.00  0.00    +0.000 C 
ATOM     16  C   UNL     1       1.135   8.801  20.378  0.00  0.00    +0.000 C 
ATOM     17  C   UNL     1       0.563  10.107  19.792  0.00  0.00    +0.000 C 
ENDBRANCH   1  15
BRANCH   7  18
ATOM     18  C   UNL     1       5.509   4.604  16.529  0.00  0.00    +0.000 A 
ATOM     19  C   UNL     1       6.778   5.251  16.352  0.00  0.00    +0.000 A 
ATOM     20  C   UNL     1       7.293   5.085  15.085  0.00  0.00    +0.000 A 
ATOM     21  S   UNL     1       6.259   4.156  14.094  0.00  0.00    +0.000 S 
ATOM     22  C   UNL     1       5.115   3.982  15.357  0.00  0.00    +0.000 A 
ENDBRANCH   7  18
TORSDOF 2
ENDMDL
MODEL 6
REMARK VINA RESULT:      -6.5      2.891      6.197
REMARK  Name = 
REMARK  3 active torsions:
REMARK  status: ('A' for Active; 'I' for Inactive)
REMARK    1  A    between atoms: C_1  and  N_2
REMARK    2  A    between atoms: C_5  and  C_6
REMARK    3  A    between atoms: C_12  and  C_13
REMARK                            x       y       z     vdW  Elec       q    Type
REMARK                         _______ _______ _______ _____ _____    ______ ____
ROOT
ATOM      1  C   UNL     1       2.239   5.979  19.979  0.00  0.00    +0.000 A 
ATOM      2  C   UNL     1       1.739   5.266  21.047  0.00  0.00    +0.000 A 
ATOM      3  N   UNL     1       2.295   4.013  21.013  0.00  0.00    +0.000 N 
ATOM      4  C   UNL     1       3.145   3.900  19.936  0.00  0.00    +0.000 A 
ATOM      5  C   UNL     1       3.922   2.817  19.512  0.00  0.00    +0.000 A 
ATOM      6  C   UNL     1       4.705   2.986  18.366  0.00  0.00    +0.000 A 
ATOM      7  C   UNL     1       4.712   4.192  17.649  0.00  0.00    +0.000 A 
ATOM      8  C   UNL     1       3.920   5.264  18.103  0.00  0.00    +0.000 A 
ATOM      9  C   UNL     1       3.130   5.123  19.262  0.00  0.00    +0.000 A 
ATOM     10  H   UNL     1       2.108   3.276  21.676  0.00  0.00    +0.000 HD
ENDROOT
BRANCH   1  15
ATOM     11  C   UNL     1      -0.181  10.400  18.375  0.00  0.00    +0.000 C 
ATOM     12  N   UNL     1       1.124  10.043  18.902  0.00  0.00    +0.000 NA
ATOM     13  C   UNL     1       1.104   9.622  20.298  0.00  0.00    +0.000 C 
ATOM     14  C   UNL     1       1.432   8.195  20.590  0.00  0.00    +0.000 C 
ATOM     15  C   UNL     1       1.891   7.329  19.678  0.00  0.00    +0.000 C 
ATOM     16  C   UNL     1       2.100   7.736  18.251  0.00  0.00    +0.000 C 
ATOM     17  C   UNL     1       1.947   9.248  17.991  0.00  0.00    +0.000 C 
ENDBRANCH   1  15
BRANCH   7  18
ATOM     18  C   UNL     1       5.547   4.361  16.455  0.00  0.00    +0.000 A 
ATOM     19  C   UNL     1       6.809   5.040  16.366  0.00  0.00    +0.000 A 
ATOM     20  C   UNL     1       7.336   5.028  15.094  0.00  0.00    +0.000 A 
ATOM     21  S   UNL     1       6.324   4.208  13.991  0.00  0.00    +0.000 S 
ATOM     22  C   UNL     1       5.172   3.875  15.215  0.00  0.00    +0.000 A 
ENDBRANCH   7  18
TORSDOF 2
ENDMDL
MODEL 7
REMARK VINA RESULT:      -6.5      3.600      6.138
REMARK  Name = 
REMARK  3 active torsions:
REMARK  status: ('A' for Active; 'I' for Inactive)
REMARK    1  A    between atoms: C_1  and  N_2
REMARK    2  A    between atoms: C_5  and  C_6
REMARK    3  A    between atoms: C_12  and  C_13
REMARK                            x       y       z     vdW  Elec       q    Type
REMARK                         _______ _______ _______ _____ _____    ______ ____
ROOT
ATOM      1  C   UNL     1       1.094   8.759  20.762  0.00  0.00    +0.000 A 
ATOM      2  C   UNL     1       1.468   9.170  22.023  0.00  0.00    +0.000 A 
ATOM      3  N   UNL     1       0.700  10.255  22.355  0.00  0.00    +0.000 N 
ATOM      4  C   UNL     1      -0.164  10.559  21.327  0.00  0.00    +0.000 A 
ATOM      5  C   UNL     1      -1.123  11.572  21.226  0.00  0.00    +0.000 A 
ATOM      6  C   UNL     1      -1.872  11.644  20.047  0.00  0.00    +0.000 A 
ATOM      7  C   UNL     1      -1.671  10.745  18.989  0.00  0.00    +0.000 A 
ATOM      8  C   UNL     1      -0.699   9.736  19.123  0.00  0.00    +0.000 A 
ATOM      9  C   UNL     1       0.062   9.634  20.305  0.00  0.00    +0.000 A 
ATOM     10  H   UNL     1       0.758  10.765  23.224  0.00  0.00    +0.000 HD
ENDROOT
BRANCH   1  15
ATOM     11  C   UNL     1       1.945   4.437  17.833  0.00  0.00    +0.000 C 
ATOM     12  N   UNL     1       2.727   5.284  18.716  0.00  0.00    +0.000 NA
ATOM     13  C   UNL     1       2.967   6.623  18.193  0.00  0.00    +0.000 C 
ATOM     14  C   UNL     1       2.321   7.766  18.905  0.00  0.00    +0.000 C 
ATOM     15  C   UNL     1       1.673   7.653  20.071  0.00  0.00    +0.000 C 
ATOM     16  C   UNL     1       1.530   6.328  20.759  0.00  0.00    +0.000 C 
ATOM     17  C   UNL     1       2.355   5.190  20.128  0.00  0.00    +0.000 C 
ENDBRANCH   1  15
BRANCH   7  18
ATOM     18  C   UNL     1      -2.470  10.825  17.762  0.00  0.00    +0.000 A 
ATOM     19  C   UNL     1      -3.725  11.499  17.586  0.00  0.00    +0.000 A 
ATOM     20  C   UNL     1      -4.224  11.379  16.307  0.00  0.00    +0.000 A 
ATOM     21  S   UNL     1      -3.197  10.453  15.306  0.00  0.00    +0.000 S 
ATOM     22  C   UNL     1      -2.086  10.204  16.586  0.00  0.00    +0.000 A 
ENDBRANCH   7  18
TORSDOF 2
ENDMDL
MODEL 8
REMARK VINA RESULT:      -6.4      3.585      6.163
REMARK  Name = 
REMARK  3 active torsions:
REMARK  status: ('A' for Active; 'I' for Inactive)
REMARK    1  A    between atoms: C_1  and  N_2
REMARK    2  A    between atoms: C_5  and  C_6
REMARK    3  A    between atoms: C_12  and  C_13
REMARK                            x       y       z     vdW  Elec       q    Type
REMARK                         _______ _______ _______ _____ _____    ______ ____
ROOT
ATOM      1  C   UNL     1       0.990   8.776  20.874  0.00  0.00    +0.000 A 
ATOM      2  C   UNL     1       1.329   9.256  22.120  0.00  0.00    +0.000 A 
ATOM      3  N   UNL     1       0.575  10.375  22.359  0.00  0.00    +0.000 N 
ATOM      4  C   UNL     1      -0.248  10.632  21.284  0.00  0.00    +0.000 A 
ATOM      5  C   UNL     1      -1.180  11.656  21.088  0.00  0.00    +0.000 A 
ATOM      6  C   UNL     1      -1.887  11.670  19.881  0.00  0.00    +0.000 A 
ATOM      7  C   UNL     1      -1.670  10.704  18.888  0.00  0.00    +0.000 A 
ATOM      8  C   UNL     1      -0.725   9.686  19.117  0.00  0.00    +0.000 A 
ATOM      9  C   UNL     1      -0.007   9.641  20.329  0.00  0.00    +0.000 A 
ATOM     10  H   UNL     1       0.614  10.936  23.197  0.00  0.00    +0.000 HD
ENDROOT
BRANCH   1  15
ATOM     11  C   UNL     1       4.278   4.999  19.171  0.00  0.00    +0.000 C 
ATOM     12  N   UNL     1       2.882   5.348  18.978  0.00  0.00    +0.000 NA
ATOM     13  C   UNL     1       2.057   5.167  20.167  0.00  0.00    +0.000 C 
ATOM     14  C   UNL     1       1.494   6.393  20.807  0.00  0.00    +0.000 C 
ATOM     15  C   UNL     1       1.567   7.618  20.273  0.00  0.00    +0.000 C 
ATOM     16  C   UNL     1       2.255   7.859  18.963  0.00  0.00    +0.000 C 
ATOM     17  C   UNL     1       2.665   6.575  18.213  0.00  0.00    +0.000 C 
ENDBRANCH   1  15
BRANCH   7  18
ATOM     18  C   UNL     1      -2.425  10.724  17.631  0.00  0.00    +0.000 A 
ATOM     19  C   UNL     1      -3.659  11.410  17.370  0.00  0.00    +0.000 A 
ATOM     20  C   UNL     1      -4.117  11.221  16.085  0.00  0.00    +0.000 A 
ATOM     21  S   UNL     1      -3.076  10.218  15.178  0.00  0.00    +0.000 S 
ATOM     22  C   UNL     1      -2.014  10.026  16.508  0.00  0.00    +0.000 A 
ENDBRANCH   7  18
TORSDOF 2
ENDMDL
MODEL 9
REMARK VINA RESULT:      -6.4      3.925      7.250
REMARK  Name = 
REMARK  3 active torsions:
REMARK  status: ('A' for Active; 'I' for Inactive)
REMARK    1  A    between atoms: C_1  and  N_2
REMARK    2  A    between atoms: C_5  and  C_6
REMARK    3  A    between atoms: C_12  and  C_13
REMARK                            x       y       z     vdW  Elec       q    Type
REMARK                         _______ _______ _______ _____ _____    ______ ____
ROOT
ATOM      1  C   UNL     1       5.068   4.778  17.781  0.00  0.00    +0.000 A 
ATOM      2  C   UNL     1       5.875   5.613  18.523  0.00  0.00    +0.000 A 
ATOM      3  N   UNL     1       6.891   6.044  17.711  0.00  0.00    +0.000 N 
ATOM      4  C   UNL     1       6.759   5.498  16.453  0.00  0.00    +0.000 A 
ATOM      5  C   UNL     1       7.555   5.657  15.314  0.00  0.00    +0.000 A 
ATOM      6  C   UNL     1       7.177   4.973  14.155  0.00  0.00    +0.000 A 
ATOM      7  C   UNL     1       6.047   4.143  14.124  0.00  0.00    +0.000 A 
ATOM      8  C   UNL     1       5.266   4.004  15.287  0.00  0.00    +0.000 A 
ATOM      9  C   UNL     1       5.619   4.692  16.466  0.00  0.00    +0.000 A 
ATOM     10  H   UNL     1       7.634   6.668  17.990  0.00  0.00    +0.000 HD
ENDROOT
BRANCH   1  15
ATOM     11  C   UNL     1       1.098   3.016  20.799  0.00  0.00    +0.000 C 
ATOM     12  N   UNL     1       1.603   2.755  19.463  0.00  0.00    +0.000 NA
ATOM     13  C   UNL     1       1.426   3.867  18.536  0.00  0.00    +0.000 C 
ATOM     14  C   UNL     1       2.656   4.560  18.050  0.00  0.00    +0.000 C 
ATOM     15  C   UNL     1       3.901   4.129  18.284  0.00  0.00    +0.000 C 
ATOM     16  C   UNL     1       4.160   2.892  19.091  0.00  0.00    +0.000 C 
ATOM     17  C   UNL     1       2.897   2.075  19.428  0.00  0.00    +0.000 C 
ENDBRANCH   1  15
BRANCH   7  18
ATOM     18  C   UNL     1       5.655   3.439  12.899  0.00  0.00    +0.000 A 
ATOM     19  C   UNL     1       4.435   3.600  12.157  0.00  0.00    +0.000 A 
ATOM     20  C   UNL     1       4.369   2.781  11.051  0.00  0.00    +0.000 A 
ATOM     21  S   UNL     1       5.762   1.809  10.891  0.00  0.00    +0.000 S 
ATOM     22  C   UNL     1       6.455   2.476  12.309  0.00  0.00    +0.000 A 
ENDBRANCH   7  18
TORSDOF 2
ENDMDL
