MODEL 1
REMARK VINA RESULT:      -7.9      0.000      0.000
REMARK  Name = 
REMARK  7 active torsions:
REMARK  status: ('A' for Active; 'I' for Inactive)
REMARK    1  A    between atoms: C_1  and  S_2
REMARK    2  A    between atoms: S_2  and  N_5
REMARK    3  A    between atoms: N_5  and  C_6
REMARK    4  A    between atoms: C_9  and  C_10
REMARK    5  A    between atoms: C_10  and  C_12
REMARK    6  A    between atoms: C_12  and  S_13
REMARK    7  A    between atoms: S_13  and  C_14
REMARK                            x       y       z     vdW  Elec       q    Type
REMARK                         _______ _______ _______ _____ _____    ______ ____
ROOT
ATOM      1  C   UNL     1       2.068   3.858  18.052  0.00  0.00    +0.000 C 
ATOM      2  O   UNL     1       1.322   3.786  17.071  0.00  0.00    +0.000 OA
ENDROOT
BRANCH   1   6
ATOM      3  C   UNL     1       1.811   7.320  20.588  0.00  0.00    +0.000 A 
ATOM      4  C   UNL     1       1.446   6.064  21.065  0.00  0.00    +0.000 A 
ATOM      5  C   UNL     1       1.533   4.951  20.223  0.00  0.00    +0.000 A 
ATOM      6  C   UNL     1       2.004   5.085  18.909  0.00  0.00    +0.000 A 
ATOM      7  C   UNL     1       2.388   6.351  18.445  0.00  0.00    +0.000 A 
ATOM      8  C   UNL     1       2.295   7.465  19.288  0.00  0.00    +0.000 A 
BRANCH   3   9
ATOM      9  N   UNL     1       1.748   8.460  21.444  0.00  0.00    +0.000 N 
ATOM     10  H   UNL     1       2.423   9.196  21.228  0.00  0.00    +0.000 HD
BRANCH   9  12
ATOM     11  C   UNL     1      -0.003   9.979  20.084  0.00  0.00    +0.000 C 
ATOM     12  S   UNL     1       0.231   9.185  21.661  0.00  0.00    +0.000 S 
ATOM     13  O   UNL     1       0.303  10.194  22.693  0.00  0.00    +0.000 OA
ATOM     14  O   UNL     1      -0.716   8.093  21.744  0.00  0.00    +0.000 OA
ENDBRANCH   9  12
ENDBRANCH   3   9
ENDBRANCH   1   6
BRANCH   1  15
ATOM     15  C   UNL     1       3.041   2.743  18.383  0.00  0.00    +0.000 C 
BRANCH  15  16
ATOM     16  S   UNL     1       4.472   3.419  19.289  0.00  0.00    +0.000 S 
BRANCH  16  17
ATOM     17  C   UNL     1       5.476   4.018  17.943  0.00  0.00    +0.000 A 
ATOM     18  C   UNL     1       6.621   4.791  18.157  0.00  0.00    +0.000 A 
ATOM     19  C   UNL     1       7.372   5.255  17.071  0.00  0.00    +0.000 A 
ATOM     20  C   UNL     1       6.977   4.958  15.767  0.00  0.00    +0.000 A 
ATOM     21  C   UNL     1       5.806   4.236  15.552  0.00  0.00    +0.000 A 
ATOM     22  C   UNL     1       5.059   3.763  16.632  0.00  0.00    +0.000 A 
ATOM     23  O   UNL     1       5.316   3.975  14.301  0.00  0.00    +0.000 OA
ATOM     24  C   UNL     1       6.382   3.905  13.358  0.00  0.00    +0.000 C 
ATOM     25  C   UNL     1       7.326   5.098  13.447  0.00  0.00    +0.000 C 
ATOM     26  O   UNL     1       7.799   5.389  14.765  0.00  0.00    +0.000 OA
ENDBRANCH  16  17
ENDBRANCH  15  16
ENDBRANCH   1  15
TORSDOF 6
ENDMDL
MODEL 2
REMARK VINA RESULT:      -7.6      2.677      8.492
REMARK  Name = 
REMARK  7 active torsions:
REMARK  status: ('A' for Active; 'I' for Inactive)
REMARK    1  A    between atoms: C_1  and  S_2
REMARK    2  A    between atoms: S_2  and  N_5
REMARK    3  A    between atoms: N_5  and  C_6
REMARK    4  A    between atoms: C_9  and  C_10
REMARK    5  A    between atoms: C_10  and  C_12
REMARK    6  A    between atoms: C_12  and  S_13
REMARK    7  A    between atoms: S_13  and  C_14
REMARK                            x       y       z     vdW  Elec       q    Type
REMARK                         _______ _______ _______ _____ _____    ______ ____
ROOT
ATOM      1  C   UNL     1       2.306   4.540  20.102  0.00  0.00    +0.000 C 
ATOM      2  O   UNL     1       1.805   3.525  20.595  0.00  0.00    +0.000 OA
ENDROOT
BRANCH   1   6
ATOM      3  C   UNL     1       5.489   4.155  17.237  0.00  0.00    +0.000 A 
ATOM      4  C   UNL     1       5.732   4.694  18.498  0.00  0.00    +0.000 A 
ATOM      5  C   UNL     1       4.682   4.814  19.414  0.00  0.00    +0.000 A 
ATOM      6  C   UNL     1       3.391   4.378  19.082  0.00  0.00    +0.000 A 
ATOM      7  C   UNL     1       3.162   3.817  17.818  0.00  0.00    +0.000 A 
ATOM      8  C   UNL     1       4.213   3.703  16.900  0.00  0.00    +0.000 A 
BRANCH   3   9
ATOM      9  N   UNL     1       6.556   4.006  16.303  0.00  0.00    +0.000 N 
ATOM     10  H   UNL     1       6.715   3.048  15.981  0.00  0.00    +0.000 HD
BRANCH   9  12
ATOM     11  C   UNL     1       5.957   3.907  13.684  0.00  0.00    +0.000 C 
ATOM     12  S   UNL     1       6.544   5.021  14.944  0.00  0.00    +0.000 S 
ATOM     13  O   UNL     1       7.891   5.435  14.619  0.00  0.00    +0.000 OA
ATOM     14  O   UNL     1       5.499   5.991  15.190  0.00  0.00    +0.000 OA
ENDBRANCH   9  12
ENDBRANCH   3   9
ENDBRANCH   1   6
BRANCH   1  15
ATOM     15  C   UNL     1       1.853   5.924  20.523  0.00  0.00    +0.000 C 
BRANCH  15  16
ATOM     16  S   UNL     1       2.394   7.154  19.290  0.00  0.00    +0.000 S 
BRANCH  16  17
ATOM     17  C   UNL     1       1.453   8.581  19.796  0.00  0.00    +0.000 A 
ATOM     18  C   UNL     1       1.075   9.580  18.893  0.00  0.00    +0.000 A 
ATOM     19  C   UNL     1       0.351  10.693  19.336  0.00  0.00    +0.000 A 
ATOM     20  C   UNL     1       0.011  10.819  20.683  0.00  0.00    +0.000 A 
ATOM     21  C   UNL     1       0.437   9.853  21.591  0.00  0.00    +0.000 A 
ATOM     22  C   UNL     1       1.150   8.737  21.153  0.00  0.00    +0.000 A 
ATOM     23  O   UNL     1       0.207   9.951  22.936  0.00  0.00    +0.000 OA
ATOM     24  C   UNL     1      -0.988  10.686  23.182  0.00  0.00    +0.000 C 
ATOM     25  C   UNL     1      -1.036  12.005  22.420  0.00  0.00    +0.000 C 
ATOM     26  O   UNL     1      -0.753  11.898  21.023  0.00  0.00    +0.000 OA
ENDBRANCH  16  17
ENDBRANCH  15  16
ENDBRANCH   1  15
TORSDOF 6
ENDMDL
MODEL 3
REMARK VINA RESULT:      -7.6      2.087      2.543
REMARK  Name = 
REMARK  7 active torsions:
REMARK  status: ('A' for Active; 'I' for Inactive)
REMARK    1  A    between atoms: C_1  and  S_2
REMARK    2  A    between atoms: S_2  and  N_5
REMARK    3  A    between atoms: N_5  and  C_6
REMARK    4  A    between atoms: C_9  and  C_10
REMARK    5  A    between atoms: C_10  and  C_12
REMARK    6  A    between atoms: C_12  and  S_13
REMARK    7  A    between atoms: S_13  and  C_14
REMARK                            x       y       z     vdW  Elec       q    Type
REMARK                         _______ _______ _______ _____ _____    ______ ____
ROOT
ATOM      1  C   UNL     1       2.188   5.669  20.014  0.00  0.00    +0.000 C 
ATOM      2  O   UNL     1       2.058   5.229  21.160  0.00  0.00    +0.000 OA
ENDROOT
BRANCH   1   6
ATOM      3  C   UNL     1       1.189   9.802  19.381  0.00  0.00    +0.000 A 
ATOM      4  C   UNL     1       0.944   9.194  20.609  0.00  0.00    +0.000 A 
ATOM      5  C   UNL     1       1.272   7.847  20.794  0.00  0.00    +0.000 A 
ATOM      6  C   UNL     1       1.866   7.108  19.759  0.00  0.00    +0.000 A 
ATOM      7  C   UNL     1       2.128   7.736  18.533  0.00  0.00    +0.000 A 
ATOM      8  C   UNL     1       1.793   9.083  18.349  0.00  0.00    +0.000 A 
BRANCH   3   9
ATOM      9  N   UNL     1       0.879  11.180  19.188  0.00  0.00    +0.000 N 
ATOM     10  H   UNL     1       1.488  11.669  18.527  0.00  0.00    +0.000 HD
BRANCH   9  12
ATOM     11  C   UNL     1      -1.384  11.948  20.417  0.00  0.00    +0.000 C 
ATOM     12  S   UNL     1      -0.727  11.569  18.807  0.00  0.00    +0.000 S 
ATOM     13  O   UNL     1      -1.409  10.409  18.279  0.00  0.00    +0.000 OA
ATOM     14  O   UNL     1      -0.663  12.806  18.058  0.00  0.00    +0.000 OA
ENDBRANCH   9  12
ENDBRANCH   3   9
ENDBRANCH   1   6
BRANCH   1  15
ATOM     15  C   UNL     1       2.648   4.775  18.878  0.00  0.00    +0.000 C 
BRANCH  15  16
ATOM     16  S   UNL     1       4.147   3.864  19.375  0.00  0.00    +0.000 S 
BRANCH  16  17
ATOM     17  C   UNL     1       5.255   4.275  18.041  0.00  0.00    +0.000 A 
ATOM     18  C   UNL     1       6.496   4.881  18.265  0.00  0.00    +0.000 A 
ATOM     19  C   UNL     1       7.328   5.204  17.187  0.00  0.00    +0.000 A 
ATOM     20  C   UNL     1       6.921   4.932  15.881  0.00  0.00    +0.000 A 
ATOM     21  C   UNL     1       5.663   4.381  15.655  0.00  0.00    +0.000 A 
ATOM     22  C   UNL     1       4.833   4.049  16.726  0.00  0.00    +0.000 A 
ATOM     23  O   UNL     1       5.166   4.160  14.399  0.00  0.00    +0.000 OA
ATOM     24  C   UNL     1       6.231   3.913  13.484  0.00  0.00    +0.000 C 
ATOM     25  C   UNL     1       7.335   4.959  13.568  0.00  0.00    +0.000 C 
ATOM     26  O   UNL     1       7.817   5.214  14.890  0.00  0.00    +0.000 OA
ENDBRANCH  16  17
ENDBRANCH  15  16
ENDBRANCH   1  15
TORSDOF 6
ENDMDL
MODEL 4
REMARK VINA RESULT:      -7.5      0.412      1.051
REMARK  Name = 
REMARK  7 active torsions:
REMARK  status: ('A' for Active; 'I' for Inactive)
REMARK    1  A    between atoms: C_1  and  S_2
REMARK    2  A    between atoms: S_2  and  N_5
REMARK    3  A    between atoms: N_5  and  C_6
REMARK    4  A    between atoms: C_9  and  C_10
REMARK    5  A    between atoms: C_10  and  C_12
REMARK    6  A    between atoms: C_12  and  S_13
REMARK    7  A    between atoms: S_13  and  C_14
REMARK                            x       y       z     vdW  Elec       q    Type
REMARK                         _______ _______ _______ _____ _____    ______ ____
ROOT
ATOM      1  C   UNL     1       1.874   4.020  18.083  0.00  0.00    +0.000 C 
ATOM      2  O   UNL     1       1.079   4.016  17.139  0.00  0.00    +0.000 OA
ENDROOT
BRANCH   1   6
ATOM      3  C   UNL     1       1.948   7.449  20.676  0.00  0.00    +0.000 A 
ATOM      4  C   UNL     1       2.348   7.557  19.347  0.00  0.00    +0.000 A 
ATOM      5  C   UNL     1       2.321   6.429  18.521  0.00  0.00    +0.000 A 
ATOM      6  C   UNL     1       1.873   5.194  19.013  0.00  0.00    +0.000 A 
ATOM      7  C   UNL     1       1.452   5.101  20.347  0.00  0.00    +0.000 A 
ATOM      8  C   UNL     1       1.486   6.230  21.174  0.00  0.00    +0.000 A 
BRANCH   3   9
ATOM      9  N   UNL     1       1.950   8.597  21.522  0.00  0.00    +0.000 N 
ATOM     10  H   UNL     1       2.682   9.280  21.317  0.00  0.00    +0.000 HD
BRANCH   9  12
ATOM     11  C   UNL     1       0.830  10.930  20.797  0.00  0.00    +0.000 C 
ATOM     12  S   UNL     1       0.485   9.434  21.698  0.00  0.00    +0.000 S 
ATOM     13  O   UNL     1       0.260   9.760  23.088  0.00  0.00    +0.000 OA
ATOM     14  O   UNL     1      -0.489   8.680  20.937  0.00  0.00    +0.000 OA
ENDBRANCH   9  12
ENDBRANCH   3   9
ENDBRANCH   1   6
BRANCH   1  15
ATOM     15  C   UNL     1       2.846   2.875  18.296  0.00  0.00    +0.000 C 
BRANCH  15  16
ATOM     16  S   UNL     1       4.299   3.463  19.227  0.00  0.00    +0.000 S 
BRANCH  16  17
ATOM     17  C   UNL     1       5.345   4.034  17.901  0.00  0.00    +0.000 A 
ATOM     18  C   UNL     1       6.497   4.792  18.137  0.00  0.00    +0.000 A 
ATOM     19  C   UNL     1       7.281   5.235  17.066  0.00  0.00    +0.000 A 
ATOM     20  C   UNL     1       6.913   4.933  15.755  0.00  0.00    +0.000 A 
ATOM     21  C   UNL     1       5.736   4.228  15.518  0.00  0.00    +0.000 A 
ATOM     22  C   UNL     1       4.957   3.776  16.583  0.00  0.00    +0.000 A 
ATOM     23  O   UNL     1       5.273   3.963  14.257  0.00  0.00    +0.000 OA
ATOM     24  C   UNL     1       6.361   3.869  13.341  0.00  0.00    +0.000 C 
ATOM     25  C   UNL     1       7.321   5.048  13.444  0.00  0.00    +0.000 C 
ATOM     26  O   UNL     1       7.766   5.343  14.770  0.00  0.00    +0.000 OA
ENDBRANCH  16  17
ENDBRANCH  15  16
ENDBRANCH   1  15
TORSDOF 6
ENDMDL
MODEL 5
REMARK VINA RESULT:      -7.5      2.740      8.699
REMARK  Name = 
REMARK  7 active torsions:
REMARK  status: ('A' for Active; 'I' for Inactive)
REMARK    1  A    between atoms: C_1  and  S_2
REMARK    2  A    between atoms: S_2  and  N_5
REMARK    3  A    between atoms: N_5  and  C_6
REMARK    4  A    between atoms: C_9  and  C_10
REMARK    5  A    between atoms: C_10  and  C_12
REMARK    6  A    between atoms: C_12  and  S_13
REMARK    7  A    between atoms: S_13  and  C_14
REMARK                            x       y       z     vdW  Elec       q    Type
REMARK                         _______ _______ _______ _____ _____    ______ ____
ROOT
ATOM      1  C   UNL     1       2.197   5.443  20.232  0.00  0.00    +0.000 C 
ATOM      2  O   UNL     1       1.541   4.557  20.788  0.00  0.00    +0.000 OA
ENDROOT
BRANCH   1   6
ATOM      3  C   UNL     1       5.092   4.213  17.302  0.00  0.00    +0.000 A 
ATOM      4  C   UNL     1       3.739   3.940  17.119  0.00  0.00    +0.000 A 
ATOM      5  C   UNL     1       2.814   4.345  18.086  0.00  0.00    +0.000 A 
ATOM      6  C   UNL     1       3.233   5.042  19.228  0.00  0.00    +0.000 A 
ATOM      7  C   UNL     1       4.595   5.331  19.393  0.00  0.00    +0.000 A 
ATOM      8  C   UNL     1       5.521   4.919  18.426  0.00  0.00    +0.000 A 
BRANCH   3   9
ATOM      9  N   UNL     1       6.043   3.826  16.312  0.00  0.00    +0.000 N 
ATOM     10  H   UNL     1       5.876   2.909  15.892  0.00  0.00    +0.000 HD
BRANCH   9  12
ATOM     11  C   UNL     1       5.940   3.954  13.630  0.00  0.00    +0.000 C 
ATOM     12  S   UNL     1       6.354   4.928  15.061  0.00  0.00    +0.000 S 
ATOM     13  O   UNL     1       7.762   5.253  15.021  0.00  0.00    +0.000 OA
ATOM     14  O   UNL     1       5.349   5.961  15.193  0.00  0.00    +0.000 OA
ENDBRANCH   9  12
ENDBRANCH   3   9
ENDBRANCH   1   6
BRANCH   1  15
ATOM     15  C   UNL     1       1.977   6.906  20.563  0.00  0.00    +0.000 C 
BRANCH  15  16
ATOM     16  S   UNL     1       1.981   7.895  19.031  0.00  0.00    +0.000 S 
BRANCH  16  17
ATOM     17  C   UNL     1       1.213   9.401  19.593  0.00  0.00    +0.000 A 
ATOM     18  C   UNL     1       1.038  10.505  18.753  0.00  0.00    +0.000 A 
ATOM     19  C   UNL     1       0.446  11.675  19.240  0.00  0.00    +0.000 A 
ATOM     20  C   UNL     1       0.034  11.752  20.571  0.00  0.00    +0.000 A 
ATOM     21  C   UNL     1       0.259  10.674  21.422  0.00  0.00    +0.000 A 
ATOM     22  C   UNL     1       0.841   9.502  20.938  0.00  0.00    +0.000 A 
ATOM     23  O   UNL     1      -0.047  10.707  22.755  0.00  0.00    +0.000 OA
ATOM     24  C   UNL     1      -1.145  11.585  22.988  0.00  0.00    +0.000 C 
ATOM     25  C   UNL     1      -0.958  12.948  22.333  0.00  0.00    +0.000 C 
ATOM     26  O   UNL     1      -0.597  12.902  20.951  0.00  0.00    +0.000 OA
ENDBRANCH  16  17
ENDBRANCH  15  16
ENDBRANCH   1  15
TORSDOF 6
ENDMDL
MODEL 6
REMARK VINA RESULT:      -7.5      2.054      2.275
REMARK  Name = 
REMARK  7 active torsions:
REMARK  status: ('A' for Active; 'I' for Inactive)
REMARK    1  A    between atoms: C_1  and  S_2
REMARK    2  A    between atoms: S_2  and  N_5
REMARK    3  A    between atoms: N_5  and  C_6
REMARK    4  A    between atoms: C_9  and  C_10
REMARK    5  A    between atoms: C_10  and  C_12
REMARK    6  A    between atoms: C_12  and  S_13
REMARK    7  A    between atoms: S_13  and  C_14
REMARK                            x       y       z     vdW  Elec       q    Type
REMARK                         _______ _______ _______ _____ _____    ______ ____
ROOT
ATOM      1  C   UNL     1       2.807   5.258  20.103  0.00  0.00    +0.000 C 
ATOM      2  O   UNL     1       2.048   4.621  20.840  0.00  0.00    +0.000 OA
ENDROOT
BRANCH   1   6
ATOM      3  C   UNL     1       1.517   9.174  18.884  0.00  0.00    +0.000 A 
ATOM      4  C   UNL     1       1.354   8.752  20.201  0.00  0.00    +0.000 A 
ATOM      5  C   UNL     1       1.777   7.473  20.577  0.00  0.00    +0.000 A 
ATOM      6  C   UNL     1       2.383   6.618  19.644  0.00  0.00    +0.000 A 
ATOM      7  C   UNL     1       2.561   7.060  18.325  0.00  0.00    +0.000 A 
ATOM      8  C   UNL     1       2.132   8.340  17.950  0.00  0.00    +0.000 A 
BRANCH   3   9
ATOM      9  N   UNL     1       1.111  10.484  18.494  0.00  0.00    +0.000 N 
ATOM     10  H   UNL     1       1.384  10.754  17.547  0.00  0.00    +0.000 HD
BRANCH   9  12
ATOM     11  C   UNL     1      -0.485  12.646  18.455  0.00  0.00    +0.000 C 
ATOM     12  S   UNL     1      -0.524  10.884  18.704  0.00  0.00    +0.000 S 
ATOM     13  O   UNL     1      -0.936  10.606  20.061  0.00  0.00    +0.000 OA
ATOM     14  O   UNL     1      -1.216  10.299  17.575  0.00  0.00    +0.000 OA
ENDBRANCH   9  12
ENDBRANCH   3   9
ENDBRANCH   1   6
BRANCH   1  15
ATOM     15  C   UNL     1       4.135   4.678  19.654  0.00  0.00    +0.000 C 
BRANCH  15  16
ATOM     16  S   UNL     1       3.866   3.517  18.273  0.00  0.00    +0.000 S 
BRANCH  16  17
ATOM     17  C   UNL     1       5.067   4.105  17.094  0.00  0.00    +0.000 A 
ATOM     18  C   UNL     1       6.143   4.915  17.471  0.00  0.00    +0.000 A 
ATOM     19  C   UNL     1       7.054   5.369  16.510  0.00  0.00    +0.000 A 
ATOM     20  C   UNL     1       6.888   5.026  15.169  0.00  0.00    +0.000 A 
ATOM     21  C   UNL     1       5.785   4.267  14.786  0.00  0.00    +0.000 A 
ATOM     22  C   UNL     1       4.880   3.804  15.741  0.00  0.00    +0.000 A 
ATOM     23  O   UNL     1       5.517   3.959  13.480  0.00  0.00    +0.000 OA
ATOM     24  C   UNL     1       6.726   3.893  12.729  0.00  0.00    +0.000 C 
ATOM     25  C   UNL     1       7.615   5.112  12.936  0.00  0.00    +0.000 C 
ATOM     26  O   UNL     1       7.856   5.452  14.304  0.00  0.00    +0.000 OA
ENDBRANCH  16  17
ENDBRANCH  15  16
ENDBRANCH   1  15
TORSDOF 6
ENDMDL
MODEL 7
REMARK VINA RESULT:      -7.5      3.764      9.458
REMARK  Name = 
REMARK  7 active torsions:
REMARK  status: ('A' for Active; 'I' for Inactive)
REMARK    1  A    between atoms: C_1  and  S_2
REMARK    2  A    between atoms: S_2  and  N_5
REMARK    3  A    between atoms: N_5  and  C_6
REMARK    4  A    between atoms: C_9  and  C_10
REMARK    5  A    between atoms: C_10  and  C_12
REMARK    6  A    between atoms: C_12  and  S_13
REMARK    7  A    between atoms: S_13  and  C_14
REMARK                            x       y       z     vdW  Elec       q    Type
REMARK                         _______ _______ _______ _____ _____    ______ ____
ROOT
ATOM      1  C   UNL     1       1.752   8.233  19.427  0.00  0.00    +0.000 C 
ATOM      2  O   UNL     1       1.258   7.939  20.520  0.00  0.00    +0.000 OA
ENDROOT
BRANCH   1   6
ATOM      3  C   UNL     1       4.771   5.592  17.882  0.00  0.00    +0.000 A 
ATOM      4  C   UNL     1       4.095   5.283  19.059  0.00  0.00    +0.000 A 
ATOM      5  C   UNL     1       3.119   6.158  19.548  0.00  0.00    +0.000 A 
ATOM      6  C   UNL     1       2.800   7.333  18.851  0.00  0.00    +0.000 A 
ATOM      7  C   UNL     1       3.472   7.624  17.656  0.00  0.00    +0.000 A 
ATOM      8  C   UNL     1       4.453   6.750  17.171  0.00  0.00    +0.000 A 
BRANCH   3   9
ATOM      9  N   UNL     1       5.753   4.697  17.362  0.00  0.00    +0.000 N 
ATOM     10  H   UNL     1       5.513   4.272  16.464  0.00  0.00    +0.000 HD
BRANCH   9  12
ATOM     11  C   UNL     1       7.564   5.970  18.885  0.00  0.00    +0.000 C 
ATOM     12  S   UNL     1       7.347   5.266  17.265  0.00  0.00    +0.000 S 
ATOM     13  O   UNL     1       7.443   6.317  16.276  0.00  0.00    +0.000 OA
ATOM     14  O   UNL     1       8.180   4.084  17.187  0.00  0.00    +0.000 OA
ENDBRANCH   9  12
ENDBRANCH   3   9
ENDBRANCH   1   6
BRANCH   1  15
ATOM     15  C   UNL     1       1.326   9.485  18.685  0.00  0.00    +0.000 C 
BRANCH  15  16
ATOM     16  S   UNL     1       0.357  10.562  19.793  0.00  0.00    +0.000 S 
BRANCH  16  17
ATOM     17  C   UNL     1      -1.164  10.715  18.875  0.00  0.00    +0.000 A 
ATOM     18  C   UNL     1      -1.349  10.095  17.635  0.00  0.00    +0.000 A 
ATOM     19  C   UNL     1      -2.553  10.256  16.940  0.00  0.00    +0.000 A 
ATOM     20  C   UNL     1      -3.572  11.044  17.474  0.00  0.00    +0.000 A 
ATOM     21  C   UNL     1      -3.367  11.706  18.682  0.00  0.00    +0.000 A 
ATOM     22  C   UNL     1      -2.172  11.542  19.383  0.00  0.00    +0.000 A 
ATOM     23  O   UNL     1      -4.291  12.556  19.226  0.00  0.00    +0.000 OA
ATOM     24  C   UNL     1      -5.606  12.170  18.837  0.00  0.00    +0.000 C 
ATOM     25  C   UNL     1      -5.736  11.951  17.335  0.00  0.00    +0.000 C 
ATOM     26  O   UNL     1      -4.740  11.095  16.768  0.00  0.00    +0.000 OA
ENDBRANCH  16  17
ENDBRANCH  15  16
ENDBRANCH   1  15
TORSDOF 6
ENDMDL
MODEL 8
REMARK VINA RESULT:      -7.4      2.677      7.111
REMARK  Name = 
REMARK  7 active torsions:
REMARK  status: ('A' for Active; 'I' for Inactive)
REMARK    1  A    between atoms: C_1  and  S_2
REMARK    2  A    between atoms: S_2  and  N_5
REMARK    3  A    between atoms: N_5  and  C_6
REMARK    4  A    between atoms: C_9  and  C_10
REMARK    5  A    between atoms: C_10  and  C_12
REMARK    6  A    between atoms: C_12  and  S_13
REMARK    7  A    between atoms: S_13  and  C_14
REMARK                            x       y       z     vdW  Elec       q    Type
REMARK                         _______ _______ _______ _____ _____    ______ ____
ROOT
ATOM      1  C   UNL     1       1.309   3.246  19.261  0.00  0.00    +0.000 C 
ATOM      2  O   UNL     1       0.635   2.266  18.929  0.00  0.00    +0.000 OA
ENDROOT
BRANCH   1   6
ATOM      3  C   UNL     1       5.058   3.839  17.243  0.00  0.00    +0.000 A 
ATOM      4  C   UNL     1       3.859   3.883  16.537  0.00  0.00    +0.000 A 
ATOM      5  C   UNL     1       2.650   3.683  17.211  0.00  0.00    +0.000 A 
ATOM      6  C   UNL     1       2.633   3.460  18.596  0.00  0.00    +0.000 A 
ATOM      7  C   UNL     1       3.844   3.439  19.301  0.00  0.00    +0.000 A 
ATOM      8  C   UNL     1       5.054   3.634  18.623  0.00  0.00    +0.000 A 
BRANCH   3   9
ATOM      9  N   UNL     1       6.296   4.064  16.571  0.00  0.00    +0.000 N 
ATOM     10  H   UNL     1       6.439   3.495  15.734  0.00  0.00    +0.000 HD
BRANCH   9  12
ATOM     11  C   UNL     1       7.461   6.205  17.703  0.00  0.00    +0.000 C 
ATOM     12  S   UNL     1       6.692   5.668  16.190  0.00  0.00    +0.000 S 
ATOM     13  O   UNL     1       5.489   6.440  15.970  0.00  0.00    +0.000 OA
ATOM     14  O   UNL     1       7.725   5.586  15.180  0.00  0.00    +0.000 OA
ENDBRANCH   9  12
ENDBRANCH   3   9
ENDBRANCH   1   6
BRANCH   1  15
ATOM     15  C   UNL     1       0.824   4.206  20.330  0.00  0.00    +0.000 C 
BRANCH  15  16
ATOM     16  S   UNL     1       2.226   5.183  20.966  0.00  0.00    +0.000 S 
BRANCH  16  17
ATOM     17  C   UNL     1       1.967   6.736  20.132  0.00  0.00    +0.000 A 
ATOM     18  C   UNL     1       2.458   6.981  18.846  0.00  0.00    +0.000 A 
ATOM     19  C   UNL     1       2.247   8.222  18.234  0.00  0.00    +0.000 A 
ATOM     20  C   UNL     1       1.553   9.227  18.908  0.00  0.00    +0.000 A 
ATOM     21  C   UNL     1       1.113   9.003  20.210  0.00  0.00    +0.000 A 
ATOM     22  C   UNL     1       1.314   7.765  20.820  0.00  0.00    +0.000 A 
ATOM     23  O   UNL     1       0.496   9.968  20.958  0.00  0.00    +0.000 OA
ATOM     24  C   UNL     1      -0.205  10.876  20.113  0.00  0.00    +0.000 C 
ATOM     25  C   UNL     1       0.654  11.397  18.968  0.00  0.00    +0.000 C 
ATOM     26  O   UNL     1       1.329  10.384  18.218  0.00  0.00    +0.000 OA
ENDBRANCH  16  17
ENDBRANCH  15  16
ENDBRANCH   1  15
TORSDOF 6
ENDMDL
MODEL 9
REMARK VINA RESULT:      -7.4      3.751      9.418
REMARK  Name = 
REMARK  7 active torsions:
REMARK  status: ('A' for Active; 'I' for Inactive)
REMARK    1  A    between atoms: C_1  and  S_2
REMARK    2  A    between atoms: S_2  and  N_5
REMARK    3  A    between atoms: N_5  and  C_6
REMARK    4  A    between atoms: C_9  and  C_10
REMARK    5  A    between atoms: C_10  and  C_12
REMARK    6  A    between atoms: C_12  and  S_13
REMARK    7  A    between atoms: S_13  and  C_14
REMARK                            x       y       z     vdW  Elec       q    Type
REMARK                         _______ _______ _______ _____ _____    ______ ____
ROOT
ATOM      1  C   UNL     1       1.867   9.096  18.452  0.00  0.00    +0.000 C 
ATOM      2  O   UNL     1       2.191   9.781  17.478  0.00  0.00    +0.000 OA
ENDROOT
BRANCH   1   6
ATOM      3  C   UNL     1       3.376   5.092  18.867  0.00  0.00    +0.000 A 
ATOM      4  C   UNL     1       2.539   5.638  19.837  0.00  0.00    +0.000 A 
ATOM      5  C   UNL     1       2.062   6.944  19.685  0.00  0.00    +0.000 A 
ATOM      6  C   UNL     1       2.402   7.702  18.555  0.00  0.00    +0.000 A 
ATOM      7  C   UNL     1       3.228   7.135  17.574  0.00  0.00    +0.000 A 
ATOM      8  C   UNL     1       3.710   5.829  17.731  0.00  0.00    +0.000 A 
BRANCH   3   9
ATOM      9  N   UNL     1       3.851   3.754  18.999  0.00  0.00    +0.000 N 
ATOM     10  H   UNL     1       4.116   3.484  19.949  0.00  0.00    +0.000 HD
BRANCH   9  12
ATOM     11  C   UNL     1       1.747   2.233  19.697  0.00  0.00    +0.000 C 
ATOM     12  S   UNL     1       2.882   2.520  18.355  0.00  0.00    +0.000 S 
ATOM     13  O   UNL     1       3.670   1.328  18.139  0.00  0.00    +0.000 OA
ATOM     14  O   UNL     1       2.136   3.132  17.276  0.00  0.00    +0.000 OA
ENDBRANCH   9  12
ENDBRANCH   3   9
ENDBRANCH   1   6
BRANCH   1  15
ATOM     15  C   UNL     1       0.934   9.639  19.518  0.00  0.00    +0.000 C 
BRANCH  15  16
ATOM     16  S   UNL     1       0.468  11.355  19.116  0.00  0.00    +0.000 S 
BRANCH  16  17
ATOM     17  C   UNL     1      -1.234  11.141  18.630  0.00  0.00    +0.000 A 
ATOM     18  C   UNL     1      -1.608  10.275  17.597  0.00  0.00    +0.000 A 
ATOM     19  C   UNL     1      -2.954  10.150  17.236  0.00  0.00    +0.000 A 
ATOM     20  C   UNL     1      -3.931  10.896  17.896  0.00  0.00    +0.000 A 
ATOM     21  C   UNL     1      -3.552  11.800  18.885  0.00  0.00    +0.000 A 
ATOM     22  C   UNL     1      -2.212  11.921  19.255  0.00  0.00    +0.000 A 
ATOM     23  O   UNL     1      -4.445  12.620  19.519  0.00  0.00    +0.000 OA
ATOM     24  C   UNL     1      -5.731  12.009  19.564  0.00  0.00    +0.000 C 
ATOM     25  C   UNL     1      -6.184  11.488  18.205  0.00  0.00    +0.000 C 
ATOM     26  O   UNL     1      -5.227  10.667  17.531  0.00  0.00    +0.000 OA
ENDBRANCH  16  17
ENDBRANCH  15  16
ENDBRANCH   1  15
TORSDOF 6
ENDMDL
