MODEL 1
REMARK VINA RESULT:      -8.0      0.000      0.000
REMARK  Name = 
REMARK  10 active torsions:
REMARK  status: ('A' for Active; 'I' for Inactive)
REMARK    1  A    between atoms: C_1  and  O_2
REMARK    2  A    between atoms: O_2  and  C_3
REMARK    3  A    between atoms: C_5  and  C_6
REMARK    4  A    between atoms: C_7  and  C_8
REMARK    5  A    between atoms: C_8  and  O_10
REMARK    6  A    between atoms: C_12  and  S_13
REMARK    7  A    between atoms: S_13  and  N_16
REMARK    8  A    between atoms: N_16  and  C_17
REMARK    9  A    between atoms: C_26  and  O_27
REMARK   10  A    between atoms: O_27  and  C_28
REMARK                            x       y       z     vdW  Elec       q    Type
REMARK                         _______ _______ _______ _____ _____    ______ ____
ROOT
ATOM      1  C   UNL     1       6.959   5.950  16.719  0.00  0.00    +0.000 A 
ATOM      2  C   UNL     1       6.659   5.439  15.435  0.00  0.00    +0.000 A 
ATOM      3  C   UNL     1       5.630   4.518  15.236  0.00  0.00    +0.000 A 
ATOM      4  C   UNL     1       4.936   4.065  16.358  0.00  0.00    +0.000 A 
ATOM      5  C   UNL     1       5.265   4.520  17.638  0.00  0.00    +0.000 A 
ATOM      6  C   UNL     1       6.282   5.461  17.850  0.00  0.00    +0.000 A 
ENDROOT
BRANCH   5   7
ATOM      7  S   UNL     1       4.229   3.942  18.960  0.00  0.00    +0.000 S 
ATOM      8  O   UNL     1       2.912   3.701  18.384  0.00  0.00    +0.000 OA
ATOM      9  O   UNL     1       4.870   2.928  19.746  0.00  0.00    +0.000 OA
BRANCH   7  10
ATOM     10  N   UNL     1       4.045   5.346  19.859  0.00  0.00    +0.000 N 
ATOM     11  H   UNL     1       4.425   5.297  20.808  0.00  0.00    +0.000 HD
BRANCH  10  12
ATOM     12  C   UNL     1       3.002   6.265  19.609  0.00  0.00    +0.000 A 
ATOM     13  C   UNL     1       2.172   6.680  20.669  0.00  0.00    +0.000 A 
ATOM     14  C   UNL     1       1.363   7.812  20.532  0.00  0.00    +0.000 A 
ATOM     15  C   UNL     1       1.478   8.513  19.353  0.00  0.00    +0.000 A 
ATOM     16  C   UNL     1       2.234   8.052  18.294  0.00  0.00    +0.000 A 
ATOM     17  C   UNL     1       2.966   6.891  18.367  0.00  0.00    +0.000 A 
ATOM     18  O   UNL     1       2.297   8.964  17.281  0.00  0.00    +0.000 OA
ATOM     19  C   UNL     1       1.859  10.128  18.009  0.00  0.00    +0.000 C 
ATOM     20  O   UNL     1       1.015   9.776  19.127  0.00  0.00    +0.000 OA
ENDBRANCH  10  12
ENDBRANCH   7  10
ENDBRANCH   5   7
BRANCH   1  22
ATOM     21  C   UNL     1       7.427   8.186  17.358  0.00  0.00    +0.000 C 
ATOM     22  O   UNL     1       7.904   6.930  16.872  0.00  0.00    +0.000 OA
ENDBRANCH   1  22
BRANCH   3  23
ATOM     23  C   UNL     1       5.204   4.161  13.876  0.00  0.00    +0.000 C 
ATOM     24  C   UNL     1       5.843   3.276  13.095  0.00  0.00    +0.000 C 
BRANCH  24  25
ATOM     25  C   UNL     1       5.265   2.893  11.800  0.00  0.00    +0.000 C 
ATOM     26  O   UNL     1       4.405   3.528  11.213  0.00  0.00    +0.000 OA
BRANCH  25  27
ATOM     27  O   UNL     1       5.764   1.734  11.335  0.00  0.00    +0.000 OA
ATOM     28  H   UNL     1       6.742   1.660  11.344  0.00  0.00    +0.000 HD
ENDBRANCH  25  27
ENDBRANCH  24  25
ENDBRANCH   3  23
BRANCH   6  29
ATOM     29  O   UNL     1       6.437   5.859  19.141  0.00  0.00    +0.000 OA
ATOM     30  C   UNL     1       7.629   5.608  19.866  0.00  0.00    +0.000 C 
ENDBRANCH   6  29
TORSDOF 8
ENDMDL
MODEL 2
REMARK VINA RESULT:      -7.8      1.924      7.199
REMARK  Name = 
REMARK  10 active torsions:
REMARK  status: ('A' for Active; 'I' for Inactive)
REMARK    1  A    between atoms: C_1  and  O_2
REMARK    2  A    between atoms: O_2  and  C_3
REMARK    3  A    between atoms: C_5  and  C_6
REMARK    4  A    between atoms: C_7  and  C_8
REMARK    5  A    between atoms: C_8  and  O_10
REMARK    6  A    between atoms: C_12  and  S_13
REMARK    7  A    between atoms: S_13  and  N_16
REMARK    8  A    between atoms: N_16  and  C_17
REMARK    9  A    between atoms: C_26  and  O_27
REMARK   10  A    between atoms: O_27  and  C_28
REMARK                            x       y       z     vdW  Elec       q    Type
REMARK                         _______ _______ _______ _____ _____    ______ ____
ROOT
ATOM      1  C   UNL     1       2.249   4.403  18.061  0.00  0.00    +0.000 A 
ATOM      2  C   UNL     1       1.709   5.708  17.989  0.00  0.00    +0.000 A 
ATOM      3  C   UNL     1       2.520   6.841  18.060  0.00  0.00    +0.000 A 
ATOM      4  C   UNL     1       3.886   6.651  18.266  0.00  0.00    +0.000 A 
ATOM      5  C   UNL     1       4.421   5.366  18.399  0.00  0.00    +0.000 A 
ATOM      6  C   UNL     1       3.620   4.219  18.307  0.00  0.00    +0.000 A 
ENDROOT
BRANCH   5   7
ATOM      7  S   UNL     1       6.188   5.270  18.549  0.00  0.00    +0.000 S 
ATOM      8  O   UNL     1       6.720   6.528  18.041  0.00  0.00    +0.000 OA
ATOM      9  O   UNL     1       6.596   4.779  19.833  0.00  0.00    +0.000 OA
BRANCH   7  10
ATOM     10  N   UNL     1       6.550   4.147  17.356  0.00  0.00    +0.000 N 
ATOM     11  H   UNL     1       7.164   3.386  17.659  0.00  0.00    +0.000 HD
BRANCH  10  12
ATOM     12  C   UNL     1       6.534   4.481  15.984  0.00  0.00    +0.000 A 
ATOM     13  C   UNL     1       7.647   5.130  15.414  0.00  0.00    +0.000 A 
ATOM     14  C   UNL     1       7.805   5.175  14.025  0.00  0.00    +0.000 A 
ATOM     15  C   UNL     1       6.865   4.506  13.276  0.00  0.00    +0.000 A 
ATOM     16  C   UNL     1       5.738   3.943  13.842  0.00  0.00    +0.000 A 
ATOM     17  C   UNL     1       5.509   3.966  15.197  0.00  0.00    +0.000 A 
ATOM     18  O   UNL     1       5.014   3.232  12.930  0.00  0.00    +0.000 OA
ATOM     19  C   UNL     1       6.021   3.101  11.907  0.00  0.00    +0.000 C 
ATOM     20  O   UNL     1       6.980   4.180  11.956  0.00  0.00    +0.000 OA
ENDBRANCH  10  12
ENDBRANCH   7  10
ENDBRANCH   5   7
BRANCH   1  22
ATOM     21  C   UNL     1       0.756   2.845  19.047  0.00  0.00    +0.000 C 
ATOM     22  O   UNL     1       1.444   3.308  17.884  0.00  0.00    +0.000 OA
ENDBRANCH   1  22
BRANCH   3  23
ATOM     23  C   UNL     1       1.966   8.172  17.777  0.00  0.00    +0.000 C 
ATOM     24  C   UNL     1       1.611   9.057  18.722  0.00  0.00    +0.000 C 
BRANCH  24  25
ATOM     25  C   UNL     1       1.188  10.408  18.335  0.00  0.00    +0.000 C 
ATOM     26  O   UNL     1       1.917  11.386  18.329  0.00  0.00    +0.000 OA
BRANCH  25  27
ATOM     27  O   UNL     1      -0.118  10.468  18.014  0.00  0.00    +0.000 OA
ATOM     28  H   UNL     1      -0.352  10.115  17.130  0.00  0.00    +0.000 HD
ENDBRANCH  25  27
ENDBRANCH  24  25
ENDBRANCH   3  23
BRANCH   6  29
ATOM     29  O   UNL     1       4.295   3.040  18.384  0.00  0.00    +0.000 OA
ATOM     30  C   UNL     1       4.256   2.229  19.546  0.00  0.00    +0.000 C 
ENDBRANCH   6  29
TORSDOF 8
ENDMDL
MODEL 3
REMARK VINA RESULT:      -7.3      2.009      4.526
REMARK  Name = 
REMARK  10 active torsions:
REMARK  status: ('A' for Active; 'I' for Inactive)
REMARK    1  A    between atoms: C_1  and  O_2
REMARK    2  A    between atoms: O_2  and  C_3
REMARK    3  A    between atoms: C_5  and  C_6
REMARK    4  A    between atoms: C_7  and  C_8
REMARK    5  A    between atoms: C_8  and  O_10
REMARK    6  A    between atoms: C_12  and  S_13
REMARK    7  A    between atoms: S_13  and  N_16
REMARK    8  A    between atoms: N_16  and  C_17
REMARK    9  A    between atoms: C_26  and  O_27
REMARK   10  A    between atoms: O_27  and  C_28
REMARK                            x       y       z     vdW  Elec       q    Type
REMARK                         _______ _______ _______ _____ _____    ______ ____
ROOT
ATOM      1  C   UNL     1       5.790   4.364  16.388  0.00  0.00    +0.000 A 
ATOM      2  C   UNL     1       6.648   5.441  16.707  0.00  0.00    +0.000 A 
ATOM      3  C   UNL     1       6.391   6.287  17.786  0.00  0.00    +0.000 A 
ATOM      4  C   UNL     1       5.220   6.076  18.514  0.00  0.00    +0.000 A 
ATOM      5  C   UNL     1       4.336   5.050  18.169  0.00  0.00    +0.000 A 
ATOM      6  C   UNL     1       4.593   4.179  17.101  0.00  0.00    +0.000 A 
ENDROOT
BRANCH   5   7
ATOM      7  S   UNL     1       2.942   4.830  19.247  0.00  0.00    +0.000 S 
ATOM      8  O   UNL     1       1.749   4.951  18.419  0.00  0.00    +0.000 OA
ATOM      9  O   UNL     1       3.105   3.704  20.120  0.00  0.00    +0.000 OA
BRANCH   7  10
ATOM     10  N   UNL     1       2.990   6.259  20.126  0.00  0.00    +0.000 N 
ATOM     11  H   UNL     1       3.337   6.158  21.084  0.00  0.00    +0.000 HD
BRANCH  10  12
ATOM     12  C   UNL     1       2.130   7.342  19.842  0.00  0.00    +0.000 A 
ATOM     13  C   UNL     1       1.288   7.845  20.853  0.00  0.00    +0.000 A 
ATOM     14  C   UNL     1       0.683   9.098  20.711  0.00  0.00    +0.000 A 
ATOM     15  C   UNL     1       1.007   9.815  19.583  0.00  0.00    +0.000 A 
ATOM     16  C   UNL     1       1.769   9.279  18.564  0.00  0.00    +0.000 A 
ATOM     17  C   UNL     1       2.300   8.013  18.635  0.00  0.00    +0.000 A 
ATOM     18  O   UNL     1       2.062  10.207  17.608  0.00  0.00    +0.000 OA
ATOM     19  C   UNL     1       1.752  11.398  18.358  0.00  0.00    +0.000 C 
ATOM     20  O   UNL     1       0.770  11.144  19.386  0.00  0.00    +0.000 OA
ENDBRANCH  10  12
ENDBRANCH   7  10
ENDBRANCH   5   7
BRANCH   1  22
ATOM     21  C   UNL     1       6.357   4.064  14.104  0.00  0.00    +0.000 C 
ATOM     22  O   UNL     1       6.119   3.486  15.389  0.00  0.00    +0.000 OA
ENDBRANCH   1  22
BRANCH   3  23
ATOM     23  C   UNL     1       7.398   7.265  18.221  0.00  0.00    +0.000 C 
ATOM     24  C   UNL     1       7.620   8.440  17.610  0.00  0.00    +0.000 C 
BRANCH  24  25
ATOM     25  C   UNL     1       8.560   9.402  18.198  0.00  0.00    +0.000 C 
ATOM     26  O   UNL     1       8.792  10.510  17.741  0.00  0.00    +0.000 OA
BRANCH  25  27
ATOM     27  O   UNL     1       9.175   8.920  19.294  0.00  0.00    +0.000 OA
ATOM     28  H   UNL     1      10.051   8.509  19.140  0.00  0.00    +0.000 HD
ENDBRANCH  25  27
ENDBRANCH  24  25
ENDBRANCH   3  23
BRANCH   6  29
ATOM     29  O   UNL     1       3.676   3.189  16.934  0.00  0.00    +0.000 OA
ATOM     30  C   UNL     1       3.787   1.944  17.602  0.00  0.00    +0.000 C 
ENDBRANCH   6  29
TORSDOF 8
ENDMDL
MODEL 4
REMARK VINA RESULT:      -7.3      0.842      1.467
REMARK  Name = 
REMARK  10 active torsions:
REMARK  status: ('A' for Active; 'I' for Inactive)
REMARK    1  A    between atoms: C_1  and  O_2
REMARK    2  A    between atoms: O_2  and  C_3
REMARK    3  A    between atoms: C_5  and  C_6
REMARK    4  A    between atoms: C_7  and  C_8
REMARK    5  A    between atoms: C_8  and  O_10
REMARK    6  A    between atoms: C_12  and  S_13
REMARK    7  A    between atoms: S_13  and  N_16
REMARK    8  A    between atoms: N_16  and  C_17
REMARK    9  A    between atoms: C_26  and  O_27
REMARK   10  A    between atoms: O_27  and  C_28
REMARK                            x       y       z     vdW  Elec       q    Type
REMARK                         _______ _______ _______ _____ _____    ______ ____
ROOT
ATOM      1  C   UNL     1       6.936   5.847  16.655  0.00  0.00    +0.000 A 
ATOM      2  C   UNL     1       6.619   5.290  15.395  0.00  0.00    +0.000 A 
ATOM      3  C   UNL     1       5.596   4.352  15.246  0.00  0.00    +0.000 A 
ATOM      4  C   UNL     1       4.928   3.929  16.395  0.00  0.00    +0.000 A 
ATOM      5  C   UNL     1       5.276   4.431  17.653  0.00  0.00    +0.000 A 
ATOM      6  C   UNL     1       6.285   5.389  17.814  0.00  0.00    +0.000 A 
ENDROOT
BRANCH   5   7
ATOM      7  S   UNL     1       4.270   3.886  19.012  0.00  0.00    +0.000 S 
ATOM      8  O   UNL     1       3.933   2.492  18.751  0.00  0.00    +0.000 OA
ATOM      9  O   UNL     1       4.818   4.271  20.280  0.00  0.00    +0.000 OA
BRANCH   7  10
ATOM     10  N   UNL     1       2.848   4.726  18.714  0.00  0.00    +0.000 N 
ATOM     11  H   UNL     1       2.250   4.309  17.996  0.00  0.00    +0.000 HD
BRANCH  10  12
ATOM     12  C   UNL     1       2.734   6.113  18.950  0.00  0.00    +0.000 A 
ATOM     13  C   UNL     1       2.913   7.016  17.884  0.00  0.00    +0.000 A 
ATOM     14  C   UNL     1       2.489   8.344  18.004  0.00  0.00    +0.000 A 
ATOM     15  C   UNL     1       1.844   8.682  19.171  0.00  0.00    +0.000 A 
ATOM     16  C   UNL     1       1.747   7.811  20.237  0.00  0.00    +0.000 A 
ATOM     17  C   UNL     1       2.239   6.528  20.183  0.00  0.00    +0.000 A 
ATOM     18  O   UNL     1       0.965   8.316  21.235  0.00  0.00    +0.000 OA
ATOM     19  C   UNL     1       0.306   9.357  20.489  0.00  0.00    +0.000 C 
ATOM     20  O   UNL     1       1.108   9.812  19.377  0.00  0.00    +0.000 OA
ENDBRANCH  10  12
ENDBRANCH   7  10
ENDBRANCH   5   7
BRANCH   1  22
ATOM     21  C   UNL     1       7.414   8.075  17.314  0.00  0.00    +0.000 C 
ATOM     22  O   UNL     1       7.872   6.841  16.758  0.00  0.00    +0.000 OA
ENDBRANCH   1  22
BRANCH   3  23
ATOM     23  C   UNL     1       5.149   3.944  13.906  0.00  0.00    +0.000 C 
ATOM     24  C   UNL     1       5.937   3.341  13.002  0.00  0.00    +0.000 C 
BRANCH  24  25
ATOM     25  C   UNL     1       5.361   2.859  11.740  0.00  0.00    +0.000 C 
ATOM     26  O   UNL     1       4.485   3.435  11.115  0.00  0.00    +0.000 OA
BRANCH  25  27
ATOM     27  O   UNL     1       5.884   1.682  11.351  0.00  0.00    +0.000 OA
ATOM     28  H   UNL     1       6.846   1.687  11.165  0.00  0.00    +0.000 HD
ENDBRANCH  25  27
ENDBRANCH  24  25
ENDBRANCH   3  23
BRANCH   6  29
ATOM     29  O   UNL     1       6.459   5.832  19.089  0.00  0.00    +0.000 OA
ATOM     30  C   UNL     1       7.661   5.604  19.805  0.00  0.00    +0.000 C 
ENDBRANCH   6  29
TORSDOF 8
ENDMDL
MODEL 5
REMARK VINA RESULT:      -7.3      2.238      7.885
REMARK  Name = 
REMARK  10 active torsions:
REMARK  status: ('A' for Active; 'I' for Inactive)
REMARK    1  A    between atoms: C_1  and  O_2
REMARK    2  A    between atoms: O_2  and  C_3
REMARK    3  A    between atoms: C_5  and  C_6
REMARK    4  A    between atoms: C_7  and  C_8
REMARK    5  A    between atoms: C_8  and  O_10
REMARK    6  A    between atoms: C_12  and  S_13
REMARK    7  A    between atoms: S_13  and  N_16
REMARK    8  A    between atoms: N_16  and  C_17
REMARK    9  A    between atoms: C_26  and  O_27
REMARK   10  A    between atoms: O_27  and  C_28
REMARK                            x       y       z     vdW  Elec       q    Type
REMARK                         _______ _______ _______ _____ _____    ______ ____
ROOT
ATOM      1  C   UNL     1       2.233   4.300  20.196  0.00  0.00    +0.000 A 
ATOM      2  C   UNL     1       1.741   5.581  20.535  0.00  0.00    +0.000 A 
ATOM      3  C   UNL     1       2.368   6.746  20.092  0.00  0.00    +0.000 A 
ATOM      4  C   UNL     1       3.540   6.612  19.347  0.00  0.00    +0.000 A 
ATOM      5  C   UNL     1       4.066   5.349  19.058  0.00  0.00    +0.000 A 
ATOM      6  C   UNL     1       3.434   4.171  19.478  0.00  0.00    +0.000 A 
ENDROOT
BRANCH   5   7
ATOM      7  S   UNL     1       5.500   5.326  18.011  0.00  0.00    +0.000 S 
ATOM      8  O   UNL     1       5.767   6.708  17.636  0.00  0.00    +0.000 OA
ATOM      9  O   UNL     1       6.549   4.508  18.547  0.00  0.00    +0.000 OA
BRANCH   7  10
ATOM     10  N   UNL     1       4.871   4.627  16.622  0.00  0.00    +0.000 N 
ATOM     11  H   UNL     1       4.031   4.061  16.773  0.00  0.00    +0.000 HD
BRANCH  10  12
ATOM     12  C   UNL     1       5.676   4.334  15.500  0.00  0.00    +0.000 A 
ATOM     13  C   UNL     1       5.138   3.586  14.434  0.00  0.00    +0.000 A 
ATOM     14  C   UNL     1       5.780   3.563  13.191  0.00  0.00    +0.000 A 
ATOM     15  C   UNL     1       6.902   4.348  13.062  0.00  0.00    +0.000 A 
ATOM     16  C   UNL     1       7.463   5.011  14.135  0.00  0.00    +0.000 A 
ATOM     17  C   UNL     1       6.906   4.976  15.391  0.00  0.00    +0.000 A 
ATOM     18  O   UNL     1       8.492   5.819  13.749  0.00  0.00    +0.000 OA
ATOM     19  C   UNL     1       8.211   5.870  12.337  0.00  0.00    +0.000 C 
ATOM     20  O   UNL     1       7.502   4.695  11.887  0.00  0.00    +0.000 OA
ENDBRANCH  10  12
ENDBRANCH   7  10
ENDBRANCH   5   7
BRANCH   1  22
ATOM     21  C   UNL     1       0.677   2.626  19.558  0.00  0.00    +0.000 C 
ATOM     22  O   UNL     1       1.541   3.173  20.556  0.00  0.00    +0.000 OA
ENDBRANCH   1  22
BRANCH   3  23
ATOM     23  C   UNL     1       1.727   8.055  20.281  0.00  0.00    +0.000 C 
ATOM     24  C   UNL     1       1.266   8.504  21.460  0.00  0.00    +0.000 C 
BRANCH  24  25
ATOM     25  C   UNL     1       0.758   9.877  21.569  0.00  0.00    +0.000 C 
ATOM     26  O   UNL     1       0.618  10.639  20.627  0.00  0.00    +0.000 OA
BRANCH  25  27
ATOM     27  O   UNL     1       0.487  10.227  22.840  0.00  0.00    +0.000 OA
ATOM     28  H   UNL     1      -0.300   9.799  23.238  0.00  0.00    +0.000 HD
ENDBRANCH  25  27
ENDBRANCH  24  25
ENDBRANCH   3  23
BRANCH   6  29
ATOM     29  O   UNL     1       4.027   3.020  19.059  0.00  0.00    +0.000 OA
ATOM     30  C   UNL     1       4.463   2.026  19.971  0.00  0.00    +0.000 C 
ENDBRANCH   6  29
TORSDOF 8
ENDMDL
MODEL 6
REMARK VINA RESULT:      -7.2      2.048      7.783
REMARK  Name = 
REMARK  10 active torsions:
REMARK  status: ('A' for Active; 'I' for Inactive)
REMARK    1  A    between atoms: C_1  and  O_2
REMARK    2  A    between atoms: O_2  and  C_3
REMARK    3  A    between atoms: C_5  and  C_6
REMARK    4  A    between atoms: C_7  and  C_8
REMARK    5  A    between atoms: C_8  and  O_10
REMARK    6  A    between atoms: C_12  and  S_13
REMARK    7  A    between atoms: S_13  and  N_16
REMARK    8  A    between atoms: N_16  and  C_17
REMARK    9  A    between atoms: C_26  and  O_27
REMARK   10  A    between atoms: O_27  and  C_28
REMARK                            x       y       z     vdW  Elec       q    Type
REMARK                         _______ _______ _______ _____ _____    ______ ____
ROOT
ATOM      1  C   UNL     1       2.075   4.038  20.159  0.00  0.00    +0.000 A 
ATOM      2  C   UNL     1       1.501   5.288  20.483  0.00  0.00    +0.000 A 
ATOM      3  C   UNL     1       2.184   6.485  20.264  0.00  0.00    +0.000 A 
ATOM      4  C   UNL     1       3.485   6.411  19.768  0.00  0.00    +0.000 A 
ATOM      5  C   UNL     1       4.082   5.176  19.501  0.00  0.00    +0.000 A 
ATOM      6  C   UNL     1       3.400   3.967  19.695  0.00  0.00    +0.000 A 
ENDROOT
BRANCH   5   7
ATOM      7  S   UNL     1       5.701   5.236  18.771  0.00  0.00    +0.000 S 
ATOM      8  O   UNL     1       5.813   6.529  18.108  0.00  0.00    +0.000 OA
ATOM      9  O   UNL     1       6.720   4.799  19.680  0.00  0.00    +0.000 OA
BRANCH   7  10
ATOM     10  N   UNL     1       5.527   4.134  17.518  0.00  0.00    +0.000 N 
ATOM     11  H   UNL     1       5.581   3.152  17.804  0.00  0.00    +0.000 HD
BRANCH  10  12
ATOM     12  C   UNL     1       5.862   4.457  16.185  0.00  0.00    +0.000 A 
ATOM     13  C   UNL     1       7.186   4.822  15.870  0.00  0.00    +0.000 A 
ATOM     14  C   UNL     1       7.622   4.824  14.541  0.00  0.00    +0.000 A 
ATOM     15  C   UNL     1       6.720   4.393  13.596  0.00  0.00    +0.000 A 
ATOM     16  C   UNL     1       5.404   4.114  13.908  0.00  0.00    +0.000 A 
ATOM     17  C   UNL     1       4.923   4.195  15.193  0.00  0.00    +0.000 A 
ATOM     18  O   UNL     1       4.731   3.592  12.842  0.00  0.00    +0.000 OA
ATOM     19  C   UNL     1       5.862   3.223  12.029  0.00  0.00    +0.000 C 
ATOM     20  O   UNL     1       7.016   4.044  12.310  0.00  0.00    +0.000 OA
ENDBRANCH  10  12
ENDBRANCH   7  10
ENDBRANCH   5   7
BRANCH   1  22
ATOM     21  C   UNL     1       0.749   2.390  19.085  0.00  0.00    +0.000 C 
ATOM     22  O   UNL     1       1.345   2.885  20.285  0.00  0.00    +0.000 OA
ENDBRANCH   1  22
BRANCH   3  23
ATOM     23  C   UNL     1       1.493   7.774  20.414  0.00  0.00    +0.000 C 
ATOM     24  C   UNL     1       0.434   7.972  21.215  0.00  0.00    +0.000 C 
BRANCH  24  25
ATOM     25  C   UNL     1      -0.104   9.327  21.392  0.00  0.00    +0.000 C 
ATOM     26  O   UNL     1      -0.485  10.043  20.481  0.00  0.00    +0.000 OA
BRANCH  25  27
ATOM     27  O   UNL     1      -0.105   9.718  22.679  0.00  0.00    +0.000 OA
ATOM     28  H   UNL     1      -0.600  10.542  22.871  0.00  0.00    +0.000 HD
ENDBRANCH  25  27
ENDBRANCH  24  25
ENDBRANCH   3  23
BRANCH   6  29
ATOM     29  O   UNL     1       4.087   2.854  19.323  0.00  0.00    +0.000 OA
ATOM     30  C   UNL     1       4.670   1.979  20.274  0.00  0.00    +0.000 C 
ENDBRANCH   6  29
TORSDOF 8
ENDMDL
MODEL 7
REMARK VINA RESULT:      -7.1      2.268      4.875
REMARK  Name = 
REMARK  10 active torsions:
REMARK  status: ('A' for Active; 'I' for Inactive)
REMARK    1  A    between atoms: C_1  and  O_2
REMARK    2  A    between atoms: O_2  and  C_3
REMARK    3  A    between atoms: C_5  and  C_6
REMARK    4  A    between atoms: C_7  and  C_8
REMARK    5  A    between atoms: C_8  and  O_10
REMARK    6  A    between atoms: C_12  and  S_13
REMARK    7  A    between atoms: S_13  and  N_16
REMARK    8  A    between atoms: N_16  and  C_17
REMARK    9  A    between atoms: C_26  and  O_27
REMARK   10  A    between atoms: O_27  and  C_28
REMARK                            x       y       z     vdW  Elec       q    Type
REMARK                         _______ _______ _______ _____ _____    ______ ____
ROOT
ATOM      1  C   UNL     1       6.064   4.666  16.257  0.00  0.00    +0.000 A 
ATOM      2  C   UNL     1       6.987   5.712  16.486  0.00  0.00    +0.000 A 
ATOM      3  C   UNL     1       6.726   6.731  17.402  0.00  0.00    +0.000 A 
ATOM      4  C   UNL     1       5.491   6.724  18.049  0.00  0.00    +0.000 A 
ATOM      5  C   UNL     1       4.547   5.727  17.784  0.00  0.00    +0.000 A 
ATOM      6  C   UNL     1       4.805   4.685  16.883  0.00  0.00    +0.000 A 
ENDROOT
BRANCH   5   7
ATOM      7  S   UNL     1       3.063   5.782  18.759  0.00  0.00    +0.000 S 
ATOM      8  O   UNL     1       1.949   5.630  17.832  0.00  0.00    +0.000 OA
ATOM      9  O   UNL     1       3.151   4.954  19.926  0.00  0.00    +0.000 OA
BRANCH   7  10
ATOM     10  N   UNL     1       3.028   7.402  19.196  0.00  0.00    +0.000 N 
ATOM     11  H   UNL     1       3.911   7.761  19.570  0.00  0.00    +0.000 HD
BRANCH  10  12
ATOM     12  C   UNL     1       1.833   8.049  19.578  0.00  0.00    +0.000 A 
ATOM     13  C   UNL     1       1.292   7.812  20.857  0.00  0.00    +0.000 A 
ATOM     14  C   UNL     1       0.319   8.668  21.382  0.00  0.00    +0.000 A 
ATOM     15  C   UNL     1      -0.017   9.762  20.619  0.00  0.00    +0.000 A 
ATOM     16  C   UNL     1       0.460   9.939  19.336  0.00  0.00    +0.000 A 
ATOM     17  C   UNL     1       1.347   9.062  18.757  0.00  0.00    +0.000 A 
ATOM     18  O   UNL     1       0.092  11.146  18.820  0.00  0.00    +0.000 OA
ATOM     19  C   UNL     1      -0.286  11.801  20.047  0.00  0.00    +0.000 C 
ATOM     20  O   UNL     1      -0.709  10.855  21.052  0.00  0.00    +0.000 OA
ENDBRANCH  10  12
ENDBRANCH   7  10
ENDBRANCH   5   7
BRANCH   1  22
ATOM     21  C   UNL     1       6.168   3.840  14.036  0.00  0.00    +0.000 C 
ATOM     22  O   UNL     1       6.388   3.623  15.430  0.00  0.00    +0.000 OA
ENDBRANCH   1  22
BRANCH   3  23
ATOM     23  C   UNL     1       7.781   7.686  17.774  0.00  0.00    +0.000 C 
ATOM     24  C   UNL     1       7.608   9.016  17.825  0.00  0.00    +0.000 C 
BRANCH  24  25
ATOM     25  C   UNL     1       8.687   9.873  18.331  0.00  0.00    +0.000 C 
ATOM     26  O   UNL     1       9.424   9.581  19.259  0.00  0.00    +0.000 OA
BRANCH  25  27
ATOM     27  O   UNL     1       8.762  11.048  17.679  0.00  0.00    +0.000 OA
ATOM     28  H   UNL     1       8.083  11.192  16.987  0.00  0.00    +0.000 HD
ENDBRANCH  25  27
ENDBRANCH  24  25
ENDBRANCH   3  23
BRANCH   6  29
ATOM     29  O   UNL     1       3.820   3.753  16.785  0.00  0.00    +0.000 OA
ATOM     30  C   UNL     1       3.843   2.555  17.542  0.00  0.00    +0.000 C 
ENDBRANCH   6  29
TORSDOF 8
ENDMDL
MODEL 8
REMARK VINA RESULT:      -7.0      2.059      7.744
REMARK  Name = 
REMARK  10 active torsions:
REMARK  status: ('A' for Active; 'I' for Inactive)
REMARK    1  A    between atoms: C_1  and  O_2
REMARK    2  A    between atoms: O_2  and  C_3
REMARK    3  A    between atoms: C_5  and  C_6
REMARK    4  A    between atoms: C_7  and  C_8
REMARK    5  A    between atoms: C_8  and  O_10
REMARK    6  A    between atoms: C_12  and  S_13
REMARK    7  A    between atoms: S_13  and  N_16
REMARK    8  A    between atoms: N_16  and  C_17
REMARK    9  A    between atoms: C_26  and  O_27
REMARK   10  A    between atoms: O_27  and  C_28
REMARK                            x       y       z     vdW  Elec       q    Type
REMARK                         _______ _______ _______ _____ _____    ______ ____
ROOT
ATOM      1  C   UNL     1       2.898   5.473  19.609  0.00  0.00    +0.000 A 
ATOM      2  C   UNL     1       2.220   6.687  19.355  0.00  0.00    +0.000 A 
ATOM      3  C   UNL     1       2.645   7.568  18.359  0.00  0.00    +0.000 A 
ATOM      4  C   UNL     1       3.803   7.243  17.653  0.00  0.00    +0.000 A 
ATOM      5  C   UNL     1       4.513   6.073  17.939  0.00  0.00    +0.000 A 
ATOM      6  C   UNL     1       4.086   5.169  18.922  0.00  0.00    +0.000 A 
ENDROOT
BRANCH   5   7
ATOM      7  S   UNL     1       5.906   5.733  16.891  0.00  0.00    +0.000 S 
ATOM      8  O   UNL     1       6.142   6.938  16.105  0.00  0.00    +0.000 OA
ATOM      9  O   UNL     1       6.984   5.115  17.606  0.00  0.00    +0.000 OA
BRANCH   7  10
ATOM     10  N   UNL     1       5.231   4.647  15.804  0.00  0.00    +0.000 N 
ATOM     11  H   UNL     1       4.778   3.838  16.237  0.00  0.00    +0.000 HD
BRANCH  10  12
ATOM     12  C   UNL     1       5.712   4.512  14.484  0.00  0.00    +0.000 A 
ATOM     13  C   UNL     1       6.999   4.985  14.161  0.00  0.00    +0.000 A 
ATOM     14  C   UNL     1       7.625   4.580  12.979  0.00  0.00    +0.000 A 
ATOM     15  C   UNL     1       6.951   3.662  12.207  0.00  0.00    +0.000 A 
ATOM     16  C   UNL     1       5.659   3.267  12.494  0.00  0.00    +0.000 A 
ATOM     17  C   UNL     1       4.983   3.723  13.600  0.00  0.00    +0.000 A 
ATOM     18  O   UNL     1       5.240   2.266  11.667  0.00  0.00    +0.000 OA
ATOM     19  C   UNL     1       6.524   1.851  11.160  0.00  0.00    +0.000 C 
ATOM     20  O   UNL     1       7.487   2.926  11.190  0.00  0.00    +0.000 OA
ENDBRANCH  10  12
ENDBRANCH   7  10
ENDBRANCH   5   7
BRANCH   1  22
ATOM     21  C   UNL     1       1.045   4.175  20.323  0.00  0.00    +0.000 C 
ATOM     22  O   UNL     1       2.401   4.579  20.521  0.00  0.00    +0.000 OA
ENDBRANCH   1  22
BRANCH   3  23
ATOM     23  C   UNL     1       1.810   8.716  17.975  0.00  0.00    +0.000 C 
ATOM     24  C   UNL     1       1.093   9.447  18.842  0.00  0.00    +0.000 C 
BRANCH  24  25
ATOM     25  C   UNL     1       0.394  10.652  18.377  0.00  0.00    +0.000 C 
ATOM     26  O   UNL     1       0.678  11.790  18.714  0.00  0.00    +0.000 OA
BRANCH  25  27
ATOM     27  O   UNL     1      -0.629  10.368  17.550  0.00  0.00    +0.000 OA
ATOM     28  H   UNL     1      -1.397  10.975  17.604  0.00  0.00    +0.000 HD
ENDBRANCH  25  27
ENDBRANCH  24  25
ENDBRANCH   3  23
BRANCH   6  29
ATOM     29  O   UNL     1       4.841   4.044  19.035  0.00  0.00    +0.000 OA
ATOM     30  C   UNL     1       4.293   2.751  18.841  0.00  0.00    +0.000 C 
ENDBRANCH   6  29
TORSDOF 8
ENDMDL
MODEL 9
REMARK VINA RESULT:      -6.9      1.932      7.503
REMARK  Name = 
REMARK  10 active torsions:
REMARK  status: ('A' for Active; 'I' for Inactive)
REMARK    1  A    between atoms: C_1  and  O_2
REMARK    2  A    between atoms: O_2  and  C_3
REMARK    3  A    between atoms: C_5  and  C_6
REMARK    4  A    between atoms: C_7  and  C_8
REMARK    5  A    between atoms: C_8  and  O_10
REMARK    6  A    between atoms: C_12  and  S_13
REMARK    7  A    between atoms: S_13  and  N_16
REMARK    8  A    between atoms: N_16  and  C_17
REMARK    9  A    between atoms: C_26  and  O_27
REMARK   10  A    between atoms: O_27  and  C_28
REMARK                            x       y       z     vdW  Elec       q    Type
REMARK                         _______ _______ _______ _____ _____    ______ ____
ROOT
ATOM      1  C   UNL     1       2.916   4.774  20.030  0.00  0.00    +0.000 A 
ATOM      2  C   UNL     1       2.443   6.059  19.682  0.00  0.00    +0.000 A 
ATOM      3  C   UNL     1       2.946   6.750  18.579  0.00  0.00    +0.000 A 
ATOM      4  C   UNL     1       3.981   6.158  17.857  0.00  0.00    +0.000 A 
ATOM      5  C   UNL     1       4.496   4.913  18.230  0.00  0.00    +0.000 A 
ATOM      6  C   UNL     1       3.985   4.198  19.322  0.00  0.00    +0.000 A 
ENDROOT
BRANCH   5   7
ATOM      7  S   UNL     1       5.737   4.232  17.157  0.00  0.00    +0.000 S 
ATOM      8  O   UNL     1       7.010   4.362  17.854  0.00  0.00    +0.000 OA
ATOM      9  O   UNL     1       5.342   2.969  16.605  0.00  0.00    +0.000 OA
BRANCH   7  10
ATOM     10  N   UNL     1       5.795   5.400  15.954  0.00  0.00    +0.000 N 
ATOM     11  H   UNL     1       5.219   6.226  16.135  0.00  0.00    +0.000 HD
BRANCH  10  12
ATOM     12  C   UNL     1       6.092   5.078  14.612  0.00  0.00    +0.000 A 
ATOM     13  C   UNL     1       7.389   5.308  14.112  0.00  0.00    +0.000 A 
ATOM     14  C   UNL     1       7.803   4.708  12.918  0.00  0.00    +0.000 A 
ATOM     15  C   UNL     1       6.911   3.851  12.317  0.00  0.00    +0.000 A 
ATOM     16  C   UNL     1       5.617   3.696  12.773  0.00  0.00    +0.000 A 
ATOM     17  C   UNL     1       5.152   4.347  13.891  0.00  0.00    +0.000 A 
ATOM     18  O   UNL     1       4.957   2.711  12.099  0.00  0.00    +0.000 OA
ATOM     19  C   UNL     1       6.094   2.052  11.508  0.00  0.00    +0.000 C 
ATOM     20  O   UNL     1       7.206   2.956  11.330  0.00  0.00    +0.000 OA
ENDBRANCH  10  12
ENDBRANCH   7  10
ENDBRANCH   5   7
BRANCH   1  22
ATOM     21  C   UNL     1       1.091   3.438  20.747  0.00  0.00    +0.000 C 
ATOM     22  O   UNL     1       2.334   4.073  21.054  0.00  0.00    +0.000 OA
ENDBRANCH   1  22
BRANCH   3  23
ATOM     23  C   UNL     1       2.299   7.987  18.117  0.00  0.00    +0.000 C 
ATOM     24  C   UNL     1       1.673   8.856  18.926  0.00  0.00    +0.000 C 
BRANCH  24  25
ATOM     25  C   UNL     1       1.170  10.125  18.384  0.00  0.00    +0.000 C 
ATOM     26  O   UNL     1       0.127  10.658  18.726  0.00  0.00    +0.000 OA
BRANCH  25  27
ATOM     27  O   UNL     1       1.974  10.635  17.433  0.00  0.00    +0.000 OA
ATOM     28  H   UNL     1       2.934  10.597  17.626  0.00  0.00    +0.000 HD
ENDBRANCH  25  27
ENDBRANCH  24  25
ENDBRANCH   3  23
BRANCH   6  29
ATOM     29  O   UNL     1       4.541   2.972  19.517  0.00  0.00    +0.000 OA
ATOM     30  C   UNL     1       3.856   1.777  19.182  0.00  0.00    +0.000 C 
ENDBRANCH   6  29
TORSDOF 8
ENDMDL
