MODEL 1
REMARK VINA RESULT:      -8.0      0.000      0.000
REMARK  Name = 
REMARK  6 active torsions:
REMARK  status: ('A' for Active; 'I' for Inactive)
REMARK    1  A    between atoms: C_2  and  C_11
REMARK    2  A    between atoms: N_3  and  C_4
REMARK    3  A    between atoms: C_14  and  C_15
REMARK    4  A    between atoms: C_15  and  N_16
REMARK    5  A    between atoms: N_20  and  C_21
REMARK    6  A    between atoms: C_21  and  C_22
REMARK                            x       y       z     vdW  Elec       q    Type
REMARK                         _______ _______ _______ _____ _____    ______ ____
ROOT
ATOM      1  C   UNL     1       1.707   8.749  19.295  0.00  0.00    +0.000 A 
ATOM      2  C   UNL     1       2.403   7.715  18.667  0.00  0.00    +0.000 A 
ATOM      3  C   UNL     1       2.485   6.456  19.273  0.00  0.00    +0.000 A 
ATOM      4  C   UNL     1       1.875   6.216  20.514  0.00  0.00    +0.000 A 
ATOM      5  C   UNL     1       1.132   7.258  21.105  0.00  0.00    +0.000 A 
ATOM      6  C   UNL     1       1.047   8.516  20.505  0.00  0.00    +0.000 A 
ENDROOT
BRANCH   1   8
ATOM      7  O   UNL     1       2.072  10.203  17.498  0.00  0.00    +0.000 OA
ATOM      8  C   UNL     1       1.680  10.094  18.657  0.00  0.00    +0.000 C 
ATOM      9  N   UNL     1       1.259  11.115  19.492  0.00  0.00    +0.000 N 
ATOM     10  H   UNL     1       1.147  10.884  20.470  0.00  0.00    +0.000 HD
BRANCH   9  11
ATOM     11  C   UNL     1       1.160  12.486  19.172  0.00  0.00    +0.000 A 
ATOM     12  C   UNL     1       2.263  13.333  19.054  0.00  0.00    +0.000 A 
ATOM     13  C   UNL     1       2.086  14.696  18.787  0.00  0.00    +0.000 A 
ATOM     14  C   UNL     1       0.802  15.211  18.634  0.00  0.00    +0.000 A 
ATOM     15 CL   UNL     1       0.583  16.893  18.354  0.00  0.00    +0.000 Cl
ATOM     16  C   UNL     1      -0.305  14.371  18.715  0.00  0.00    +0.000 A 
ATOM     17  C   UNL     1      -0.125  13.009  18.973  0.00  0.00    +0.000 A 
ENDBRANCH   9  11
ENDBRANCH   1   8
BRANCH   4  18
ATOM     18  C   UNL     1       2.011   4.880  21.226  0.00  0.00    +0.000 C 
BRANCH  18  19
ATOM     19  N   UNL     1       2.234   3.691  20.364  0.00  0.00    +0.000 NA
ATOM     20  C   UNL     1       3.656   3.357  20.243  0.00  0.00    +0.000 C 
ATOM     21  C   UNL     1       4.028   1.997  19.649  0.00  0.00    +0.000 C 
ATOM     22  C   UNL     1       3.778   1.713  18.164  0.00  0.00    +0.000 C 
ATOM     23  N   UNL     1       2.915   2.596  17.388  0.00  0.00    +0.000 NA
ATOM     24  C   UNL     1       1.605   2.720  18.043  0.00  0.00    +0.000 C 
ATOM     25  C   UNL     1       1.457   3.806  19.124  0.00  0.00    +0.000 C 
BRANCH  23  26
ATOM     26  C   UNL     1       3.516   3.873  16.960  0.00  0.00    +0.000 C 
BRANCH  26  27
ATOM     27  C   UNL     1       5.041   3.804  16.669  0.00  0.00    +0.000 C 
ATOM     28  C   UNL     1       5.427   4.507  15.363  0.00  0.00    +0.000 C 
ATOM     29  C   UNL     1       5.240   6.018  15.452  0.00  0.00    +0.000 C 
ATOM     30  C   UNL     1       6.033   6.632  16.600  0.00  0.00    +0.000 C 
ATOM     31  C   UNL     1       5.913   5.886  17.927  0.00  0.00    +0.000 C 
ATOM     32  C   UNL     1       5.897   4.366  17.817  0.00  0.00    +0.000 C 
ENDBRANCH  26  27
ENDBRANCH  23  26
ENDBRANCH  18  19
ENDBRANCH   4  18
TORSDOF 6
ENDMDL
MODEL 2
REMARK VINA RESULT:      -8.0      4.499      6.619
REMARK  Name = 
REMARK  6 active torsions:
REMARK  status: ('A' for Active; 'I' for Inactive)
REMARK    1  A    between atoms: C_2  and  C_11
REMARK    2  A    between atoms: N_3  and  C_4
REMARK    3  A    between atoms: C_14  and  C_15
REMARK    4  A    between atoms: C_15  and  N_16
REMARK    5  A    between atoms: N_20  and  C_21
REMARK    6  A    between atoms: C_21  and  C_22
REMARK                            x       y       z     vdW  Elec       q    Type
REMARK                         _______ _______ _______ _____ _____    ______ ____
ROOT
ATOM      1  C   UNL     1       7.490   7.852  17.915  0.00  0.00    +0.000 A 
ATOM      2  C   UNL     1       6.368   7.572  17.133  0.00  0.00    +0.000 A 
ATOM      3  C   UNL     1       5.847   6.273  17.093  0.00  0.00    +0.000 A 
ATOM      4  C   UNL     1       6.442   5.239  17.833  0.00  0.00    +0.000 A 
ATOM      5  C   UNL     1       7.541   5.555  18.657  0.00  0.00    +0.000 A 
ATOM      6  C   UNL     1       8.065   6.849  18.701  0.00  0.00    +0.000 A 
ENDROOT
BRANCH   1   8
ATOM      7  O   UNL     1       7.670  10.014  17.038  0.00  0.00    +0.000 OA
ATOM      8  C   UNL     1       8.057   9.228  17.899  0.00  0.00    +0.000 C 
ATOM      9  N   UNL     1       9.036   9.455  18.852  0.00  0.00    +0.000 N 
ATOM     10  H   UNL     1       9.366   8.649  19.364  0.00  0.00    +0.000 HD
BRANCH   9  11
ATOM     11  C   UNL     1       9.764  10.647  19.052  0.00  0.00    +0.000 A 
ATOM     12  C   UNL     1      10.457  11.308  18.036  0.00  0.00    +0.000 A 
ATOM     13  C   UNL     1      11.204  12.457  18.319  0.00  0.00    +0.000 A 
ATOM     14  C   UNL     1      11.257  12.948  19.620  0.00  0.00    +0.000 A 
ATOM     15 CL   UNL     1      12.214  14.332  19.976  0.00  0.00    +0.000 Cl
ATOM     16  C   UNL     1      10.543  12.318  20.636  0.00  0.00    +0.000 A 
ATOM     17  C   UNL     1       9.790  11.175  20.350  0.00  0.00    +0.000 A 
ENDBRANCH   9  11
ENDBRANCH   1   8
BRANCH   4  18
ATOM     18  C   UNL     1       5.941   3.806  17.749  0.00  0.00    +0.000 C 
BRANCH  18  19
ATOM     19  N   UNL     1       4.616   3.533  18.363  0.00  0.00    +0.000 NA
ATOM     20  C   UNL     1       3.579   3.296  17.355  0.00  0.00    +0.000 C 
ATOM     21  C   UNL     1       2.246   2.705  17.820  0.00  0.00    +0.000 C 
ATOM     22  C   UNL     1       1.295   3.542  18.681  0.00  0.00    +0.000 C 
ATOM     23  N   UNL     1       1.771   4.764  19.319  0.00  0.00    +0.000 NA
ATOM     24  C   UNL     1       2.964   4.475  20.127  0.00  0.00    +0.000 C 
ATOM     25  C   UNL     1       4.327   4.518  19.414  0.00  0.00    +0.000 C 
BRANCH  23  26
ATOM     26  C   UNL     1       1.888   5.945  18.444  0.00  0.00    +0.000 C 
BRANCH  26  27
ATOM     27  C   UNL     1       2.665   7.137  19.067  0.00  0.00    +0.000 C 
ATOM     28  C   UNL     1       2.902   8.276  18.068  0.00  0.00    +0.000 C 
ATOM     29  C   UNL     1       1.604   8.976  17.682  0.00  0.00    +0.000 C 
ATOM     30  C   UNL     1       0.861   9.525  18.895  0.00  0.00    +0.000 C 
ATOM     31  C   UNL     1       0.748   8.553  20.066  0.00  0.00    +0.000 C 
ATOM     32  C   UNL     1       1.987   7.704  20.326  0.00  0.00    +0.000 C 
ENDBRANCH  26  27
ENDBRANCH  23  26
ENDBRANCH  18  19
ENDBRANCH   4  18
TORSDOF 6
ENDMDL
MODEL 3
REMARK VINA RESULT:      -7.9      3.324      3.954
REMARK  Name = 
REMARK  6 active torsions:
REMARK  status: ('A' for Active; 'I' for Inactive)
REMARK    1  A    between atoms: C_2  and  C_11
REMARK    2  A    between atoms: N_3  and  C_4
REMARK    3  A    between atoms: C_14  and  C_15
REMARK    4  A    between atoms: C_15  and  N_16
REMARK    5  A    between atoms: N_20  and  C_21
REMARK    6  A    between atoms: C_21  and  C_22
REMARK                            x       y       z     vdW  Elec       q    Type
REMARK                         _______ _______ _______ _____ _____    ______ ____
ROOT
ATOM      1  C   UNL     1      -0.292  10.266  20.780  0.00  0.00    +0.000 A 
ATOM      2  C   UNL     1       0.221  10.226  19.483  0.00  0.00    +0.000 A 
ATOM      3  C   UNL     1       1.141   9.234  19.122  0.00  0.00    +0.000 A 
ATOM      4  C   UNL     1       1.561   8.273  20.055  0.00  0.00    +0.000 A 
ATOM      5  C   UNL     1       0.991   8.300  21.344  0.00  0.00    +0.000 A 
ATOM      6  C   UNL     1       0.073   9.286  21.709  0.00  0.00    +0.000 A 
ENDROOT
BRANCH   1   8
ATOM      7  O   UNL     1      -1.888  11.899  20.269  0.00  0.00    +0.000 OA
ATOM      8  C   UNL     1      -1.227  11.362  21.154  0.00  0.00    +0.000 C 
ATOM      9  N   UNL     1      -1.199  11.706  22.496  0.00  0.00    +0.000 N 
ATOM     10  H   UNL     1      -0.467  11.290  23.055  0.00  0.00    +0.000 HD
BRANCH   9  11
ATOM     11  C   UNL     1      -1.951  12.719  23.127  0.00  0.00    +0.000 A 
ATOM     12  C   UNL     1      -3.308  12.599  23.431  0.00  0.00    +0.000 A 
ATOM     13  C   UNL     1      -4.003  13.669  24.008  0.00  0.00    +0.000 A 
ATOM     14  C   UNL     1      -3.338  14.859  24.285  0.00  0.00    +0.000 A 
ATOM     15 CL   UNL     1      -4.203  16.189  24.950  0.00  0.00    +0.000 Cl
ATOM     16  C   UNL     1      -1.977  14.980  24.019  0.00  0.00    +0.000 A 
ATOM     17  C   UNL     1      -1.283  13.908  23.450  0.00  0.00    +0.000 A 
ENDBRANCH   9  11
ENDBRANCH   1   8
BRANCH   4  18
ATOM     18  C   UNL     1       2.613   7.231  19.710  0.00  0.00    +0.000 C 
BRANCH  18  19
ATOM     19  N   UNL     1       2.123   5.848  19.479  0.00  0.00    +0.000 NA
ATOM     20  C   UNL     1       2.732   4.886  20.401  0.00  0.00    +0.000 C 
ATOM     21  C   UNL     1       2.113   3.490  20.495  0.00  0.00    +0.000 C 
ATOM     22  C   UNL     1       2.228   2.517  19.317  0.00  0.00    +0.000 C 
ATOM     23  N   UNL     1       2.641   3.005  18.006  0.00  0.00    +0.000 NA
ATOM     24  C   UNL     1       1.769   4.111  17.586  0.00  0.00    +0.000 C 
ATOM     25  C   UNL     1       2.156   5.528  18.046  0.00  0.00    +0.000 C 
BRANCH  23  26
ATOM     26  C   UNL     1       4.084   3.255  17.836  0.00  0.00    +0.000 C 
BRANCH  26  27
ATOM     27  C   UNL     1       4.429   4.588  17.114  0.00  0.00    +0.000 C 
ATOM     28  C   UNL     1       5.477   5.414  17.867  0.00  0.00    +0.000 C 
ATOM     29  C   UNL     1       6.847   4.743  17.857  0.00  0.00    +0.000 C 
ATOM     30  C   UNL     1       7.348   4.473  16.443  0.00  0.00    +0.000 C 
ATOM     31  C   UNL     1       6.314   3.847  15.510  0.00  0.00    +0.000 C 
ATOM     32  C   UNL     1       4.895   4.382  15.663  0.00  0.00    +0.000 C 
ENDBRANCH  26  27
ENDBRANCH  23  26
ENDBRANCH  18  19
ENDBRANCH   4  18
TORSDOF 6
ENDMDL
MODEL 4
REMARK VINA RESULT:      -7.9      4.012      4.891
REMARK  Name = 
REMARK  6 active torsions:
REMARK  status: ('A' for Active; 'I' for Inactive)
REMARK    1  A    between atoms: C_2  and  C_11
REMARK    2  A    between atoms: N_3  and  C_4
REMARK    3  A    between atoms: C_14  and  C_15
REMARK    4  A    between atoms: C_15  and  N_16
REMARK    5  A    between atoms: N_20  and  C_21
REMARK    6  A    between atoms: C_21  and  C_22
REMARK                            x       y       z     vdW  Elec       q    Type
REMARK                         _______ _______ _______ _____ _____    ______ ____
ROOT
ATOM      1  C   UNL     1      -0.872  11.239  21.907  0.00  0.00    +0.000 A 
ATOM      2  C   UNL     1      -0.377  10.912  20.643  0.00  0.00    +0.000 A 
ATOM      3  C   UNL     1       0.486   9.821  20.488  0.00  0.00    +0.000 A 
ATOM      4  C   UNL     1       0.867   9.045  21.594  0.00  0.00    +0.000 A 
ATOM      5  C   UNL     1       0.314   9.360  22.852  0.00  0.00    +0.000 A 
ATOM      6  C   UNL     1      -0.548  10.447  23.013  0.00  0.00    +0.000 A 
ENDROOT
BRANCH   1   8
ATOM      7  O   UNL     1      -1.988  13.112  21.059  0.00  0.00    +0.000 OA
ATOM      8  C   UNL     1      -1.745  12.435  22.054  0.00  0.00    +0.000 C 
ATOM      9  N   UNL     1      -2.148  12.693  23.354  0.00  0.00    +0.000 N 
ATOM     10  H   UNL     1      -1.710  12.145  24.081  0.00  0.00    +0.000 HD
BRANCH   9  11
ATOM     11  C   UNL     1      -2.949  13.767  23.796  0.00  0.00    +0.000 A 
ATOM     12  C   UNL     1      -4.322  13.855  23.559  0.00  0.00    +0.000 A 
ATOM     13  C   UNL     1      -5.044  14.978  23.980  0.00  0.00    +0.000 A 
ATOM     14  C   UNL     1      -4.392  16.014  24.642  0.00  0.00    +0.000 A 
ATOM     15 CL   UNL     1      -5.270  17.415  25.116  0.00  0.00    +0.000 Cl
ATOM     16  C   UNL     1      -3.030  15.924  24.915  0.00  0.00    +0.000 A 
ATOM     17  C   UNL     1      -2.312  14.797  24.501  0.00  0.00    +0.000 A 
ENDBRANCH   9  11
ENDBRANCH   1   8
BRANCH   4  18
ATOM     18  C   UNL     1       1.860   7.902  21.464  0.00  0.00    +0.000 C 
BRANCH  18  19
ATOM     19  N   UNL     1       1.667   6.986  20.310  0.00  0.00    +0.000 NA
ATOM     20  C   UNL     1       1.963   5.593  20.656  0.00  0.00    +0.000 C 
ATOM     21  C   UNL     1       1.524   4.501  19.679  0.00  0.00    +0.000 C 
ATOM     22  C   UNL     1       2.212   4.367  18.316  0.00  0.00    +0.000 C 
ATOM     23  N   UNL     1       3.055   5.448  17.815  0.00  0.00    +0.000 NA
ATOM     24  C   UNL     1       2.302   6.709  17.811  0.00  0.00    +0.000 C 
ATOM     25  C   UNL     1       2.306   7.537  19.109  0.00  0.00    +0.000 C 
BRANCH  23  26
ATOM     26  C   UNL     1       4.406   5.535  18.399  0.00  0.00    +0.000 C 
BRANCH  26  27
ATOM     27  C   UNL     1       5.408   6.400  17.584  0.00  0.00    +0.000 C 
ATOM     28  C   UNL     1       6.870   6.073  17.906  0.00  0.00    +0.000 C 
ATOM     29  C   UNL     1       7.263   4.682  17.421  0.00  0.00    +0.000 C 
ATOM     30  C   UNL     1       7.032   4.504  15.925  0.00  0.00    +0.000 C 
ATOM     31  C   UNL     1       5.678   5.004  15.427  0.00  0.00    +0.000 C 
ATOM     32  C   UNL     1       5.190   6.300  16.065  0.00  0.00    +0.000 C 
ENDBRANCH  26  27
ENDBRANCH  23  26
ENDBRANCH  18  19
ENDBRANCH   4  18
TORSDOF 6
ENDMDL
MODEL 5
REMARK VINA RESULT:      -7.7      4.941     10.509
REMARK  Name = 
REMARK  6 active torsions:
REMARK  status: ('A' for Active; 'I' for Inactive)
REMARK    1  A    between atoms: C_2  and  C_11
REMARK    2  A    between atoms: N_3  and  C_4
REMARK    3  A    between atoms: C_14  and  C_15
REMARK    4  A    between atoms: C_15  and  N_16
REMARK    5  A    between atoms: N_20  and  C_21
REMARK    6  A    between atoms: C_21  and  C_22
REMARK                            x       y       z     vdW  Elec       q    Type
REMARK                         _______ _______ _______ _____ _____    ______ ____
ROOT
ATOM      1  C   UNL     1       1.303   9.119  19.659  0.00  0.00    +0.000 A 
ATOM      2  C   UNL     1       0.933  10.458  19.528  0.00  0.00    +0.000 A 
ATOM      3  C   UNL     1       0.180  11.080  20.531  0.00  0.00    +0.000 A 
ATOM      4  C   UNL     1      -0.214  10.370  21.676  0.00  0.00    +0.000 A 
ATOM      5  C   UNL     1       0.216   9.034  21.813  0.00  0.00    +0.000 A 
ATOM      6  C   UNL     1       0.967   8.409  20.816  0.00  0.00    +0.000 A 
ENDROOT
BRANCH   1   8
ATOM      7  O   UNL     1       2.103   9.025  17.463  0.00  0.00    +0.000 OA
ATOM      8  C   UNL     1       2.057   8.466  18.555  0.00  0.00    +0.000 C 
ATOM      9  N   UNL     1       2.589   7.228  18.879  0.00  0.00    +0.000 N 
ATOM     10  H   UNL     1       2.305   6.830  19.763  0.00  0.00    +0.000 HD
BRANCH   9  11
ATOM     11  C   UNL     1       3.322   6.372  18.030  0.00  0.00    +0.000 A 
ATOM     12  C   UNL     1       3.040   5.014  17.872  0.00  0.00    +0.000 A 
ATOM     13  C   UNL     1       3.846   4.214  17.053  0.00  0.00    +0.000 A 
ATOM     14  C   UNL     1       4.932   4.773  16.387  0.00  0.00    +0.000 A 
ATOM     15 CL   UNL     1       5.949   3.780  15.420  0.00  0.00    +0.000 Cl
ATOM     16  C   UNL     1       5.203   6.133  16.509  0.00  0.00    +0.000 A 
ATOM     17  C   UNL     1       4.393   6.933  17.321  0.00  0.00    +0.000 A 
ENDBRANCH   9  11
ENDBRANCH   1   8
BRANCH   4  18
ATOM     18  C   UNL     1      -1.093  11.000  22.745  0.00  0.00    +0.000 C 
BRANCH  18  19
ATOM     19  N   UNL     1      -1.736  12.292  22.393  0.00  0.00    +0.000 NA
ATOM     20  C   UNL     1      -2.599  12.789  23.469  0.00  0.00    +0.000 C 
ATOM     21  C   UNL     1      -3.086  14.237  23.390  0.00  0.00    +0.000 C 
ATOM     22  C   UNL     1      -4.096  14.650  22.315  0.00  0.00    +0.000 C 
ATOM     23  N   UNL     1      -4.360  13.767  21.184  0.00  0.00    +0.000 NA
ATOM     24  C   UNL     1      -3.101  13.432  20.505  0.00  0.00    +0.000 C 
ATOM     25  C   UNL     1      -2.308  12.227  21.042  0.00  0.00    +0.000 C 
BRANCH  23  26
ATOM     26  C   UNL     1      -5.241  12.617  21.456  0.00  0.00    +0.000 C 
BRANCH  26  27
ATOM     27  C   UNL     1      -6.664  12.733  20.842  0.00  0.00    +0.000 C 
ATOM     28  C   UNL     1      -6.640  13.163  19.371  0.00  0.00    +0.000 C 
ATOM     29  C   UNL     1      -6.047  12.083  18.471  0.00  0.00    +0.000 C 
ATOM     30  C   UNL     1      -6.792  10.759  18.590  0.00  0.00    +0.000 C 
ATOM     31  C   UNL     1      -7.083  10.318  20.022  0.00  0.00    +0.000 C 
ATOM     32  C   UNL     1      -7.483  11.438  20.976  0.00  0.00    +0.000 C 
ENDBRANCH  26  27
ENDBRANCH  23  26
ENDBRANCH  18  19
ENDBRANCH   4  18
TORSDOF 6
ENDMDL
MODEL 6
REMARK VINA RESULT:      -7.7      4.335      6.486
REMARK  Name = 
REMARK  6 active torsions:
REMARK  status: ('A' for Active; 'I' for Inactive)
REMARK    1  A    between atoms: C_2  and  C_11
REMARK    2  A    between atoms: N_3  and  C_4
REMARK    3  A    between atoms: C_14  and  C_15
REMARK    4  A    between atoms: C_15  and  N_16
REMARK    5  A    between atoms: N_20  and  C_21
REMARK    6  A    between atoms: C_21  and  C_22
REMARK                            x       y       z     vdW  Elec       q    Type
REMARK                         _______ _______ _______ _____ _____    ______ ____
ROOT
ATOM      1  C   UNL     1       7.890   7.925  18.116  0.00  0.00    +0.000 A 
ATOM      2  C   UNL     1       8.249   6.700  18.680  0.00  0.00    +0.000 A 
ATOM      3  C   UNL     1       7.569   5.532  18.315  0.00  0.00    +0.000 A 
ATOM      4  C   UNL     1       6.519   5.575  17.384  0.00  0.00    +0.000 A 
ATOM      5  C   UNL     1       6.207   6.814  16.787  0.00  0.00    +0.000 A 
ATOM      6  C   UNL     1       6.883   7.981  17.147  0.00  0.00    +0.000 A 
ENDROOT
BRANCH   1   8
ATOM      7  O   UNL     1       8.970   9.234  19.726  0.00  0.00    +0.000 OA
ATOM      8  C   UNL     1       8.592   9.160  18.560  0.00  0.00    +0.000 C 
ATOM      9  N   UNL     1       8.688  10.144  17.590  0.00  0.00    +0.000 N 
ATOM     10  H   UNL     1       8.165   9.994  16.739  0.00  0.00    +0.000 HD
BRANCH   9  11
ATOM     11  C   UNL     1       9.272  11.420  17.733  0.00  0.00    +0.000 A 
ATOM     12  C   UNL     1      10.648  11.634  17.834  0.00  0.00    +0.000 A 
ATOM     13  C   UNL     1      11.152  12.925  18.030  0.00  0.00    +0.000 A 
ATOM     14  C   UNL     1      10.279  14.005  18.120  0.00  0.00    +0.000 A 
ATOM     15 CL   UNL     1      10.897  15.584  18.408  0.00  0.00    +0.000 Cl
ATOM     16  C   UNL     1       8.908  13.810  17.986  0.00  0.00    +0.000 A 
ATOM     17  C   UNL     1       8.406  12.521  17.782  0.00  0.00    +0.000 A 
ENDBRANCH   9  11
ENDBRANCH   1   8
BRANCH   4  18
ATOM     18  C   UNL     1       5.717   4.335  17.026  0.00  0.00    +0.000 C 
BRANCH  18  19
ATOM     19  N   UNL     1       4.593   3.990  17.934  0.00  0.00    +0.000 NA
ATOM     20  C   UNL     1       3.365   3.677  17.197  0.00  0.00    +0.000 C 
ATOM     21  C   UNL     1       2.217   3.013  17.961  0.00  0.00    +0.000 C 
ATOM     22  C   UNL     1       1.444   3.801  19.023  0.00  0.00    +0.000 C 
ATOM     23  N   UNL     1       1.980   5.059  19.532  0.00  0.00    +0.000 NA
ATOM     24  C   UNL     1       3.345   4.853  20.037  0.00  0.00    +0.000 C 
ATOM     25  C   UNL     1       4.497   4.969  19.024  0.00  0.00    +0.000 C 
BRANCH  23  26
ATOM     26  C   UNL     1       1.815   6.233  18.656  0.00  0.00    +0.000 C 
BRANCH  26  27
ATOM     27  C   UNL     1       2.531   7.518  19.155  0.00  0.00    +0.000 C 
ATOM     28  C   UNL     1       2.669   8.582  18.060  0.00  0.00    +0.000 C 
ATOM     29  C   UNL     1       1.319   9.166  17.659  0.00  0.00    +0.000 C 
ATOM     30  C   UNL     1       0.575   9.768  18.846  0.00  0.00    +0.000 C 
ATOM     31  C   UNL     1       0.555   8.892  20.096  0.00  0.00    +0.000 C 
ATOM     32  C   UNL     1       1.852   8.145  20.384  0.00  0.00    +0.000 C 
ENDBRANCH  26  27
ENDBRANCH  23  26
ENDBRANCH  18  19
ENDBRANCH   4  18
TORSDOF 6
ENDMDL
MODEL 7
REMARK VINA RESULT:      -7.6      4.044      5.028
REMARK  Name = 
REMARK  6 active torsions:
REMARK  status: ('A' for Active; 'I' for Inactive)
REMARK    1  A    between atoms: C_2  and  C_11
REMARK    2  A    between atoms: N_3  and  C_4
REMARK    3  A    between atoms: C_14  and  C_15
REMARK    4  A    between atoms: C_15  and  N_16
REMARK    5  A    between atoms: N_20  and  C_21
REMARK    6  A    between atoms: C_21  and  C_22
REMARK                            x       y       z     vdW  Elec       q    Type
REMARK                         _______ _______ _______ _____ _____    ______ ____
ROOT
ATOM      1  C   UNL     1      -1.047  11.311  21.433  0.00  0.00    +0.000 A 
ATOM      2  C   UNL     1      -0.718  10.686  22.637  0.00  0.00    +0.000 A 
ATOM      3  C   UNL     1       0.205   9.634  22.653  0.00  0.00    +0.000 A 
ATOM      4  C   UNL     1       0.808   9.192  21.465  0.00  0.00    +0.000 A 
ATOM      5  C   UNL     1       0.502   9.871  20.269  0.00  0.00    +0.000 A 
ATOM      6  C   UNL     1      -0.417  10.921  20.247  0.00  0.00    +0.000 A 
ENDROOT
BRANCH   1   8
ATOM      7  O   UNL     1      -1.957  13.310  20.627  0.00  0.00    +0.000 OA
ATOM      8  C   UNL     1      -2.071  12.391  21.434  0.00  0.00    +0.000 C 
ATOM      9  N   UNL     1      -3.034  12.266  22.422  0.00  0.00    +0.000 N 
ATOM     10  H   UNL     1      -2.878  11.551  23.118  0.00  0.00    +0.000 HD
BRANCH   9  11
ATOM     11  C   UNL     1      -4.103  13.149  22.679  0.00  0.00    +0.000 A 
ATOM     12  C   UNL     1      -4.027  14.213  23.580  0.00  0.00    +0.000 A 
ATOM     13  C   UNL     1      -5.147  15.016  23.826  0.00  0.00    +0.000 A 
ATOM     14  C   UNL     1      -6.345  14.757  23.167  0.00  0.00    +0.000 A 
ATOM     15 CL   UNL     1      -7.733  15.714  23.505  0.00  0.00    +0.000 Cl
ATOM     16  C   UNL     1      -6.425  13.722  22.241  0.00  0.00    +0.000 A 
ATOM     17  C   UNL     1      -5.303  12.926  21.990  0.00  0.00    +0.000 A 
ENDBRANCH   9  11
ENDBRANCH   1   8
BRANCH   4  18
ATOM     18  C   UNL     1       1.757   8.004  21.445  0.00  0.00    +0.000 C 
BRANCH  18  19
ATOM     19  N   UNL     1       1.633   7.078  20.291  0.00  0.00    +0.000 NA
ATOM     20  C   UNL     1       1.996   5.703  20.645  0.00  0.00    +0.000 C 
ATOM     21  C   UNL     1       1.633   4.587  19.664  0.00  0.00    +0.000 C 
ATOM     22  C   UNL     1       2.351   4.487  18.314  0.00  0.00    +0.000 C 
ATOM     23  N   UNL     1       3.145   5.610  17.826  0.00  0.00    +0.000 NA
ATOM     24  C   UNL     1       2.327   6.830  17.804  0.00  0.00    +0.000 C 
ATOM     25  C   UNL     1       2.264   7.660  19.099  0.00  0.00    +0.000 C 
BRANCH  23  26
ATOM     26  C   UNL     1       4.479   5.769  18.433  0.00  0.00    +0.000 C 
BRANCH  26  27
ATOM     27  C   UNL     1       5.510   6.516  17.542  0.00  0.00    +0.000 C 
ATOM     28  C   UNL     1       6.960   6.168  17.896  0.00  0.00    +0.000 C 
ATOM     29  C   UNL     1       7.302   4.724  17.545  0.00  0.00    +0.000 C 
ATOM     30  C   UNL     1       7.061   4.414  16.072  0.00  0.00    +0.000 C 
ATOM     31  C   UNL     1       5.726   4.914  15.526  0.00  0.00    +0.000 C 
ATOM     32  C   UNL     1       5.287   6.280  16.038  0.00  0.00    +0.000 C 
ENDBRANCH  26  27
ENDBRANCH  23  26
ENDBRANCH  18  19
ENDBRANCH   4  18
TORSDOF 6
ENDMDL
MODEL 8
REMARK VINA RESULT:      -7.6      4.042      6.305
REMARK  Name = 
REMARK  6 active torsions:
REMARK  status: ('A' for Active; 'I' for Inactive)
REMARK    1  A    between atoms: C_2  and  C_11
REMARK    2  A    between atoms: N_3  and  C_4
REMARK    3  A    between atoms: C_14  and  C_15
REMARK    4  A    between atoms: C_15  and  N_16
REMARK    5  A    between atoms: N_20  and  C_21
REMARK    6  A    between atoms: C_21  and  C_22
REMARK                            x       y       z     vdW  Elec       q    Type
REMARK                         _______ _______ _______ _____ _____    ______ ____
ROOT
ATOM      1  C   UNL     1       7.456   7.289  17.889  0.00  0.00    +0.000 A 
ATOM      2  C   UNL     1       7.814   6.029  18.370  0.00  0.00    +0.000 A 
ATOM      3  C   UNL     1       7.042   4.908  18.046  0.00  0.00    +0.000 A 
ATOM      4  C   UNL     1       5.900   5.032  17.239  0.00  0.00    +0.000 A 
ATOM      5  C   UNL     1       5.587   6.305  16.720  0.00  0.00    +0.000 A 
ATOM      6  C   UNL     1       6.353   7.427  17.039  0.00  0.00    +0.000 A 
ENDROOT
BRANCH   1   8
ATOM      7  O   UNL     1       8.998   8.379  19.270  0.00  0.00    +0.000 OA
ATOM      8  C   UNL     1       8.262   8.474  18.291  0.00  0.00    +0.000 C 
ATOM      9  N   UNL     1       8.036   9.607  17.527  0.00  0.00    +0.000 N 
ATOM     10  H   UNL     1       7.264   9.567  16.876  0.00  0.00    +0.000 HD
BRANCH   9  11
ATOM     11  C   UNL     1       8.631  10.874  17.695  0.00  0.00    +0.000 A 
ATOM     12  C   UNL     1       7.936  12.078  17.566  0.00  0.00    +0.000 A 
ATOM     13  C   UNL     1       8.606  13.301  17.692  0.00  0.00    +0.000 A 
ATOM     14  C   UNL     1       9.973  13.320  17.951  0.00  0.00    +0.000 A 
ATOM     15 CL   UNL     1      10.803  14.822  18.058  0.00  0.00    +0.000 Cl
ATOM     16  C   UNL     1      10.671  12.127  18.116  0.00  0.00    +0.000 A 
ATOM     17  C   UNL     1       9.999  10.907  17.998  0.00  0.00    +0.000 A 
ENDBRANCH   9  11
ENDBRANCH   1   8
BRANCH   4  18
ATOM     18  C   UNL     1       5.004   3.843  16.933  0.00  0.00    +0.000 C 
BRANCH  18  19
ATOM     19  N   UNL     1       3.991   3.497  17.962  0.00  0.00    +0.000 NA
ATOM     20  C   UNL     1       2.659   3.305  17.381  0.00  0.00    +0.000 C 
ATOM     21  C   UNL     1       1.582   2.653  18.251  0.00  0.00    +0.000 C 
ATOM     22  C   UNL     1       1.009   3.405  19.457  0.00  0.00    +0.000 C 
ATOM     23  N   UNL     1       1.688   4.591  19.967  0.00  0.00    +0.000 NA
ATOM     24  C   UNL     1       3.091   4.275  20.267  0.00  0.00    +0.000 C 
ATOM     25  C   UNL     1       4.104   4.399  19.114  0.00  0.00    +0.000 C 
BRANCH  23  26
ATOM     26  C   UNL     1       1.484   5.832  19.198  0.00  0.00    +0.000 C 
BRANCH  26  27
ATOM     27  C   UNL     1       2.415   7.007  19.607  0.00  0.00    +0.000 C 
ATOM     28  C   UNL     1       2.879   7.840  18.407  0.00  0.00    +0.000 C 
ATOM     29  C   UNL     1       1.730   8.617  17.773  0.00  0.00    +0.000 C 
ATOM     30  C   UNL     1       1.031   9.532  18.772  0.00  0.00    +0.000 C 
ATOM     31  C   UNL     1       0.709   8.880  20.115  0.00  0.00    +0.000 C 
ATOM     32  C   UNL     1       1.780   7.940  20.653  0.00  0.00    +0.000 C 
ENDBRANCH  26  27
ENDBRANCH  23  26
ENDBRANCH  18  19
ENDBRANCH   4  18
TORSDOF 6
ENDMDL
MODEL 9
REMARK VINA RESULT:      -7.6      4.037      4.718
REMARK  Name = 
REMARK  6 active torsions:
REMARK  status: ('A' for Active; 'I' for Inactive)
REMARK    1  A    between atoms: C_2  and  C_11
REMARK    2  A    between atoms: N_3  and  C_4
REMARK    3  A    between atoms: C_14  and  C_15
REMARK    4  A    between atoms: C_15  and  N_16
REMARK    5  A    between atoms: N_20  and  C_21
REMARK    6  A    between atoms: C_21  and  C_22
REMARK                            x       y       z     vdW  Elec       q    Type
REMARK                         _______ _______ _______ _____ _____    ______ ____
ROOT
ATOM      1  C   UNL     1      -1.019  11.221  22.031  0.00  0.00    +0.000 A 
ATOM      2  C   UNL     1      -0.371  11.039  20.808  0.00  0.00    +0.000 A 
ATOM      3  C   UNL     1       0.530   9.981  20.642  0.00  0.00    +0.000 A 
ATOM      4  C   UNL     1       0.795   9.093  21.696  0.00  0.00    +0.000 A 
ATOM      5  C   UNL     1       0.090   9.262  22.904  0.00  0.00    +0.000 A 
ATOM      6  C   UNL     1      -0.810  10.315  23.076  0.00  0.00    +0.000 A 
ENDROOT
BRANCH   1   8
ATOM      7  O   UNL     1      -2.641  12.718  21.255  0.00  0.00    +0.000 OA
ATOM      8  C   UNL     1      -1.932  12.384  22.201  0.00  0.00    +0.000 C 
ATOM      9  N   UNL     1      -1.828  13.019  23.427  0.00  0.00    +0.000 N 
ATOM     10  H   UNL     1      -1.066  12.730  24.024  0.00  0.00    +0.000 HD
BRANCH   9  11
ATOM     11  C   UNL     1      -2.542  14.158  23.855  0.00  0.00    +0.000 A 
ATOM     12  C   UNL     1      -1.965  15.209  24.570  0.00  0.00    +0.000 A 
ATOM     13  C   UNL     1      -2.749  16.282  25.010  0.00  0.00    +0.000 A 
ATOM     14  C   UNL     1      -4.112  16.307  24.730  0.00  0.00    +0.000 A 
ATOM     15 CL   UNL     1      -5.082  17.602  25.312  0.00  0.00    +0.000 Cl
ATOM     16  C   UNL     1      -4.693  15.283  23.989  0.00  0.00    +0.000 A 
ATOM     17  C   UNL     1      -3.908  14.216  23.543  0.00  0.00    +0.000 A 
ENDBRANCH   9  11
ENDBRANCH   1   8
BRANCH   4  18
ATOM     18  C   UNL     1       1.823   7.980  21.563  0.00  0.00    +0.000 C 
BRANCH  18  19
ATOM     19  N   UNL     1       1.621   7.023  20.445  0.00  0.00    +0.000 NA
ATOM     20  C   UNL     1       1.717   5.630  20.888  0.00  0.00    +0.000 C 
ATOM     21  C   UNL     1       1.236   4.536  19.933  0.00  0.00    +0.000 C 
ATOM     22  C   UNL     1       2.017   4.240  18.649  0.00  0.00    +0.000 C 
ATOM     23  N   UNL     1       3.024   5.182  18.173  0.00  0.00    +0.000 NA
ATOM     24  C   UNL     1       2.431   6.520  18.034  0.00  0.00    +0.000 C 
ATOM     25  C   UNL     1       2.423   7.421  19.281  0.00  0.00    +0.000 C 
BRANCH  23  26
ATOM     26  C   UNL     1       4.320   5.149  18.874  0.00  0.00    +0.000 C 
BRANCH  26  27
ATOM     27  C   UNL     1       5.491   4.558  18.040  0.00  0.00    +0.000 C 
ATOM     28  C   UNL     1       5.519   5.087  16.602  0.00  0.00    +0.000 C 
ATOM     29  C   UNL     1       5.872   6.570  16.545  0.00  0.00    +0.000 C 
ATOM     30  C   UNL     1       7.210   6.870  17.212  0.00  0.00    +0.000 C 
ATOM     31  C   UNL     1       7.405   6.210  18.574  0.00  0.00    +0.000 C 
ATOM     32  C   UNL     1       6.866   4.789  18.689  0.00  0.00    +0.000 C 
ENDBRANCH  26  27
ENDBRANCH  23  26
ENDBRANCH  18  19
ENDBRANCH   4  18
TORSDOF 6
ENDMDL
