MODEL 1
REMARK VINA RESULT:      -7.5      0.000      0.000
REMARK  Name = 
REMARK  6 active torsions:
REMARK  status: ('A' for Active; 'I' for Inactive)
REMARK    1  A    between atoms: C_1  and  C_2
REMARK    2  A    between atoms: C_4  and  C_5
REMARK    3  A    between atoms: C_5  and  O_6
REMARK    4  A    between atoms: C_5  and  C_7
REMARK    5  A    between atoms: N_16  and  C_17
REMARK    6  A    between atoms: C_20  and  C_21
REMARK                            x       y       z     vdW  Elec       q    Type
REMARK                         _______ _______ _______ _____ _____    ______ ____
ROOT
ATOM      1  C   UNL     1       6.506   4.322  14.298  0.00  0.00    +0.000 C 
ATOM      2  C   UNL     1       5.541   4.470  15.436  0.00  0.00    +0.000 A 
ATOM      3  C   UNL     1       4.823   3.382  15.889  0.00  0.00    +0.000 A 
ATOM      4  C   UNL     1       3.993   3.595  16.967  0.00  0.00    +0.000 A 
ATOM      5  N   UNL     1       3.871   4.818  17.530  0.00  0.00    +0.000 NA
ATOM      6  C   UNL     1       4.573   5.837  17.007  0.00  0.00    +0.000 A 
ATOM      7  N   UNL     1       4.437   7.107  17.563  0.00  0.00    +0.000 N 
ATOM      8  N   UNL     1       5.430   5.698  15.987  0.00  0.00    +0.000 NA
ATOM      9  H   UNL     1       5.056   7.765  17.114  0.00  0.00    +0.000 HD
ENDROOT
BRANCH   7  10
ATOM     10  C   UNL     1       3.308   7.640  18.202  0.00  0.00    +0.000 A 
ATOM     11  C   UNL     1       2.654   8.743  17.643  0.00  0.00    +0.000 A 
ATOM     12  C   UNL     1       1.591   9.357  18.315  0.00  0.00    +0.000 A 
ATOM     13  C   UNL     1       1.158   8.861  19.549  0.00  0.00    +0.000 A 
ATOM     14  C   UNL     1       1.779   7.742  20.098  0.00  0.00    +0.000 A 
ATOM     15  C   UNL     1       2.845   7.145  19.432  0.00  0.00    +0.000 A 
BRANCH  13  16
ATOM     16  C   UNL     1       0.088   9.505  20.253  0.00  0.00    +0.000 C 
ATOM     17  N   UNL     1      -0.773  10.035  20.820  0.00  0.00    +0.000 NA
ENDBRANCH  13  16
ENDBRANCH   7  10
BRANCH   4  18
ATOM     18  C   UNL     1       3.215   2.467  17.633  0.00  0.00    +0.000 C 
BRANCH  18  19
ATOM     19  C   UNL     1       2.594   2.860  18.965  0.00  0.00    +0.000 A 
ATOM     20  C   UNL     1       1.330   3.491  18.983  0.00  0.00    +0.000 A 
ATOM     21  C   UNL     1       0.686   3.806  20.182  0.00  0.00    +0.000 A 
ATOM     22  C   UNL     1       1.281   3.477  21.394  0.00  0.00    +0.000 A 
ATOM     23  C   UNL     1       2.535   2.872  21.406  0.00  0.00    +0.000 A 
ATOM     24  C   UNL     1       3.196   2.581  20.205  0.00  0.00    +0.000 A 
ATOM     25 BR   UNL     1       4.941   1.846  20.371  0.00  0.00    +0.000 Br
ENDBRANCH  18  19
BRANCH  18  26
ATOM     26  O   UNL     1       4.104   1.350  17.835  0.00  0.00    +0.000 OA
ATOM     27  H   UNL     1       3.549   0.656  18.248  0.00  0.00    +0.000 HD
ENDBRANCH  18  26
ENDBRANCH   4  18
TORSDOF 5
ENDMDL
MODEL 2
REMARK VINA RESULT:      -7.5      7.919     10.086
REMARK  Name = 
REMARK  6 active torsions:
REMARK  status: ('A' for Active; 'I' for Inactive)
REMARK    1  A    between atoms: C_1  and  C_2
REMARK    2  A    between atoms: C_4  and  C_5
REMARK    3  A    between atoms: C_5  and  O_6
REMARK    4  A    between atoms: C_5  and  C_7
REMARK    5  A    between atoms: N_16  and  C_17
REMARK    6  A    between atoms: C_20  and  C_21
REMARK                            x       y       z     vdW  Elec       q    Type
REMARK                         _______ _______ _______ _____ _____    ______ ____
ROOT
ATOM      1  C   UNL     1      -3.081  10.036  14.077  0.00  0.00    +0.000 C 
ATOM      2  C   UNL     1      -3.167  10.492  15.502  0.00  0.00    +0.000 A 
ATOM      3  C   UNL     1      -2.135  10.235  16.383  0.00  0.00    +0.000 A 
ATOM      4  C   UNL     1      -2.274  10.728  17.660  0.00  0.00    +0.000 A 
ATOM      5  N   UNL     1      -3.383  11.405  18.036  0.00  0.00    +0.000 NA
ATOM      6  C   UNL     1      -4.363  11.581  17.133  0.00  0.00    +0.000 A 
ATOM      7  N   UNL     1      -5.520  12.255  17.515  0.00  0.00    +0.000 N 
ATOM      8  N   UNL     1      -4.280  11.166  15.862  0.00  0.00    +0.000 NA
ATOM      9  H   UNL     1      -6.148  12.365  16.733  0.00  0.00    +0.000 HD
ENDROOT
BRANCH   7  10
ATOM     10  C   UNL     1      -6.094  12.306  18.794  0.00  0.00    +0.000 A 
ATOM     11  C   UNL     1      -5.826  13.396  19.628  0.00  0.00    +0.000 A 
ATOM     12  C   UNL     1      -6.300  13.420  20.945  0.00  0.00    +0.000 A 
ATOM     13  C   UNL     1      -7.068  12.358  21.435  0.00  0.00    +0.000 A 
ATOM     14  C   UNL     1      -7.370  11.284  20.602  0.00  0.00    +0.000 A 
ATOM     15  C   UNL     1      -6.883  11.259  19.298  0.00  0.00    +0.000 A 
BRANCH  13  16
ATOM     16  C   UNL     1      -7.532  12.366  22.792  0.00  0.00    +0.000 C 
ATOM     17  N   UNL     1      -7.916  12.370  23.885  0.00  0.00    +0.000 NA
ENDBRANCH  13  16
ENDBRANCH   7  10
BRANCH   4  18
ATOM     18  C   UNL     1      -1.175  10.605  18.708  0.00  0.00    +0.000 C 
BRANCH  18  19
ATOM     19  C   UNL     1      -0.777  11.933  19.332  0.00  0.00    +0.000 A 
ATOM     20  C   UNL     1      -0.704  13.088  18.521  0.00  0.00    +0.000 A 
ATOM     21  C   UNL     1      -0.414  14.344  19.060  0.00  0.00    +0.000 A 
ATOM     22  C   UNL     1      -0.211  14.480  20.427  0.00  0.00    +0.000 A 
ATOM     23  C   UNL     1      -0.258  13.356  21.247  0.00  0.00    +0.000 A 
ATOM     24  C   UNL     1      -0.521  12.090  20.706  0.00  0.00    +0.000 A 
ATOM     25 BR   UNL     1      -0.458  10.632  21.924  0.00  0.00    +0.000 Br
ENDBRANCH  18  19
BRANCH  18  26
ATOM     26  O   UNL     1      -0.017  10.004  18.092  0.00  0.00    +0.000 OA
ATOM     27  H   UNL     1       0.741  10.542  18.401  0.00  0.00    +0.000 HD
ENDBRANCH  18  26
ENDBRANCH   4  18
TORSDOF 5
ENDMDL
MODEL 3
REMARK VINA RESULT:      -7.4      4.235      8.325
REMARK  Name = 
REMARK  6 active torsions:
REMARK  status: ('A' for Active; 'I' for Inactive)
REMARK    1  A    between atoms: C_1  and  C_2
REMARK    2  A    between atoms: C_4  and  C_5
REMARK    3  A    between atoms: C_5  and  O_6
REMARK    4  A    between atoms: C_5  and  C_7
REMARK    5  A    between atoms: N_16  and  C_17
REMARK    6  A    between atoms: C_20  and  C_21
REMARK                            x       y       z     vdW  Elec       q    Type
REMARK                         _______ _______ _______ _____ _____    ______ ____
ROOT
ATOM      1  C   UNL     1      -0.964  10.688  23.403  0.00  0.00    +0.000 C 
ATOM      2  C   UNL     1      -0.346  10.105  22.168  0.00  0.00    +0.000 A 
ATOM      3  C   UNL     1      -0.558  10.691  20.936  0.00  0.00    +0.000 A 
ATOM      4  C   UNL     1       0.082  10.118  19.860  0.00  0.00    +0.000 A 
ATOM      5  N   UNL     1       0.857   9.020  20.006  0.00  0.00    +0.000 NA
ATOM      6  C   UNL     1       0.984   8.483  21.232  0.00  0.00    +0.000 A 
ATOM      7  N   UNL     1       1.759   7.338  21.391  0.00  0.00    +0.000 N 
ATOM      8  N   UNL     1       0.425   9.008  22.330  0.00  0.00    +0.000 NA
ATOM      9  H   UNL     1       1.815   7.071  22.362  0.00  0.00    +0.000 HD
ENDROOT
BRANCH   7  10
ATOM     10  C   UNL     1       1.985   6.324  20.447  0.00  0.00    +0.000 A 
ATOM     11  C   UNL     1       2.672   6.621  19.266  0.00  0.00    +0.000 A 
ATOM     12  C   UNL     1       2.818   5.654  18.264  0.00  0.00    +0.000 A 
ATOM     13  C   UNL     1       2.294   4.370  18.444  0.00  0.00    +0.000 A 
ATOM     14  C   UNL     1       1.638   4.053  19.631  0.00  0.00    +0.000 A 
ATOM     15  C   UNL     1       1.483   5.023  20.617  0.00  0.00    +0.000 A 
BRANCH  13  16
ATOM     16  C   UNL     1       2.417   3.386  17.408  0.00  0.00    +0.000 C 
ATOM     17  N   UNL     1       2.522   2.586  16.577  0.00  0.00    +0.000 NA
ENDBRANCH  13  16
ENDBRANCH   7  10
BRANCH   4  18
ATOM     18  C   UNL     1       0.017  10.714  18.460  0.00  0.00    +0.000 C 
BRANCH  18  19
ATOM     19  C   UNL     1      -1.394  10.795  17.898  0.00  0.00    +0.000 A 
ATOM     20  C   UNL     1      -1.831   9.817  16.977  0.00  0.00    +0.000 A 
ATOM     21  C   UNL     1      -3.140   9.806  16.488  0.00  0.00    +0.000 A 
ATOM     22  C   UNL     1      -4.050  10.761  16.924  0.00  0.00    +0.000 A 
ATOM     23  C   UNL     1      -3.641  11.747  17.817  0.00  0.00    +0.000 A 
ATOM     24  C   UNL     1      -2.321  11.778  18.287  0.00  0.00    +0.000 A 
ATOM     25 BR   UNL     1      -1.873  13.236  19.422  0.00  0.00    +0.000 Br
ENDBRANCH  18  19
BRANCH  18  26
ATOM     26  O   UNL     1       0.833   9.914  17.580  0.00  0.00    +0.000 OA
ATOM     27  H   UNL     1       0.945  10.459  16.774  0.00  0.00    +0.000 HD
ENDBRANCH  18  26
ENDBRANCH   4  18
TORSDOF 5
ENDMDL
MODEL 4
REMARK VINA RESULT:      -7.4      9.140     10.452
REMARK  Name = 
REMARK  6 active torsions:
REMARK  status: ('A' for Active; 'I' for Inactive)
REMARK    1  A    between atoms: C_1  and  C_2
REMARK    2  A    between atoms: C_4  and  C_5
REMARK    3  A    between atoms: C_5  and  O_6
REMARK    4  A    between atoms: C_5  and  C_7
REMARK    5  A    between atoms: N_16  and  C_17
REMARK    6  A    between atoms: C_20  and  C_21
REMARK                            x       y       z     vdW  Elec       q    Type
REMARK                         _______ _______ _______ _____ _____    ______ ____
ROOT
ATOM      1  C   UNL     1      -3.019  10.066  14.575  0.00  0.00    +0.000 C 
ATOM      2  C   UNL     1      -3.280  10.686  15.915  0.00  0.00    +0.000 A 
ATOM      3  C   UNL     1      -4.526  11.200  16.216  0.00  0.00    +0.000 A 
ATOM      4  C   UNL     1      -4.694  11.709  17.484  0.00  0.00    +0.000 A 
ATOM      5  N   UNL     1      -3.677  11.727  18.375  0.00  0.00    +0.000 NA
ATOM      6  C   UNL     1      -2.482  11.244  17.994  0.00  0.00    +0.000 A 
ATOM      7  N   UNL     1      -1.421  11.280  18.895  0.00  0.00    +0.000 N 
ATOM      8  N   UNL     1      -2.256  10.697  16.794  0.00  0.00    +0.000 NA
ATOM      9  H   UNL     1      -0.602  10.840  18.505  0.00  0.00    +0.000 HD
ENDROOT
BRANCH   7  10
ATOM     10  C   UNL     1      -1.206  12.212  19.921  0.00  0.00    +0.000 A 
ATOM     11  C   UNL     1      -0.885  13.534  19.598  0.00  0.00    +0.000 A 
ATOM     12  C   UNL     1      -0.563  14.455  20.601  0.00  0.00    +0.000 A 
ATOM     13  C   UNL     1      -0.579  14.067  21.945  0.00  0.00    +0.000 A 
ATOM     14  C   UNL     1      -0.931  12.762  22.281  0.00  0.00    +0.000 A 
ATOM     15  C   UNL     1      -1.236  11.846  21.278  0.00  0.00    +0.000 A 
BRANCH  13  16
ATOM     16  C   UNL     1      -0.222  15.000  22.973  0.00  0.00    +0.000 C 
ATOM     17  N   UNL     1       0.062  15.761  23.799  0.00  0.00    +0.000 NA
ENDBRANCH  13  16
ENDBRANCH   7  10
BRANCH   4  18
ATOM     18  C   UNL     1      -6.038  12.220  17.987  0.00  0.00    +0.000 C 
BRANCH  18  19
ATOM     19  C   UNL     1      -6.708  11.290  18.986  0.00  0.00    +0.000 A 
ATOM     20  C   UNL     1      -6.597   9.892  18.815  0.00  0.00    +0.000 A 
ATOM     21  C   UNL     1      -7.133   8.997  19.744  0.00  0.00    +0.000 A 
ATOM     22  C   UNL     1      -7.775   9.477  20.879  0.00  0.00    +0.000 A 
ATOM     23  C   UNL     1      -7.915  10.850  21.063  0.00  0.00    +0.000 A 
ATOM     24  C   UNL     1      -7.403  11.751  20.118  0.00  0.00    +0.000 A 
ATOM     25 BR   UNL     1      -7.752  13.591  20.446  0.00  0.00    +0.000 Br
ENDBRANCH  18  19
BRANCH  18  26
ATOM     26  O   UNL     1      -6.912  12.410  16.855  0.00  0.00    +0.000 OA
ATOM     27  H   UNL     1      -6.869  13.369  16.660  0.00  0.00    +0.000 HD
ENDBRANCH  18  26
ENDBRANCH   4  18
TORSDOF 5
ENDMDL
MODEL 5
REMARK VINA RESULT:      -7.4      3.274      5.916
REMARK  Name = 
REMARK  6 active torsions:
REMARK  status: ('A' for Active; 'I' for Inactive)
REMARK    1  A    between atoms: C_1  and  C_2
REMARK    2  A    between atoms: C_4  and  C_5
REMARK    3  A    between atoms: C_5  and  O_6
REMARK    4  A    between atoms: C_5  and  C_7
REMARK    5  A    between atoms: N_16  and  C_17
REMARK    6  A    between atoms: C_20  and  C_21
REMARK                            x       y       z     vdW  Elec       q    Type
REMARK                         _______ _______ _______ _____ _____    ______ ____
ROOT
ATOM      1  C   UNL     1       1.864   1.558  18.244  0.00  0.00    +0.000 C 
ATOM      2  C   UNL     1       2.505   2.847  18.661  0.00  0.00    +0.000 A 
ATOM      3  C   UNL     1       1.748   3.853  19.228  0.00  0.00    +0.000 A 
ATOM      4  C   UNL     1       2.422   4.986  19.624  0.00  0.00    +0.000 A 
ATOM      5  N   UNL     1       3.756   5.112  19.438  0.00  0.00    +0.000 NA
ATOM      6  C   UNL     1       4.418   4.105  18.843  0.00  0.00    +0.000 A 
ATOM      7  N   UNL     1       5.787   4.234  18.625  0.00  0.00    +0.000 N 
ATOM      8  N   UNL     1       3.837   2.959  18.469  0.00  0.00    +0.000 NA
ATOM      9  H   UNL     1       6.168   3.392  18.223  0.00  0.00    +0.000 HD
ENDROOT
BRANCH   7  10
ATOM     10  C   UNL     1       6.507   5.417  18.405  0.00  0.00    +0.000 A 
ATOM     11  C   UNL     1       7.626   5.702  19.196  0.00  0.00    +0.000 A 
ATOM     12  C   UNL     1       8.297   6.923  19.066  0.00  0.00    +0.000 A 
ATOM     13  C   UNL     1       7.868   7.867  18.127  0.00  0.00    +0.000 A 
ATOM     14  C   UNL     1       6.777   7.579  17.311  0.00  0.00    +0.000 A 
ATOM     15  C   UNL     1       6.104   6.370  17.454  0.00  0.00    +0.000 A 
BRANCH  13  16
ATOM     16  C   UNL     1       8.536   9.130  18.012  0.00  0.00    +0.000 C 
ATOM     17  N   UNL     1       9.085  10.146  17.919  0.00  0.00    +0.000 NA
ENDBRANCH  13  16
ENDBRANCH   7  10
BRANCH   4  18
ATOM     18  C   UNL     1       1.733   6.135  20.350  0.00  0.00    +0.000 C 
BRANCH  18  19
ATOM     19  C   UNL     1       1.777   7.450  19.589  0.00  0.00    +0.000 A 
ATOM     20  C   UNL     1       2.475   7.520  18.362  0.00  0.00    +0.000 A 
ATOM     21  C   UNL     1       2.484   8.685  17.590  0.00  0.00    +0.000 A 
ATOM     22  C   UNL     1       1.778   9.803  18.016  0.00  0.00    +0.000 A 
ATOM     23  C   UNL     1       1.098   9.768  19.231  0.00  0.00    +0.000 A 
ATOM     24  C   UNL     1       1.111   8.611  20.021  0.00  0.00    +0.000 A 
ATOM     25 BR   UNL     1       0.224   8.736  21.698  0.00  0.00    +0.000 Br
ENDBRANCH  18  19
BRANCH  18  26
ATOM     26  O   UNL     1       2.360   6.309  21.637  0.00  0.00    +0.000 OA
ATOM     27  H   UNL     1       2.947   5.532  21.740  0.00  0.00    +0.000 HD
ENDBRANCH  18  26
ENDBRANCH   4  18
TORSDOF 5
ENDMDL
MODEL 6
REMARK VINA RESULT:      -7.3      7.801     10.073
REMARK  Name = 
REMARK  6 active torsions:
REMARK  status: ('A' for Active; 'I' for Inactive)
REMARK    1  A    between atoms: C_1  and  C_2
REMARK    2  A    between atoms: C_4  and  C_5
REMARK    3  A    between atoms: C_5  and  O_6
REMARK    4  A    between atoms: C_5  and  C_7
REMARK    5  A    between atoms: N_16  and  C_17
REMARK    6  A    between atoms: C_20  and  C_21
REMARK                            x       y       z     vdW  Elec       q    Type
REMARK                         _______ _______ _______ _____ _____    ______ ____
ROOT
ATOM      1  C   UNL     1      -2.774   9.864  14.986  0.00  0.00    +0.000 C 
ATOM      2  C   UNL     1      -2.799  10.411  16.382  0.00  0.00    +0.000 A 
ATOM      3  C   UNL     1      -1.737  10.195  17.237  0.00  0.00    +0.000 A 
ATOM      4  C   UNL     1      -1.820  10.770  18.485  0.00  0.00    +0.000 A 
ATOM      5  N   UNL     1      -2.905  11.486  18.858  0.00  0.00    +0.000 NA
ATOM      6  C   UNL     1      -3.917  11.619  17.983  0.00  0.00    +0.000 A 
ATOM      7  N   UNL     1      -5.049  12.333  18.365  0.00  0.00    +0.000 N 
ATOM      8  N   UNL     1      -3.889  11.123  16.740  0.00  0.00    +0.000 NA
ATOM      9  H   UNL     1      -5.706  12.403  17.603  0.00  0.00    +0.000 HD
ENDROOT
BRANCH   7  10
ATOM     10  C   UNL     1      -5.572  12.474  19.659  0.00  0.00    +0.000 A 
ATOM     11  C   UNL     1      -6.650  11.677  20.059  0.00  0.00    +0.000 A 
ATOM     12  C   UNL     1      -7.256  11.871  21.306  0.00  0.00    +0.000 A 
ATOM     13  C   UNL     1      -6.775  12.854  22.177  0.00  0.00    +0.000 A 
ATOM     14  C   UNL     1      -5.681  13.630  21.803  0.00  0.00    +0.000 A 
ATOM     15  C   UNL     1      -5.091  13.442  20.556  0.00  0.00    +0.000 A 
BRANCH  13  16
ATOM     16  C   UNL     1      -7.411  13.074  23.443  0.00  0.00    +0.000 C 
ATOM     17  N   UNL     1      -7.917  13.252  24.470  0.00  0.00    +0.000 NA
ENDBRANCH  13  16
ENDBRANCH   7  10
BRANCH   4  18
ATOM     18  C   UNL     1      -0.683  10.696  19.496  0.00  0.00    +0.000 C 
BRANCH  18  19
ATOM     19  C   UNL     1      -0.098  12.054  19.854  0.00  0.00    +0.000 A 
ATOM     20  C   UNL     1       0.563  12.809  18.860  0.00  0.00    +0.000 A 
ATOM     21  C   UNL     1       1.053  14.091  19.121  0.00  0.00    +0.000 A 
ATOM     22  C   UNL     1       0.875  14.659  20.376  0.00  0.00    +0.000 A 
ATOM     23  C   UNL     1       0.244  13.929  21.379  0.00  0.00    +0.000 A 
ATOM     24  C   UNL     1      -0.223  12.631  21.129  0.00  0.00    +0.000 A 
ATOM     25 BR   UNL     1      -0.976  11.715  22.616  0.00  0.00    +0.000 Br
ENDBRANCH  18  19
BRANCH  18  26
ATOM     26  O   UNL     1       0.359   9.858  18.956  0.00  0.00    +0.000 OA
ATOM     27  H   UNL     1       1.180  10.386  19.044  0.00  0.00    +0.000 HD
ENDBRANCH  18  26
ENDBRANCH   4  18
TORSDOF 5
ENDMDL
MODEL 7
REMARK VINA RESULT:      -7.2      6.902      9.653
REMARK  Name = 
REMARK  6 active torsions:
REMARK  status: ('A' for Active; 'I' for Inactive)
REMARK    1  A    between atoms: C_1  and  C_2
REMARK    2  A    between atoms: C_4  and  C_5
REMARK    3  A    between atoms: C_5  and  O_6
REMARK    4  A    between atoms: C_5  and  C_7
REMARK    5  A    between atoms: N_16  and  C_17
REMARK    6  A    between atoms: C_20  and  C_21
REMARK                            x       y       z     vdW  Elec       q    Type
REMARK                         _______ _______ _______ _____ _____    ______ ____
ROOT
ATOM      1  C   UNL     1      -2.763   9.643  15.602  0.00  0.00    +0.000 C 
ATOM      2  C   UNL     1      -2.833  10.466  16.853  0.00  0.00    +0.000 A 
ATOM      3  C   UNL     1      -1.695  10.710  17.595  0.00  0.00    +0.000 A 
ATOM      4  C   UNL     1      -1.839  11.512  18.704  0.00  0.00    +0.000 A 
ATOM      5  N   UNL     1      -3.045  12.010  19.060  0.00  0.00    +0.000 NA
ATOM      6  C   UNL     1      -4.115  11.695  18.309  0.00  0.00    +0.000 A 
ATOM      7  N   UNL     1      -5.366  12.182  18.680  0.00  0.00    +0.000 N 
ATOM      8  N   UNL     1      -4.044  10.956  17.196  0.00  0.00    +0.000 NA
ATOM      9  H   UNL     1      -6.069  11.918  18.007  0.00  0.00    +0.000 HD
ENDROOT
BRANCH   7  10
ATOM     10  C   UNL     1      -5.815  12.478  19.975  0.00  0.00    +0.000 A 
ATOM     11  C   UNL     1      -6.754  11.641  20.589  0.00  0.00    +0.000 A 
ATOM     12  C   UNL     1      -7.296  11.972  21.836  0.00  0.00    +0.000 A 
ATOM     13  C   UNL     1      -6.888  13.137  22.494  0.00  0.00    +0.000 A 
ATOM     14  C   UNL     1      -5.929  13.960  21.908  0.00  0.00    +0.000 A 
ATOM     15  C   UNL     1      -5.404  13.633  20.661  0.00  0.00    +0.000 A 
BRANCH  13  16
ATOM     16  C   UNL     1      -7.462  13.494  23.759  0.00  0.00    +0.000 C 
ATOM     17  N   UNL     1      -7.917  13.785  24.784  0.00  0.00    +0.000 NA
ENDBRANCH  13  16
ENDBRANCH   7  10
BRANCH   4  18
ATOM     18  C   UNL     1      -0.654  11.944  19.559  0.00  0.00    +0.000 C 
BRANCH  18  19
ATOM     19  C   UNL     1      -0.159  10.861  20.504  0.00  0.00    +0.000 A 
ATOM     20  C   UNL     1      -0.573  10.875  21.855  0.00  0.00    +0.000 A 
ATOM     21  C   UNL     1      -0.203   9.862  22.743  0.00  0.00    +0.000 A 
ATOM     22  C   UNL     1       0.572   8.799  22.298  0.00  0.00    +0.000 A 
ATOM     23  C   UNL     1       1.010   8.770  20.977  0.00  0.00    +0.000 A 
ATOM     24  C   UNL     1       0.665   9.799  20.090  0.00  0.00    +0.000 A 
ATOM     25 BR   UNL     1       1.412   9.682  18.346  0.00  0.00    +0.000 Br
ENDBRANCH  18  19
BRANCH  18  26
ATOM     26  O   UNL     1      -1.038  13.104  20.326  0.00  0.00    +0.000 OA
ATOM     27  H   UNL     1      -1.957  13.298  20.048  0.00  0.00    +0.000 HD
ENDBRANCH  18  26
ENDBRANCH   4  18
TORSDOF 5
ENDMDL
MODEL 8
REMARK VINA RESULT:      -7.1      3.216      6.183
REMARK  Name = 
REMARK  6 active torsions:
REMARK  status: ('A' for Active; 'I' for Inactive)
REMARK    1  A    between atoms: C_1  and  C_2
REMARK    2  A    between atoms: C_4  and  C_5
REMARK    3  A    between atoms: C_5  and  O_6
REMARK    4  A    between atoms: C_5  and  C_7
REMARK    5  A    between atoms: N_16  and  C_17
REMARK    6  A    between atoms: C_20  and  C_21
REMARK                            x       y       z     vdW  Elec       q    Type
REMARK                         _______ _______ _______ _____ _____    ______ ____
ROOT
ATOM      1  C   UNL     1       8.587   5.285  20.059  0.00  0.00    +0.000 C 
ATOM      2  C   UNL     1       7.533   5.338  18.994  0.00  0.00    +0.000 A 
ATOM      3  C   UNL     1       6.217   5.593  19.324  0.00  0.00    +0.000 A 
ATOM      4  C   UNL     1       5.322   5.669  18.282  0.00  0.00    +0.000 A 
ATOM      5  N   UNL     1       5.714   5.474  17.002  0.00  0.00    +0.000 NA
ATOM      6  C   UNL     1       7.005   5.191  16.764  0.00  0.00    +0.000 A 
ATOM      7  N   UNL     1       7.416   4.964  15.453  0.00  0.00    +0.000 N 
ATOM      8  N   UNL     1       7.940   5.141  17.722  0.00  0.00    +0.000 NA
ATOM      9  H   UNL     1       8.412   4.816  15.407  0.00  0.00    +0.000 HD
ENDROOT
BRANCH   7  10
ATOM     10  C   UNL     1       6.654   4.435  14.401  0.00  0.00    +0.000 A 
ATOM     11  C   UNL     1       7.211   4.347  13.121  0.00  0.00    +0.000 A 
ATOM     12  C   UNL     1       6.437   3.922  12.034  0.00  0.00    +0.000 A 
ATOM     13  C   UNL     1       5.099   3.559  12.223  0.00  0.00    +0.000 A 
ATOM     14  C   UNL     1       4.544   3.609  13.499  0.00  0.00    +0.000 A 
ATOM     15  C   UNL     1       5.314   4.047  14.573  0.00  0.00    +0.000 A 
BRANCH  13  16
ATOM     16  C   UNL     1       4.296   3.150  11.107  0.00  0.00    +0.000 C 
ATOM     17  N   UNL     1       3.655   2.820  10.200  0.00  0.00    +0.000 NA
ENDBRANCH  13  16
ENDBRANCH   7  10
BRANCH   4  18
ATOM     18  C   UNL     1       3.858   6.039  18.488  0.00  0.00    +0.000 C 
BRANCH  18  19
ATOM     19  C   UNL     1       2.926   4.838  18.525  0.00  0.00    +0.000 A 
ATOM     20  C   UNL     1       3.078   3.812  17.566  0.00  0.00    +0.000 A 
ATOM     21  C   UNL     1       2.294   2.656  17.602  0.00  0.00    +0.000 A 
ATOM     22  C   UNL     1       1.354   2.487  18.610  0.00  0.00    +0.000 A 
ATOM     23  C   UNL     1       1.171   3.491  19.557  0.00  0.00    +0.000 A 
ATOM     24  C   UNL     1       1.935   4.665  19.507  0.00  0.00    +0.000 A 
ATOM     25 BR   UNL     1       1.511   5.992  20.801  0.00  0.00    +0.000 Br
ENDBRANCH  18  19
BRANCH  18  26
ATOM     26  O   UNL     1       3.452   6.923  17.423  0.00  0.00    +0.000 OA
ATOM     27  H   UNL     1       2.848   7.568  17.847  0.00  0.00    +0.000 HD
ENDBRANCH  18  26
ENDBRANCH   4  18
TORSDOF 5
ENDMDL
MODEL 9
REMARK VINA RESULT:      -7.1      7.859      9.976
REMARK  Name = 
REMARK  6 active torsions:
REMARK  status: ('A' for Active; 'I' for Inactive)
REMARK    1  A    between atoms: C_1  and  C_2
REMARK    2  A    between atoms: C_4  and  C_5
REMARK    3  A    between atoms: C_5  and  O_6
REMARK    4  A    between atoms: C_5  and  C_7
REMARK    5  A    between atoms: N_16  and  C_17
REMARK    6  A    between atoms: C_20  and  C_21
REMARK                            x       y       z     vdW  Elec       q    Type
REMARK                         _______ _______ _______ _____ _____    ______ ____
ROOT
ATOM      1  C   UNL     1      -2.850   9.994  14.576  0.00  0.00    +0.000 C 
ATOM      2  C   UNL     1      -2.922  10.452  16.002  0.00  0.00    +0.000 A 
ATOM      3  C   UNL     1      -1.938  10.095  16.902  0.00  0.00    +0.000 A 
ATOM      4  C   UNL     1      -2.058  10.594  18.179  0.00  0.00    +0.000 A 
ATOM      5  N   UNL     1      -3.105  11.373  18.535  0.00  0.00    +0.000 NA
ATOM      6  C   UNL     1      -4.043  11.645  17.613  0.00  0.00    +0.000 A 
ATOM      7  N   UNL     1      -5.138  12.425  17.974  0.00  0.00    +0.000 N 
ATOM      8  N   UNL     1      -3.973  11.228  16.342  0.00  0.00    +0.000 NA
ATOM      9  H   UNL     1      -5.736  12.597  17.180  0.00  0.00    +0.000 HD
ENDROOT
BRANCH   7  10
ATOM     10  C   UNL     1      -5.732  12.526  19.241  0.00  0.00    +0.000 A 
ATOM     11  C   UNL     1      -5.066  13.210  20.263  0.00  0.00    +0.000 A 
ATOM     12  C   UNL     1      -5.588  13.235  21.562  0.00  0.00    +0.000 A 
ATOM     13  C   UNL     1      -6.796  12.590  21.847  0.00  0.00    +0.000 A 
ATOM     14  C   UNL     1      -7.485  11.936  20.829  0.00  0.00    +0.000 A 
ATOM     15  C   UNL     1      -6.954  11.902  19.543  0.00  0.00    +0.000 A 
BRANCH  13  16
ATOM     16  C   UNL     1      -7.319  12.590  23.182  0.00  0.00    +0.000 C 
ATOM     17  N   UNL     1      -7.749  12.594  24.258  0.00  0.00    +0.000 NA
ENDBRANCH  13  16
ENDBRANCH   7  10
BRANCH   4  18
ATOM     18  C   UNL     1      -0.998  10.363  19.249  0.00  0.00    +0.000 C 
BRANCH  18  19
ATOM     19  C   UNL     1      -0.984  11.429  20.334  0.00  0.00    +0.000 A 
ATOM     20  C   UNL     1      -1.328  11.076  21.658  0.00  0.00    +0.000 A 
ATOM     21  C   UNL     1      -1.261  12.002  22.702  0.00  0.00    +0.000 A 
ATOM     22  C   UNL     1      -0.829  13.298  22.452  0.00  0.00    +0.000 A 
ATOM     23  C   UNL     1      -0.502  13.677  21.153  0.00  0.00    +0.000 A 
ATOM     24  C   UNL     1      -0.596  12.759  20.098  0.00  0.00    +0.000 A 
ATOM     25 BR   UNL     1      -0.214  13.439  18.364  0.00  0.00    +0.000 Br
ENDBRANCH  18  19
BRANCH  18  26
ATOM     26  O   UNL     1       0.296  10.316  18.613  0.00  0.00    +0.000 OA
ATOM     27  H   UNL     1       0.343  11.133  18.075  0.00  0.00    +0.000 HD
ENDBRANCH  18  26
ENDBRANCH   4  18
TORSDOF 5
ENDMDL
