MODEL 1
REMARK VINA RESULT:      -7.1      0.000      0.000
REMARK  Name = 
REMARK  7 active torsions:
REMARK  status: ('A' for Active; 'I' for Inactive)
REMARK    1  A    between atoms: C_1  and  C_2
REMARK    2  A    between atoms: C_2  and  O_3
REMARK    3  A    between atoms: O_3  and  C_4
REMARK    4  A    between atoms: C_6  and  C_7
REMARK    5  A    between atoms: C_13  and  O_14
REMARK    6  A    between atoms: O_14  and  C_15
REMARK    7  A    between atoms: C_15  and  C_16
REMARK                            x       y       z     vdW  Elec       q    Type
REMARK                         _______ _______ _______ _____ _____    ______ ____
ROOT
ATOM      1  C   UNL     1       5.757   4.626  16.403  0.00  0.00    +0.000 A 
ATOM      2  C   UNL     1       6.804   5.526  16.659  0.00  0.00    +0.000 A 
ATOM      3  C   UNL     1       6.626   6.606  17.520  0.00  0.00    +0.000 A 
ATOM      4  C   UNL     1       5.389   6.775  18.143  0.00  0.00    +0.000 A 
ATOM      5  C   UNL     1       4.333   5.877  17.919  0.00  0.00    +0.000 A 
ATOM      6 BR   UNL     1       2.793   6.211  18.991  0.00  0.00    +0.000 Br
ATOM      7  C   UNL     1       4.495   4.800  17.026  0.00  0.00    +0.000 A 
ENDROOT
BRANCH   3   8
ATOM      8  C   UNL     1       7.708   7.587  17.828  0.00  0.00    +0.000 C 
ATOM      9  N   UNL     1       8.505   7.376  18.919  0.00  0.00    +0.000 N 
ATOM     10  O   UNL     1       7.888   8.570  17.124  0.00  0.00    +0.000 OA
ATOM     11  H   UNL     1       8.444   6.608  19.562  0.00  0.00    +0.000 HD
ATOM     12  H   UNL     1       9.223   8.069  19.087  0.00  0.00    +0.000 HD
ENDBRANCH   3   8
BRANCH   1  13
ATOM     13  O   UNL     1       5.896   3.543  15.553  0.00  0.00    +0.000 OA
BRANCH  13  15
ATOM     14  C   UNL     1       5.306   3.773  13.221  0.00  0.00    +0.000 C 
ATOM     15  C   UNL     1       6.419   3.812  14.249  0.00  0.00    +0.000 C 
ENDBRANCH  13  15
ENDBRANCH   1  13
BRANCH   7  16
ATOM     16  O   UNL     1       3.569   3.826  16.735  0.00  0.00    +0.000 OA
BRANCH  16  17
ATOM     17  C   UNL     1       3.599   2.617  17.496  0.00  0.00    +0.000 C 
BRANCH  17  18
ATOM     18  C   UNL     1       2.759   2.684  18.755  0.00  0.00    +0.000 A 
ATOM     19  C   UNL     1       1.370   2.842  18.730  0.00  0.00    +0.000 A 
ATOM     20  C   UNL     1       0.651   2.959  19.923  0.00  0.00    +0.000 A 
ATOM     21  C   UNL     1       1.312   2.911  21.150  0.00  0.00    +0.000 A 
ATOM     22  C   UNL     1       2.690   2.724  21.191  0.00  0.00    +0.000 A 
ATOM     23  C   UNL     1       3.409   2.605  20.000  0.00  0.00    +0.000 A 
ENDBRANCH  17  18
ENDBRANCH  16  17
ENDBRANCH   7  16
TORSDOF 6
ENDMDL
MODEL 2
REMARK VINA RESULT:      -6.9      2.434      3.504
REMARK  Name = 
REMARK  7 active torsions:
REMARK  status: ('A' for Active; 'I' for Inactive)
REMARK    1  A    between atoms: C_1  and  C_2
REMARK    2  A    between atoms: C_2  and  O_3
REMARK    3  A    between atoms: O_3  and  C_4
REMARK    4  A    between atoms: C_6  and  C_7
REMARK    5  A    between atoms: C_13  and  O_14
REMARK    6  A    between atoms: O_14  and  C_15
REMARK    7  A    between atoms: C_15  and  C_16
REMARK                            x       y       z     vdW  Elec       q    Type
REMARK                         _______ _______ _______ _____ _____    ______ ____
ROOT
ATOM      1  C   UNL     1       5.366   3.819  16.862  0.00  0.00    +0.000 A 
ATOM      2  C   UNL     1       5.768   3.821  15.516  0.00  0.00    +0.000 A 
ATOM      3  C   UNL     1       6.695   4.748  15.047  0.00  0.00    +0.000 A 
ATOM      4  C   UNL     1       7.235   5.675  15.941  0.00  0.00    +0.000 A 
ATOM      5  C   UNL     1       6.863   5.680  17.295  0.00  0.00    +0.000 A 
ATOM      6 BR   UNL     1       7.839   6.923  18.359  0.00  0.00    +0.000 Br
ATOM      7  C   UNL     1       5.904   4.766  17.771  0.00  0.00    +0.000 A 
ENDROOT
BRANCH   3   8
ATOM      8  C   UNL     1       7.159   4.788  13.629  0.00  0.00    +0.000 C 
ATOM      9  N   UNL     1       8.126   5.686  13.271  0.00  0.00    +0.000 N 
ATOM     10  O   UNL     1       6.687   4.035  12.789  0.00  0.00    +0.000 OA
ATOM     11  H   UNL     1       8.578   6.348  13.875  0.00  0.00    +0.000 HD
ATOM     12  H   UNL     1       8.407   5.675  12.299  0.00  0.00    +0.000 HD
ENDBRANCH   3   8
BRANCH   1  13
ATOM     13  O   UNL     1       4.448   2.915  17.363  0.00  0.00    +0.000 OA
BRANCH  13  15
ATOM     14  C   UNL     1       2.197   2.093  17.679  0.00  0.00    +0.000 C 
ATOM     15  C   UNL     1       3.085   3.090  16.963  0.00  0.00    +0.000 C 
ENDBRANCH  13  15
ENDBRANCH   1  13
BRANCH   7  16
ATOM     16  O   UNL     1       5.469   4.629  19.068  0.00  0.00    +0.000 OA
BRANCH  16  17
ATOM     17  C   UNL     1       4.375   5.439  19.504  0.00  0.00    +0.000 C 
BRANCH  17  18
ATOM     18  C   UNL     1       3.221   4.632  20.063  0.00  0.00    +0.000 A 
ATOM     19  C   UNL     1       1.886   5.032  19.934  0.00  0.00    +0.000 A 
ATOM     20  C   UNL     1       0.864   4.281  20.522  0.00  0.00    +0.000 A 
ATOM     21  C   UNL     1       1.166   3.122  21.237  0.00  0.00    +0.000 A 
ATOM     22  C   UNL     1       2.486   2.696  21.347  0.00  0.00    +0.000 A 
ATOM     23  C   UNL     1       3.507   3.444  20.759  0.00  0.00    +0.000 A 
ENDBRANCH  17  18
ENDBRANCH  16  17
ENDBRANCH   7  16
TORSDOF 6
ENDMDL
MODEL 3
REMARK VINA RESULT:      -6.9      2.427      3.680
REMARK  Name = 
REMARK  7 active torsions:
REMARK  status: ('A' for Active; 'I' for Inactive)
REMARK    1  A    between atoms: C_1  and  C_2
REMARK    2  A    between atoms: C_2  and  O_3
REMARK    3  A    between atoms: O_3  and  C_4
REMARK    4  A    between atoms: C_6  and  C_7
REMARK    5  A    between atoms: C_13  and  O_14
REMARK    6  A    between atoms: O_14  and  C_15
REMARK    7  A    between atoms: C_15  and  C_16
REMARK                            x       y       z     vdW  Elec       q    Type
REMARK                         _______ _______ _______ _____ _____    ______ ____
ROOT
ATOM      1  C   UNL     1       5.283   3.876  16.923  0.00  0.00    +0.000 A 
ATOM      2  C   UNL     1       5.653   3.811  15.571  0.00  0.00    +0.000 A 
ATOM      3  C   UNL     1       6.571   4.710  15.034  0.00  0.00    +0.000 A 
ATOM      4  C   UNL     1       7.135   5.676  15.869  0.00  0.00    +0.000 A 
ATOM      5  C   UNL     1       6.796   5.748  17.230  0.00  0.00    +0.000 A 
ATOM      6 BR   UNL     1       7.802   7.037  18.209  0.00  0.00    +0.000 Br
ATOM      7  C   UNL     1       5.845   4.863  17.773  0.00  0.00    +0.000 A 
ENDROOT
BRANCH   3   8
ATOM      8  C   UNL     1       7.000   4.679  13.606  0.00  0.00    +0.000 C 
ATOM      9  N   UNL     1       7.936   5.578  13.173  0.00  0.00    +0.000 N 
ATOM     10  O   UNL     1       6.529   3.867  12.822  0.00  0.00    +0.000 OA
ATOM     11  H   UNL     1       8.383   6.285  13.727  0.00  0.00    +0.000 HD
ATOM     12  H   UNL     1       8.193   5.518  12.196  0.00  0.00    +0.000 HD
ENDBRANCH   3   8
BRANCH   1  13
ATOM     13  O   UNL     1       4.374   3.001  17.490  0.00  0.00    +0.000 OA
BRANCH  13  15
ATOM     14  C   UNL     1       2.166   2.045  17.720  0.00  0.00    +0.000 C 
ATOM     15  C   UNL     1       3.028   3.067  17.008  0.00  0.00    +0.000 C 
ENDBRANCH  13  15
ENDBRANCH   1  13
BRANCH   7  16
ATOM     16  O   UNL     1       5.442   4.791  19.085  0.00  0.00    +0.000 OA
BRANCH  16  17
ATOM     17  C   UNL     1       4.286   5.534  19.479  0.00  0.00    +0.000 C 
BRANCH  17  18
ATOM     18  C   UNL     1       3.212   4.675  20.114  0.00  0.00    +0.000 A 
ATOM     19  C   UNL     1       3.502   3.512  20.835  0.00  0.00    +0.000 A 
ATOM     20  C   UNL     1       2.469   2.723  21.349  0.00  0.00    +0.000 A 
ATOM     21  C   UNL     1       1.138   3.092  21.152  0.00  0.00    +0.000 A 
ATOM     22  C   UNL     1       0.836   4.261  20.462  0.00  0.00    +0.000 A 
ATOM     23  C   UNL     1       1.867   5.051  19.951  0.00  0.00    +0.000 A 
ENDBRANCH  17  18
ENDBRANCH  16  17
ENDBRANCH   7  16
TORSDOF 6
ENDMDL
MODEL 4
REMARK VINA RESULT:      -6.8      0.695      1.262
REMARK  Name = 
REMARK  7 active torsions:
REMARK  status: ('A' for Active; 'I' for Inactive)
REMARK    1  A    between atoms: C_1  and  C_2
REMARK    2  A    between atoms: C_2  and  O_3
REMARK    3  A    between atoms: O_3  and  C_4
REMARK    4  A    between atoms: C_6  and  C_7
REMARK    5  A    between atoms: C_13  and  O_14
REMARK    6  A    between atoms: O_14  and  C_15
REMARK    7  A    between atoms: C_15  and  C_16
REMARK                            x       y       z     vdW  Elec       q    Type
REMARK                         _______ _______ _______ _____ _____    ______ ____
ROOT
ATOM      1  C   UNL     1       5.743   4.615  16.429  0.00  0.00    +0.000 A 
ATOM      2  C   UNL     1       6.805   5.480  16.734  0.00  0.00    +0.000 A 
ATOM      3  C   UNL     1       6.623   6.566  17.587  0.00  0.00    +0.000 A 
ATOM      4  C   UNL     1       5.364   6.777  18.151  0.00  0.00    +0.000 A 
ATOM      5  C   UNL     1       4.291   5.913  17.878  0.00  0.00    +0.000 A 
ATOM      6 BR   UNL     1       2.715   6.298  18.877  0.00  0.00    +0.000 Br
ATOM      7  C   UNL     1       4.459   4.831  16.992  0.00  0.00    +0.000 A 
ENDROOT
BRANCH   3   8
ATOM      8  C   UNL     1       7.720   7.512  17.945  0.00  0.00    +0.000 C 
ATOM      9  N   UNL     1       7.820   8.699  17.274  0.00  0.00    +0.000 N 
ATOM     10  O   UNL     1       8.526   7.240  18.824  0.00  0.00    +0.000 OA
ATOM     11  H   UNL     1       7.217   9.021  16.539  0.00  0.00    +0.000 HD
ATOM     12  H   UNL     1       8.581   9.306  17.553  0.00  0.00    +0.000 HD
ENDBRANCH   3   8
BRANCH   1  13
ATOM     13  O   UNL     1       5.886   3.527  15.586  0.00  0.00    +0.000 OA
BRANCH  13  15
ATOM     14  C   UNL     1       5.353   3.706  13.236  0.00  0.00    +0.000 C 
ATOM     15  C   UNL     1       6.438   3.784  14.291  0.00  0.00    +0.000 C 
ENDBRANCH  13  15
ENDBRANCH   1  13
BRANCH   7  16
ATOM     16  O   UNL     1       3.517   3.887  16.658  0.00  0.00    +0.000 OA
BRANCH  16  17
ATOM     17  C   UNL     1       3.497   2.661  17.393  0.00  0.00    +0.000 C 
BRANCH  17  18
ATOM     18  C   UNL     1       2.779   2.774  18.722  0.00  0.00    +0.000 A 
ATOM     19  C   UNL     1       3.444   2.694  19.951  0.00  0.00    +0.000 A 
ATOM     20  C   UNL     1       2.724   2.743  21.148  0.00  0.00    +0.000 A 
ATOM     21  C   UNL     1       1.336   2.880  21.129  0.00  0.00    +0.000 A 
ATOM     22  C   UNL     1       0.665   2.991  19.915  0.00  0.00    +0.000 A 
ATOM     23  C   UNL     1       1.383   2.944  18.719  0.00  0.00    +0.000 A 
ENDBRANCH  17  18
ENDBRANCH  16  17
ENDBRANCH   7  16
TORSDOF 6
ENDMDL
MODEL 5
REMARK VINA RESULT:      -6.7      2.482      3.928
REMARK  Name = 
REMARK  7 active torsions:
REMARK  status: ('A' for Active; 'I' for Inactive)
REMARK    1  A    between atoms: C_1  and  C_2
REMARK    2  A    between atoms: C_2  and  O_3
REMARK    3  A    between atoms: O_3  and  C_4
REMARK    4  A    between atoms: C_6  and  C_7
REMARK    5  A    between atoms: C_13  and  O_14
REMARK    6  A    between atoms: O_14  and  C_15
REMARK    7  A    between atoms: C_15  and  C_16
REMARK                            x       y       z     vdW  Elec       q    Type
REMARK                         _______ _______ _______ _____ _____    ______ ____
ROOT
ATOM      1  C   UNL     1       5.829   6.068  16.792  0.00  0.00    +0.000 A 
ATOM      2  C   UNL     1       6.311   5.798  15.502  0.00  0.00    +0.000 A 
ATOM      3  C   UNL     1       6.134   4.546  14.918  0.00  0.00    +0.000 A 
ATOM      4  C   UNL     1       5.452   3.559  15.631  0.00  0.00    +0.000 A 
ATOM      5  C   UNL     1       4.942   3.812  16.915  0.00  0.00    +0.000 A 
ATOM      6 BR   UNL     1       3.914   2.378  17.634  0.00  0.00    +0.000 Br
ATOM      7  C   UNL     1       5.144   5.065  17.525  0.00  0.00    +0.000 A 
ENDROOT
BRANCH   3   8
ATOM      8  C   UNL     1       6.623   4.211  13.548  0.00  0.00    +0.000 C 
ATOM      9  N   UNL     1       6.161   3.079  12.936  0.00  0.00    +0.000 N 
ATOM     10  O   UNL     1       7.426   4.930  12.971  0.00  0.00    +0.000 OA
ATOM     11  H   UNL     1       5.506   2.421  13.317  0.00  0.00    +0.000 HD
ATOM     12  H   UNL     1       6.523   2.894  12.009  0.00  0.00    +0.000 HD
ENDBRANCH   3   8
BRANCH   1  13
ATOM     13  O   UNL     1       5.987   7.298  17.405  0.00  0.00    +0.000 OA
BRANCH  13  15
ATOM     14  C   UNL     1       8.101   7.069  18.553  0.00  0.00    +0.000 C 
ATOM     15  C   UNL     1       7.320   7.810  17.486  0.00  0.00    +0.000 C 
ENDBRANCH  13  15
ENDBRANCH   1  13
BRANCH   7  16
ATOM     16  O   UNL     1       4.677   5.467  18.754  0.00  0.00    +0.000 OA
BRANCH  16  17
ATOM     17  C   UNL     1       3.294   5.806  18.874  0.00  0.00    +0.000 C 
BRANCH  17  18
ATOM     18  C   UNL     1       2.500   4.801  19.683  0.00  0.00    +0.000 A 
ATOM     19  C   UNL     1       2.837   4.452  20.996  0.00  0.00    +0.000 A 
ATOM     20  C   UNL     1       2.107   3.474  21.676  0.00  0.00    +0.000 A 
ATOM     21  C   UNL     1       1.030   2.841  21.055  0.00  0.00    +0.000 A 
ATOM     22  C   UNL     1       0.666   3.199  19.761  0.00  0.00    +0.000 A 
ATOM     23  C   UNL     1       1.393   4.178  19.082  0.00  0.00    +0.000 A 
ENDBRANCH  17  18
ENDBRANCH  16  17
ENDBRANCH   7  16
TORSDOF 6
ENDMDL
MODEL 6
REMARK VINA RESULT:      -6.7      2.394      3.879
REMARK  Name = 
REMARK  7 active torsions:
REMARK  status: ('A' for Active; 'I' for Inactive)
REMARK    1  A    between atoms: C_1  and  C_2
REMARK    2  A    between atoms: C_2  and  O_3
REMARK    3  A    between atoms: O_3  and  C_4
REMARK    4  A    between atoms: C_6  and  C_7
REMARK    5  A    between atoms: C_13  and  O_14
REMARK    6  A    between atoms: O_14  and  C_15
REMARK    7  A    between atoms: C_15  and  C_16
REMARK                            x       y       z     vdW  Elec       q    Type
REMARK                         _______ _______ _______ _____ _____    ______ ____
ROOT
ATOM      1  C   UNL     1       5.974   6.286  16.840  0.00  0.00    +0.000 A 
ATOM      2  C   UNL     1       6.608   5.961  15.631  0.00  0.00    +0.000 A 
ATOM      3  C   UNL     1       6.196   4.863  14.878  0.00  0.00    +0.000 A 
ATOM      4  C   UNL     1       5.127   4.093  15.339  0.00  0.00    +0.000 A 
ATOM      5  C   UNL     1       4.464   4.411  16.535  0.00  0.00    +0.000 A 
ATOM      6 BR   UNL     1       2.939   3.323  16.886  0.00  0.00    +0.000 Br
ATOM      7  C   UNL     1       4.894   5.501  17.317  0.00  0.00    +0.000 A 
ENDROOT
BRANCH   3   8
ATOM      8  C   UNL     1       6.833   4.478  13.585  0.00  0.00    +0.000 C 
ATOM      9  N   UNL     1       6.454   3.313  12.978  0.00  0.00    +0.000 N 
ATOM     10  O   UNL     1       7.685   5.185  13.066  0.00  0.00    +0.000 OA
ATOM     11  H   UNL     1       5.770   2.661  13.316  0.00  0.00    +0.000 HD
ATOM     12  H   UNL     1       6.915   3.096  12.104  0.00  0.00    +0.000 HD
ENDBRANCH   3   8
BRANCH   1  13
ATOM     13  O   UNL     1       6.356   7.368  17.614  0.00  0.00    +0.000 OA
BRANCH  13  15
ATOM     14  C   UNL     1       8.103   9.016  17.887  0.00  0.00    +0.000 C 
ATOM     15  C   UNL     1       7.760   7.541  17.831  0.00  0.00    +0.000 C 
ENDBRANCH  13  15
ENDBRANCH   1  13
BRANCH   7  16
ATOM     16  O   UNL     1       4.325   5.951  18.485  0.00  0.00    +0.000 OA
BRANCH  16  17
ATOM     17  C   UNL     1       4.556   5.204  19.681  0.00  0.00    +0.000 C 
BRANCH  17  18
ATOM     18  C   UNL     1       3.339   4.432  20.147  0.00  0.00    +0.000 A 
ATOM     19  C   UNL     1       3.404   3.098  20.566  0.00  0.00    +0.000 A 
ATOM     20  C   UNL     1       2.240   2.415  20.928  0.00  0.00    +0.000 A 
ATOM     21  C   UNL     1       1.003   3.058  20.883  0.00  0.00    +0.000 A 
ATOM     22  C   UNL     1       0.928   4.393  20.497  0.00  0.00    +0.000 A 
ATOM     23  C   UNL     1       2.090   5.077  20.137  0.00  0.00    +0.000 A 
ENDBRANCH  17  18
ENDBRANCH  16  17
ENDBRANCH   7  16
TORSDOF 6
ENDMDL
MODEL 7
REMARK VINA RESULT:      -6.7      2.550      3.897
REMARK  Name = 
REMARK  7 active torsions:
REMARK  status: ('A' for Active; 'I' for Inactive)
REMARK    1  A    between atoms: C_1  and  C_2
REMARK    2  A    between atoms: C_2  and  O_3
REMARK    3  A    between atoms: O_3  and  C_4
REMARK    4  A    between atoms: C_6  and  C_7
REMARK    5  A    between atoms: C_13  and  O_14
REMARK    6  A    between atoms: O_14  and  C_15
REMARK    7  A    between atoms: C_15  and  C_16
REMARK                            x       y       z     vdW  Elec       q    Type
REMARK                         _______ _______ _______ _____ _____    ______ ____
ROOT
ATOM      1  C   UNL     1       6.799   5.405  17.060  0.00  0.00    +0.000 A 
ATOM      2  C   UNL     1       7.130   5.294  15.700  0.00  0.00    +0.000 A 
ATOM      3  C   UNL     1       6.468   4.388  14.874  0.00  0.00    +0.000 A 
ATOM      4  C   UNL     1       5.454   3.596  15.416  0.00  0.00    +0.000 A 
ATOM      5  C   UNL     1       5.092   3.705  16.768  0.00  0.00    +0.000 A 
ATOM      6 BR   UNL     1       3.583   2.646  17.252  0.00  0.00    +0.000 Br
ATOM      7  C   UNL     1       5.777   4.595  17.618  0.00  0.00    +0.000 A 
ENDROOT
BRANCH   3   8
ATOM      8  C   UNL     1       6.777   4.235  13.422  0.00  0.00    +0.000 C 
ATOM      9  N   UNL     1       6.249   3.176  12.738  0.00  0.00    +0.000 N 
ATOM     10  O   UNL     1       7.494   5.038  12.841  0.00  0.00    +0.000 OA
ATOM     11  H   UNL     1       5.654   2.461  13.114  0.00  0.00    +0.000 HD
ATOM     12  H   UNL     1       6.488   3.115  11.756  0.00  0.00    +0.000 HD
ENDBRANCH   3   8
BRANCH   1  13
ATOM     13  O   UNL     1       7.435   6.292  17.910  0.00  0.00    +0.000 OA
BRANCH  13  15
ATOM     14  C   UNL     1       8.389   8.476  18.311  0.00  0.00    +0.000 C 
ATOM     15  C   UNL     1       7.309   7.683  17.601  0.00  0.00    +0.000 C 
ENDBRANCH  13  15
ENDBRANCH   1  13
BRANCH   7  16
ATOM     16  O   UNL     1       5.514   4.834  18.946  0.00  0.00    +0.000 OA
BRANCH  16  17
ATOM     17  C   UNL     1       4.340   5.578  19.279  0.00  0.00    +0.000 C 
BRANCH  17  18
ATOM     18  C   UNL     1       3.248   4.728  19.894  0.00  0.00    +0.000 A 
ATOM     19  C   UNL     1       1.892   5.063  19.813  0.00  0.00    +0.000 A 
ATOM     20  C   UNL     1       0.930   4.275  20.451  0.00  0.00    +0.000 A 
ATOM     21  C   UNL     1       1.313   3.143  21.170  0.00  0.00    +0.000 A 
ATOM     22  C   UNL     1       2.655   2.781  21.234  0.00  0.00    +0.000 A 
ATOM     23  C   UNL     1       3.616   3.566  20.595  0.00  0.00    +0.000 A 
ENDBRANCH  17  18
ENDBRANCH  16  17
ENDBRANCH   7  16
TORSDOF 6
ENDMDL
MODEL 8
REMARK VINA RESULT:      -6.7      2.953      4.724
REMARK  Name = 
REMARK  7 active torsions:
REMARK  status: ('A' for Active; 'I' for Inactive)
REMARK    1  A    between atoms: C_1  and  C_2
REMARK    2  A    between atoms: C_2  and  O_3
REMARK    3  A    between atoms: O_3  and  C_4
REMARK    4  A    between atoms: C_6  and  C_7
REMARK    5  A    between atoms: C_13  and  O_14
REMARK    6  A    between atoms: O_14  and  C_15
REMARK    7  A    between atoms: C_15  and  C_16
REMARK                            x       y       z     vdW  Elec       q    Type
REMARK                         _______ _______ _______ _____ _____    ______ ____
ROOT
ATOM      1  C   UNL     1       6.102   6.058  17.290  0.00  0.00    +0.000 A 
ATOM      2  C   UNL     1       6.575   5.831  15.988  0.00  0.00    +0.000 A 
ATOM      3  C   UNL     1       6.190   4.700  15.272  0.00  0.00    +0.000 A 
ATOM      4  C   UNL     1       5.308   3.795  15.865  0.00  0.00    +0.000 A 
ATOM      5  C   UNL     1       4.805   4.011  17.158  0.00  0.00    +0.000 A 
ATOM      6 BR   UNL     1       3.499   2.734  17.702  0.00  0.00    +0.000 Br
ATOM      7  C   UNL     1       5.214   5.135  17.900  0.00  0.00    +0.000 A 
ENDROOT
BRANCH   3   8
ATOM      8  C   UNL     1       6.660   4.416  13.885  0.00  0.00    +0.000 C 
ATOM      9  N   UNL     1       6.210   3.294  13.247  0.00  0.00    +0.000 N 
ATOM     10  O   UNL     1       7.439   5.168  13.316  0.00  0.00    +0.000 OA
ATOM     11  H   UNL     1       5.575   2.611  13.619  0.00  0.00    +0.000 HD
ATOM     12  H   UNL     1       6.558   3.145  12.308  0.00  0.00    +0.000 HD
ENDBRANCH   3   8
BRANCH   1  13
ATOM     13  O   UNL     1       6.463   7.168  18.031  0.00  0.00    +0.000 OA
BRANCH  13  15
ATOM     14  C   UNL     1       8.117   8.927  17.900  0.00  0.00    +0.000 C 
ATOM     15  C   UNL     1       7.863   7.450  18.129  0.00  0.00    +0.000 C 
ENDBRANCH  13  15
ENDBRANCH   1  13
BRANCH   7  16
ATOM     16  O   UNL     1       4.783   5.495  19.155  0.00  0.00    +0.000 OA
BRANCH  16  17
ATOM     17  C   UNL     1       3.381   5.443  19.429  0.00  0.00    +0.000 C 
BRANCH  17  18
ATOM     18  C   UNL     1       2.676   6.762  19.186  0.00  0.00    +0.000 A 
ATOM     19  C   UNL     1       2.685   7.407  17.944  0.00  0.00    +0.000 A 
ATOM     20  C   UNL     1       2.070   8.652  17.791  0.00  0.00    +0.000 A 
ATOM     21  C   UNL     1       1.435   9.261  18.873  0.00  0.00    +0.000 A 
ATOM     22  C   UNL     1       1.392   8.617  20.106  0.00  0.00    +0.000 A 
ATOM     23  C   UNL     1       2.004   7.373  20.260  0.00  0.00    +0.000 A 
ENDBRANCH  17  18
ENDBRANCH  16  17
ENDBRANCH   7  16
TORSDOF 6
ENDMDL
MODEL 9
REMARK VINA RESULT:      -6.7      2.319      3.715
REMARK  Name = 
REMARK  7 active torsions:
REMARK  status: ('A' for Active; 'I' for Inactive)
REMARK    1  A    between atoms: C_1  and  C_2
REMARK    2  A    between atoms: C_2  and  O_3
REMARK    3  A    between atoms: O_3  and  C_4
REMARK    4  A    between atoms: C_6  and  C_7
REMARK    5  A    between atoms: C_13  and  O_14
REMARK    6  A    between atoms: O_14  and  C_15
REMARK    7  A    between atoms: C_15  and  C_16
REMARK                            x       y       z     vdW  Elec       q    Type
REMARK                         _______ _______ _______ _____ _____    ______ ____
ROOT
ATOM      1  C   UNL     1       7.077   4.825  17.541  0.00  0.00    +0.000 A 
ATOM      2  C   UNL     1       7.496   4.957  16.208  0.00  0.00    +0.000 A 
ATOM      3  C   UNL     1       6.687   4.529  15.157  0.00  0.00    +0.000 A 
ATOM      4  C   UNL     1       5.440   3.975  15.449  0.00  0.00    +0.000 A 
ATOM      5  C   UNL     1       4.991   3.851  16.774  0.00  0.00    +0.000 A 
ATOM      6 BR   UNL     1       3.201   3.216  16.927  0.00  0.00    +0.000 Br
ATOM      7  C   UNL     1       5.815   4.253  17.843  0.00  0.00    +0.000 A 
ENDROOT
BRANCH   3   8
ATOM      8  C   UNL     1       7.083   4.653  13.724  0.00  0.00    +0.000 C 
ATOM      9  N   UNL     1       7.995   5.608  13.366  0.00  0.00    +0.000 N 
ATOM     10  O   UNL     1       6.606   3.918  12.871  0.00  0.00    +0.000 OA
ATOM     11  H   UNL     1       8.445   6.261  13.980  0.00  0.00    +0.000 HD
ATOM     12  H   UNL     1       8.230   5.652  12.383  0.00  0.00    +0.000 HD
ENDBRANCH   3   8
BRANCH   1  13
ATOM     13  O   UNL     1       7.853   5.238  18.610  0.00  0.00    +0.000 OA
BRANCH  13  15
ATOM     14  C   UNL     1       7.274   7.416  17.738  0.00  0.00    +0.000 C 
ATOM     15  C   UNL     1       8.169   6.632  18.676  0.00  0.00    +0.000 C 
ENDBRANCH  13  15
ENDBRANCH   1  13
BRANCH   7  16
ATOM     16  O   UNL     1       5.500   4.225  19.181  0.00  0.00    +0.000 OA
BRANCH  16  17
ATOM     17  C   UNL     1       4.483   5.110  19.654  0.00  0.00    +0.000 C 
BRANCH  17  18
ATOM     18  C   UNL     1       3.246   4.388  20.150  0.00  0.00    +0.000 A 
ATOM     19  C   UNL     1       3.296   3.119  20.737  0.00  0.00    +0.000 A 
ATOM     20  C   UNL     1       2.118   2.473  21.122  0.00  0.00    +0.000 A 
ATOM     21  C   UNL     1       0.882   3.091  20.930  0.00  0.00    +0.000 A 
ATOM     22  C   UNL     1       0.820   4.365  20.375  0.00  0.00    +0.000 A 
ATOM     23  C   UNL     1       1.996   5.012  19.993  0.00  0.00    +0.000 A 
ENDBRANCH  17  18
ENDBRANCH  16  17
ENDBRANCH   7  16
TORSDOF 6
ENDMDL
