MODEL 1
REMARK VINA RESULT:      -7.1      0.000      0.000
REMARK  Name = 
REMARK  7 active torsions:
REMARK  status: ('A' for Active; 'I' for Inactive)
REMARK    1  A    between atoms: C_1  and  C_2
REMARK    2  A    between atoms: N_5  and  C_6
REMARK    3  A    between atoms: C_6  and  C_7
REMARK    4  A    between atoms: C_7  and  C_8
REMARK    5  A    between atoms: C_7  and  O_9
REMARK    6  A    between atoms: O_9  and  C_10
REMARK    7  A    between atoms: C_10  and  C_12
REMARK                            x       y       z     vdW  Elec       q    Type
REMARK                         _______ _______ _______ _____ _____    ______ ____
ROOT
ATOM      1  C   UNL     1       2.437   4.948  18.534  0.00  0.00    +0.000 C 
ATOM      2  O   UNL     1       2.136   4.494  17.441  0.00  0.00    +0.000 OA
ENDROOT
BRANCH   1   3
ATOM      3  C   UNL     1       2.147   6.347  18.945  0.00  0.00    +0.000 A 
ATOM      4  C   UNL     1       1.754   6.577  20.274  0.00  0.00    +0.000 A 
ATOM      5  C   UNL     1       1.440   7.867  20.705  0.00  0.00    +0.000 A 
ATOM      6  C   UNL     1       1.496   8.928  19.804  0.00  0.00    +0.000 A 
ATOM      7  C   UNL     1       1.918   8.710  18.488  0.00  0.00    +0.000 A 
ATOM      8  C   UNL     1       2.231   7.423  18.052  0.00  0.00    +0.000 A 
ATOM      9  O   UNL     1       2.018   9.713  17.556  0.00  0.00    +0.000 OA
ATOM     10  C   UNL     1       1.947  11.009  18.163  0.00  0.00    +0.000 C 
ATOM     11  C   UNL     1       0.841  11.060  19.203  0.00  0.00    +0.000 C 
ATOM     12  O   UNL     1       1.129  10.160  20.280  0.00  0.00    +0.000 OA
ENDBRANCH   1   3
BRANCH   1  13
ATOM     13  O   UNL     1       3.079   4.278  19.523  0.00  0.00    +0.000 OA
BRANCH  13  14
ATOM     14  C   UNL     1       4.231   3.500  19.110  0.00  0.00    +0.000 C 
ATOM     15  C   UNL     1       4.482   2.474  20.209  0.00  0.00    +0.000 C 
BRANCH  14  16
ATOM     16  C   UNL     1       5.429   4.459  18.906  0.00  0.00    +0.000 C 
BRANCH  16  21
ATOM     17  C   UNL     1       7.553   8.476  17.843  0.00  0.00    +0.000 C 
ATOM     18  C   UNL     1       7.388   7.067  17.278  0.00  0.00    +0.000 C 
ATOM     19  C   UNL     1       5.913   6.793  16.943  0.00  0.00    +0.000 C 
ATOM     20  C   UNL     1       5.657   5.321  16.605  0.00  0.00    +0.000 C 
ATOM     21  N   UNL     1       6.153   4.378  17.620  0.00  0.00    +0.000 NA
ATOM     22  C   UNL     1       7.599   4.596  17.814  0.00  0.00    +0.000 C 
ATOM     23  C   UNL     1       7.950   6.022  18.252  0.00  0.00    +0.000 C 
ENDBRANCH  16  21
ENDBRANCH  14  16
ENDBRANCH  13  14
ENDBRANCH   1  13
TORSDOF 5
ENDMDL
MODEL 2
REMARK VINA RESULT:      -7.1      2.460      4.412
REMARK  Name = 
REMARK  7 active torsions:
REMARK  status: ('A' for Active; 'I' for Inactive)
REMARK    1  A    between atoms: C_1  and  C_2
REMARK    2  A    between atoms: N_5  and  C_6
REMARK    3  A    between atoms: C_6  and  C_7
REMARK    4  A    between atoms: C_7  and  C_8
REMARK    5  A    between atoms: C_7  and  O_9
REMARK    6  A    between atoms: O_9  and  C_10
REMARK    7  A    between atoms: C_10  and  C_12
REMARK                            x       y       z     vdW  Elec       q    Type
REMARK                         _______ _______ _______ _____ _____    ______ ____
ROOT
ATOM      1  C   UNL     1       3.325   6.176  19.071  0.00  0.00    +0.000 C 
ATOM      2  O   UNL     1       3.605   5.564  20.090  0.00  0.00    +0.000 OA
ENDROOT
BRANCH   1   3
ATOM      3  C   UNL     1       2.476   7.397  19.060  0.00  0.00    +0.000 A 
ATOM      4  C   UNL     1       2.344   8.097  17.849  0.00  0.00    +0.000 A 
ATOM      5  C   UNL     1       1.586   9.267  17.789  0.00  0.00    +0.000 A 
ATOM      6  C   UNL     1       0.975   9.754  18.943  0.00  0.00    +0.000 A 
ATOM      7  C   UNL     1       1.076   9.043  20.143  0.00  0.00    +0.000 A 
ATOM      8  C   UNL     1       1.835   7.875  20.209  0.00  0.00    +0.000 A 
ATOM      9  O   UNL     1       0.480   9.452  21.310  0.00  0.00    +0.000 OA
ATOM     10  C   UNL     1      -0.484  10.487  21.079  0.00  0.00    +0.000 C 
ATOM     11  C   UNL     1       0.057  11.523  20.109  0.00  0.00    +0.000 C 
ATOM     12  O   UNL     1       0.285  10.932  18.824  0.00  0.00    +0.000 OA
ENDBRANCH   1   3
BRANCH   1  13
ATOM     13  O   UNL     1       3.714   5.847  17.815  0.00  0.00    +0.000 OA
BRANCH  13  14
ATOM     14  C   UNL     1       3.758   4.428  17.521  0.00  0.00    +0.000 C 
ATOM     15  C   UNL     1       4.565   4.272  16.237  0.00  0.00    +0.000 C 
BRANCH  14  16
ATOM     16  C   UNL     1       2.309   3.904  17.380  0.00  0.00    +0.000 C 
BRANCH  16  21
ATOM     17  C   UNL     1       2.152   3.220  21.995  0.00  0.00    +0.000 C 
ATOM     18  C   UNL     1       2.001   2.425  20.699  0.00  0.00    +0.000 C 
ATOM     19  C   UNL     1       3.317   2.439  19.905  0.00  0.00    +0.000 C 
ATOM     20  C   UNL     1       3.150   1.869  18.493  0.00  0.00    +0.000 C 
ATOM     21  N   UNL     1       2.061   2.488  17.721  0.00  0.00    +0.000 NA
ATOM     22  C   UNL     1       0.797   2.338  18.467  0.00  0.00    +0.000 C 
ATOM     23  C   UNL     1       0.832   2.966  19.864  0.00  0.00    +0.000 C 
ENDBRANCH  16  21
ENDBRANCH  14  16
ENDBRANCH  13  14
ENDBRANCH   1  13
TORSDOF 5
ENDMDL
MODEL 3
REMARK VINA RESULT:      -7.0      1.955      3.130
REMARK  Name = 
REMARK  7 active torsions:
REMARK  status: ('A' for Active; 'I' for Inactive)
REMARK    1  A    between atoms: C_1  and  C_2
REMARK    2  A    between atoms: N_5  and  C_6
REMARK    3  A    between atoms: C_6  and  C_7
REMARK    4  A    between atoms: C_7  and  C_8
REMARK    5  A    between atoms: C_7  and  O_9
REMARK    6  A    between atoms: O_9  and  C_10
REMARK    7  A    between atoms: C_10  and  C_12
REMARK                            x       y       z     vdW  Elec       q    Type
REMARK                         _______ _______ _______ _____ _____    ______ ____
ROOT
ATOM      1  C   UNL     1       2.130   8.138  18.740  0.00  0.00    +0.000 C 
ATOM      2  O   UNL     1       2.413   8.157  17.552  0.00  0.00    +0.000 OA
ENDROOT
BRANCH   1   3
ATOM      3  C   UNL     1       1.182   9.096  19.369  0.00  0.00    +0.000 A 
ATOM      4  C   UNL     1       0.430   9.929  18.524  0.00  0.00    +0.000 A 
ATOM      5  C   UNL     1      -0.452  10.868  19.061  0.00  0.00    +0.000 A 
ATOM      6  C   UNL     1      -0.570  10.993  20.444  0.00  0.00    +0.000 A 
ATOM      7  C   UNL     1       0.152  10.144  21.289  0.00  0.00    +0.000 A 
ATOM      8  C   UNL     1       1.037   9.206  20.757  0.00  0.00    +0.000 A 
ATOM      9  O   UNL     1       0.066  10.197  22.658  0.00  0.00    +0.000 OA
ATOM     10  C   UNL     1      -1.051  10.983  23.089  0.00  0.00    +0.000 C 
ATOM     11  C   UNL     1      -1.155  12.265  22.280  0.00  0.00    +0.000 C 
ATOM     12  O   UNL     1      -1.418  11.967  20.904  0.00  0.00    +0.000 OA
ENDBRANCH   1   3
BRANCH   1  13
ATOM     13  O   UNL     1       2.630   7.279  19.662  0.00  0.00    +0.000 OA
BRANCH  13  14
ATOM     14  C   UNL     1       2.799   5.909  19.219  0.00  0.00    +0.000 C 
ATOM     15  C   UNL     1       1.904   5.049  20.104  0.00  0.00    +0.000 C 
BRANCH  14  16
ATOM     16  C   UNL     1       4.295   5.530  19.337  0.00  0.00    +0.000 C 
BRANCH  16  21
ATOM     17  C   UNL     1       7.837   8.059  17.652  0.00  0.00    +0.000 C 
ATOM     18  C   UNL     1       7.127   6.733  17.382  0.00  0.00    +0.000 C 
ATOM     19  C   UNL     1       5.664   6.981  16.980  0.00  0.00    +0.000 C 
ATOM     20  C   UNL     1       4.846   5.687  16.937  0.00  0.00    +0.000 C 
ATOM     21  N   UNL     1       4.927   4.885  18.168  0.00  0.00    +0.000 NA
ATOM     22  C   UNL     1       6.341   4.566  18.442  0.00  0.00    +0.000 C 
ATOM     23  C   UNL     1       7.229   5.805  18.600  0.00  0.00    +0.000 C 
ENDBRANCH  16  21
ENDBRANCH  14  16
ENDBRANCH  13  14
ENDBRANCH   1  13
TORSDOF 5
ENDMDL
MODEL 4
REMARK VINA RESULT:      -6.8      1.506      2.691
REMARK  Name = 
REMARK  7 active torsions:
REMARK  status: ('A' for Active; 'I' for Inactive)
REMARK    1  A    between atoms: C_1  and  C_2
REMARK    2  A    between atoms: N_5  and  C_6
REMARK    3  A    between atoms: C_6  and  C_7
REMARK    4  A    between atoms: C_7  and  C_8
REMARK    5  A    between atoms: C_7  and  O_9
REMARK    6  A    between atoms: O_9  and  C_10
REMARK    7  A    between atoms: C_10  and  C_12
REMARK                            x       y       z     vdW  Elec       q    Type
REMARK                         _______ _______ _______ _____ _____    ______ ____
ROOT
ATOM      1  C   UNL     1       2.493   5.638  20.225  0.00  0.00    +0.000 C 
ATOM      2  O   UNL     1       1.810   4.947  20.966  0.00  0.00    +0.000 OA
ENDROOT
BRANCH   1   3
ATOM      3  C   UNL     1       2.095   7.002  19.787  0.00  0.00    +0.000 A 
ATOM      4  C   UNL     1       2.323   7.356  18.447  0.00  0.00    +0.000 A 
ATOM      5  C   UNL     1       1.998   8.634  17.989  0.00  0.00    +0.000 A 
ATOM      6  C   UNL     1       1.464   9.569  18.873  0.00  0.00    +0.000 A 
ATOM      7  C   UNL     1       1.205   9.212  20.201  0.00  0.00    +0.000 A 
ATOM      8  C   UNL     1       1.530   7.937  20.663  0.00  0.00    +0.000 A 
ATOM      9  O   UNL     1       0.660  10.075  21.118  0.00  0.00    +0.000 OA
ATOM     10  C   UNL     1       0.115  11.241  20.489  0.00  0.00    +0.000 C 
ATOM     11  C   UNL     1       1.060  11.775  19.426  0.00  0.00    +0.000 C 
ATOM     12  O   UNL     1       1.213  10.819  18.370  0.00  0.00    +0.000 OA
ENDBRANCH   1   3
BRANCH   1  13
ATOM     13  O   UNL     1       3.683   5.284  19.681  0.00  0.00    +0.000 OA
BRANCH  13  14
ATOM     14  C   UNL     1       3.679   4.062  18.901  0.00  0.00    +0.000 C 
ATOM     15  C   UNL     1       4.451   3.025  19.708  0.00  0.00    +0.000 C 
BRANCH  14  16
ATOM     16  C   UNL     1       4.329   4.350  17.526  0.00  0.00    +0.000 C 
BRANCH  16  21
ATOM     17  C   UNL     1       6.643   4.216  13.474  0.00  0.00    +0.000 C 
ATOM     18  C   UNL     1       6.656   4.988  14.793  0.00  0.00    +0.000 C 
ATOM     19  C   UNL     1       6.975   4.045  15.964  0.00  0.00    +0.000 C 
ATOM     20  C   UNL     1       6.761   4.715  17.324  0.00  0.00    +0.000 C 
ATOM     21  N   UNL     1       5.435   5.330  17.488  0.00  0.00    +0.000 NA
ATOM     22  C   UNL     1       5.227   6.318  16.413  0.00  0.00    +0.000 C 
ATOM     23  C   UNL     1       5.325   5.722  15.005  0.00  0.00    +0.000 C 
ENDBRANCH  16  21
ENDBRANCH  14  16
ENDBRANCH  13  14
ENDBRANCH   1  13
TORSDOF 5
ENDMDL
MODEL 5
REMARK VINA RESULT:      -6.8      1.957      3.512
REMARK  Name = 
REMARK  7 active torsions:
REMARK  status: ('A' for Active; 'I' for Inactive)
REMARK    1  A    between atoms: C_1  and  C_2
REMARK    2  A    between atoms: N_5  and  C_6
REMARK    3  A    between atoms: C_6  and  C_7
REMARK    4  A    between atoms: C_7  and  C_8
REMARK    5  A    between atoms: C_7  and  O_9
REMARK    6  A    between atoms: O_9  and  C_10
REMARK    7  A    between atoms: C_10  and  C_12
REMARK                            x       y       z     vdW  Elec       q    Type
REMARK                         _______ _______ _______ _____ _____    ______ ____
ROOT
ATOM      1  C   UNL     1       2.436   8.080  18.193  0.00  0.00    +0.000 C 
ATOM      2  O   UNL     1       2.763   8.463  17.080  0.00  0.00    +0.000 OA
ENDROOT
BRANCH   1   3
ATOM      3  C   UNL     1       1.494   8.827  19.068  0.00  0.00    +0.000 A 
ATOM      4  C   UNL     1       0.665   9.792  18.473  0.00  0.00    +0.000 A 
ATOM      5  C   UNL     1      -0.215  10.545  19.252  0.00  0.00    +0.000 A 
ATOM      6  C   UNL     1      -0.254  10.352  20.631  0.00  0.00    +0.000 A 
ATOM      7  C   UNL     1       0.546   9.369  21.226  0.00  0.00    +0.000 A 
ATOM      8  C   UNL     1       1.428   8.616  20.451  0.00  0.00    +0.000 A 
ATOM      9  O   UNL     1       0.540   9.111  22.574  0.00  0.00    +0.000 OA
ATOM     10  C   UNL     1      -0.576   9.728  23.227  0.00  0.00    +0.000 C 
ATOM     11  C   UNL     1      -0.772  11.151  22.735  0.00  0.00    +0.000 C 
ATOM     12  O   UNL     1      -1.106  11.157  21.342  0.00  0.00    +0.000 OA
ENDBRANCH   1   3
BRANCH   1  13
ATOM     13  O   UNL     1       2.874   6.953  18.806  0.00  0.00    +0.000 OA
BRANCH  13  14
ATOM     14  C   UNL     1       3.053   5.799  17.948  0.00  0.00    +0.000 C 
ATOM     15  C   UNL     1       1.927   4.827  18.281  0.00  0.00    +0.000 C 
BRANCH  14  16
ATOM     16  C   UNL     1       4.455   5.197  18.210  0.00  0.00    +0.000 C 
BRANCH  16  21
ATOM     17  C   UNL     1       6.420   3.949  14.165  0.00  0.00    +0.000 C 
ATOM     18  C   UNL     1       6.598   4.990  15.269  0.00  0.00    +0.000 C 
ATOM     19  C   UNL     1       6.936   4.306  16.603  0.00  0.00    +0.000 C 
ATOM     20  C   UNL     1       6.884   5.278  17.785  0.00  0.00    +0.000 C 
ATOM     21  N   UNL     1       5.626   6.036  17.883  0.00  0.00    +0.000 NA
ATOM     22  C   UNL     1       5.411   6.776  16.625  0.00  0.00    +0.000 C 
ATOM     23  C   UNL     1       5.349   5.874  15.387  0.00  0.00    +0.000 C 
ENDBRANCH  16  21
ENDBRANCH  14  16
ENDBRANCH  13  14
ENDBRANCH   1  13
TORSDOF 5
ENDMDL
MODEL 6
REMARK VINA RESULT:      -6.7      2.128      4.047
REMARK  Name = 
REMARK  7 active torsions:
REMARK  status: ('A' for Active; 'I' for Inactive)
REMARK    1  A    between atoms: C_1  and  C_2
REMARK    2  A    between atoms: N_5  and  C_6
REMARK    3  A    between atoms: C_6  and  C_7
REMARK    4  A    between atoms: C_7  and  C_8
REMARK    5  A    between atoms: C_7  and  O_9
REMARK    6  A    between atoms: O_9  and  C_10
REMARK    7  A    between atoms: C_10  and  C_12
REMARK                            x       y       z     vdW  Elec       q    Type
REMARK                         _______ _______ _______ _____ _____    ______ ____
ROOT
ATOM      1  C   UNL     1       4.438   6.249  17.180  0.00  0.00    +0.000 C 
ATOM      2  O   UNL     1       4.762   6.612  16.059  0.00  0.00    +0.000 OA
ENDROOT
BRANCH   1   3
ATOM      3  C   UNL     1       3.480   6.999  18.034  0.00  0.00    +0.000 A 
ATOM      4  C   UNL     1       3.089   6.419  19.253  0.00  0.00    +0.000 A 
ATOM      5  C   UNL     1       2.169   7.064  20.080  0.00  0.00    +0.000 A 
ATOM      6  C   UNL     1       1.618   8.280  19.682  0.00  0.00    +0.000 A 
ATOM      7  C   UNL     1       2.027   8.878  18.485  0.00  0.00    +0.000 A 
ATOM      8  C   UNL     1       2.945   8.236  17.655  0.00  0.00    +0.000 A 
ATOM      9  O   UNL     1       1.543  10.085  18.045  0.00  0.00    +0.000 OA
ATOM     10  C   UNL     1       0.835  10.780  19.078  0.00  0.00    +0.000 C 
ATOM     11  C   UNL     1      -0.082   9.836  19.836  0.00  0.00    +0.000 C 
ATOM     12  O   UNL     1       0.685   8.837  20.518  0.00  0.00    +0.000 OA
ENDBRANCH   1   3
BRANCH   1  13
ATOM     13  O   UNL     1       4.894   5.145  17.820  0.00  0.00    +0.000 OA
BRANCH  13  14
ATOM     14  C   UNL     1       4.634   3.881  17.160  0.00  0.00    +0.000 C 
ATOM     15  C   UNL     1       5.167   4.013  15.737  0.00  0.00    +0.000 C 
BRANCH  14  16
ATOM     16  C   UNL     1       3.112   3.603  17.202  0.00  0.00    +0.000 C 
BRANCH  16  21
ATOM     17  C   UNL     1       2.218   3.677  21.782  0.00  0.00    +0.000 C 
ATOM     18  C   UNL     1       2.177   2.701  20.608  0.00  0.00    +0.000 C 
ATOM     19  C   UNL     1       3.589   2.485  20.040  0.00  0.00    +0.000 C 
ATOM     20  C   UNL     1       3.572   1.712  18.718  0.00  0.00    +0.000 C 
ATOM     21  N   UNL     1       2.675   2.283  17.701  0.00  0.00    +0.000 NA
ATOM     22  C   UNL     1       1.308   2.353  18.250  0.00  0.00    +0.000 C 
ATOM     23  C   UNL     1       1.203   3.191  19.528  0.00  0.00    +0.000 C 
ENDBRANCH  16  21
ENDBRANCH  14  16
ENDBRANCH  13  14
ENDBRANCH   1  13
TORSDOF 5
ENDMDL
MODEL 7
REMARK VINA RESULT:      -6.7      3.288      7.097
REMARK  Name = 
REMARK  7 active torsions:
REMARK  status: ('A' for Active; 'I' for Inactive)
REMARK    1  A    between atoms: C_1  and  C_2
REMARK    2  A    between atoms: N_5  and  C_6
REMARK    3  A    between atoms: C_6  and  C_7
REMARK    4  A    between atoms: C_7  and  C_8
REMARK    5  A    between atoms: C_7  and  O_9
REMARK    6  A    between atoms: O_9  and  C_10
REMARK    7  A    between atoms: C_10  and  C_12
REMARK                            x       y       z     vdW  Elec       q    Type
REMARK                         _______ _______ _______ _____ _____    ______ ____
ROOT
ATOM      1  C   UNL     1       6.048   5.203  18.045  0.00  0.00    +0.000 C 
ATOM      2  O   UNL     1       6.633   4.566  18.908  0.00  0.00    +0.000 OA
ENDROOT
BRANCH   1   3
ATOM      3  C   UNL     1       6.121   4.873  16.597  0.00  0.00    +0.000 A 
ATOM      4  C   UNL     1       5.217   3.924  16.091  0.00  0.00    +0.000 A 
ATOM      5  C   UNL     1       5.261   3.552  14.747  0.00  0.00    +0.000 A 
ATOM      6  C   UNL     1       6.223   4.111  13.908  0.00  0.00    +0.000 A 
ATOM      7  C   UNL     1       7.104   5.080  14.398  0.00  0.00    +0.000 A 
ATOM      8  C   UNL     1       7.065   5.453  15.742  0.00  0.00    +0.000 A 
ATOM      9  O   UNL     1       8.059   5.688  13.622  0.00  0.00    +0.000 OA
ATOM     10  C   UNL     1       7.839   5.448  12.226  0.00  0.00    +0.000 C 
ATOM     11  C   UNL     1       7.483   3.993  11.976  0.00  0.00    +0.000 C 
ATOM     12  O   UNL     1       6.241   3.667  12.611  0.00  0.00    +0.000 OA
ENDBRANCH   1   3
BRANCH   1  13
ATOM     13  O   UNL     1       5.273   6.296  18.252  0.00  0.00    +0.000 OA
BRANCH  13  14
ATOM     14  C   UNL     1       3.902   6.191  17.792  0.00  0.00    +0.000 C 
ATOM     15  C   UNL     1       3.344   7.609  17.753  0.00  0.00    +0.000 C 
BRANCH  14  16
ATOM     16  C   UNL     1       3.122   5.271  18.762  0.00  0.00    +0.000 C 
BRANCH  16  21
ATOM     17  C   UNL     1       1.344   2.597  22.150  0.00  0.00    +0.000 C 
ATOM     18  C   UNL     1       1.626   2.534  20.649  0.00  0.00    +0.000 C 
ATOM     19  C   UNL     1       3.135   2.642  20.382  0.00  0.00    +0.000 C 
ATOM     20  C   UNL     1       3.450   2.829  18.895  0.00  0.00    +0.000 C 
ATOM     21  N   UNL     1       2.721   3.940  18.262  0.00  0.00    +0.000 NA
ATOM     22  C   UNL     1       1.272   3.725  18.437  0.00  0.00    +0.000 C 
ATOM     23  C   UNL     1       0.841   3.622  19.904  0.00  0.00    +0.000 C 
ENDBRANCH  16  21
ENDBRANCH  14  16
ENDBRANCH  13  14
ENDBRANCH   1  13
TORSDOF 5
ENDMDL
MODEL 8
REMARK VINA RESULT:      -6.7      1.274      2.011
REMARK  Name = 
REMARK  7 active torsions:
REMARK  status: ('A' for Active; 'I' for Inactive)
REMARK    1  A    between atoms: C_1  and  C_2
REMARK    2  A    between atoms: N_5  and  C_6
REMARK    3  A    between atoms: C_6  and  C_7
REMARK    4  A    between atoms: C_7  and  C_8
REMARK    5  A    between atoms: C_7  and  O_9
REMARK    6  A    between atoms: O_9  and  C_10
REMARK    7  A    between atoms: C_10  and  C_12
REMARK                            x       y       z     vdW  Elec       q    Type
REMARK                         _______ _______ _______ _____ _____    ______ ____
ROOT
ATOM      1  C   UNL     1       3.198   6.073  18.111  0.00  0.00    +0.000 C 
ATOM      2  O   UNL     1       3.680   6.066  16.988  0.00  0.00    +0.000 OA
ENDROOT
BRANCH   1   3
ATOM      3  C   UNL     1       2.433   7.222  18.663  0.00  0.00    +0.000 A 
ATOM      4  C   UNL     1       2.066   8.253  17.783  0.00  0.00    +0.000 A 
ATOM      5  C   UNL     1       1.374   9.371  18.253  0.00  0.00    +0.000 A 
ATOM      6  C   UNL     1       1.067   9.473  19.608  0.00  0.00    +0.000 A 
ATOM      7  C   UNL     1       1.402   8.434  20.483  0.00  0.00    +0.000 A 
ATOM      8  C   UNL     1       2.095   7.316  20.018  0.00  0.00    +0.000 A 
ATOM      9  O   UNL     1       1.109   8.458  21.824  0.00  0.00    +0.000 OA
ATOM     10  C   UNL     1       0.172   9.494  22.143  0.00  0.00    +0.000 C 
ATOM     11  C   UNL     1       0.530  10.786  21.430  0.00  0.00    +0.000 C 
ATOM     12  O   UNL     1       0.430  10.617  20.011  0.00  0.00    +0.000 OA
ENDBRANCH   1   3
BRANCH   1  13
ATOM     13  O   UNL     1       3.289   5.072  19.021  0.00  0.00    +0.000 OA
BRANCH  13  14
ATOM     14  C   UNL     1       4.411   4.169  18.853  0.00  0.00    +0.000 C 
ATOM     15  C   UNL     1       4.128   2.953  19.727  0.00  0.00    +0.000 C 
BRANCH  14  16
ATOM     16  C   UNL     1       5.708   4.908  19.263  0.00  0.00    +0.000 C 
BRANCH  16  21
ATOM     17  C   UNL     1       7.784   8.777  17.679  0.00  0.00    +0.000 C 
ATOM     18  C   UNL     1       7.993   7.263  17.675  0.00  0.00    +0.000 C 
ATOM     19  C   UNL     1       6.850   6.566  16.921  0.00  0.00    +0.000 C 
ATOM     20  C   UNL     1       6.880   5.044  17.096  0.00  0.00    +0.000 C 
ATOM     21  N   UNL     1       6.935   4.603  18.499  0.00  0.00    +0.000 NA
ATOM     22  C   UNL     1       8.120   5.199  19.144  0.00  0.00    +0.000 C 
ATOM     23  C   UNL     1       8.133   6.731  19.108  0.00  0.00    +0.000 C 
ENDBRANCH  16  21
ENDBRANCH  14  16
ENDBRANCH  13  14
ENDBRANCH   1  13
TORSDOF 5
ENDMDL
MODEL 9
REMARK VINA RESULT:      -6.7      2.217      3.464
REMARK  Name = 
REMARK  7 active torsions:
REMARK  status: ('A' for Active; 'I' for Inactive)
REMARK    1  A    between atoms: C_1  and  C_2
REMARK    2  A    between atoms: N_5  and  C_6
REMARK    3  A    between atoms: C_6  and  C_7
REMARK    4  A    between atoms: C_7  and  C_8
REMARK    5  A    between atoms: C_7  and  O_9
REMARK    6  A    between atoms: O_9  and  C_10
REMARK    7  A    between atoms: C_10  and  C_12
REMARK                            x       y       z     vdW  Elec       q    Type
REMARK                         _______ _______ _______ _____ _____    ______ ____
ROOT
ATOM      1  C   UNL     1       1.775   8.494  18.832  0.00  0.00    +0.000 C 
ATOM      2  O   UNL     1       1.539   8.800  17.674  0.00  0.00    +0.000 OA
ENDROOT
BRANCH   1   3
ATOM      3  C   UNL     1       1.140   9.162  19.999  0.00  0.00    +0.000 A 
ATOM      4  C   UNL     1       0.994   8.422  21.184  0.00  0.00    +0.000 A 
ATOM      5  C   UNL     1       0.377   8.989  22.300  0.00  0.00    +0.000 A 
ATOM      6  C   UNL     1      -0.116  10.290  22.229  0.00  0.00    +0.000 A 
ATOM      7  C   UNL     1       0.055  11.043  21.062  0.00  0.00    +0.000 A 
ATOM      8  C   UNL     1       0.669  10.479  19.944  0.00  0.00    +0.000 A 
ATOM      9  O   UNL     1      -0.385  12.336  20.932  0.00  0.00    +0.000 OA
ATOM     10  C   UNL     1      -0.743  12.904  22.198  0.00  0.00    +0.000 C 
ATOM     11  C   UNL     1      -1.548  11.917  23.026  0.00  0.00    +0.000 C 
ATOM     12  O   UNL     1      -0.753  10.769  23.344  0.00  0.00    +0.000 OA
ENDBRANCH   1   3
BRANCH   1  13
ATOM     13  O   UNL     1       2.642   7.533  19.238  0.00  0.00    +0.000 OA
BRANCH  13  14
ATOM     14  C   UNL     1       2.604   6.293  18.489  0.00  0.00    +0.000 C 
ATOM     15  C   UNL     1       2.137   5.212  19.456  0.00  0.00    +0.000 C 
BRANCH  14  16
ATOM     16  C   UNL     1       4.015   6.014  17.919  0.00  0.00    +0.000 C 
BRANCH  16  21
ATOM     17  C   UNL     1       7.138   4.868  14.645  0.00  0.00    +0.000 C 
ATOM     18  C   UNL     1       6.525   4.286  15.918  0.00  0.00    +0.000 C 
ATOM     19  C   UNL     1       5.014   4.071  15.737  0.00  0.00    +0.000 C 
ATOM     20  C   UNL     1       4.314   3.722  17.054  0.00  0.00    +0.000 C 
ATOM     21  N   UNL     1       4.586   4.670  18.146  0.00  0.00    +0.000 NA
ATOM     22  C   UNL     1       6.043   4.746  18.366  0.00  0.00    +0.000 C 
ATOM     23  C   UNL     1       6.827   5.184  17.125  0.00  0.00    +0.000 C 
ENDBRANCH  16  21
ENDBRANCH  14  16
ENDBRANCH  13  14
ENDBRANCH   1  13
TORSDOF 5
ENDMDL
