MODEL 1
REMARK VINA RESULT:      -8.8      0.000      0.000
REMARK  Name = 
REMARK  4 active torsions:
REMARK  status: ('A' for Active; 'I' for Inactive)
REMARK    1  A    between atoms: C_1  and  C_2
REMARK    2  A    between atoms: N_4  and  C_5
REMARK    3  A    between atoms: C_14  and  C_15
REMARK    4  A    between atoms: C_20  and  C_21
REMARK                            x       y       z     vdW  Elec       q    Type
REMARK                         _______ _______ _______ _____ _____    ______ ____
ROOT
ATOM      1  C   UNL     1       7.949   5.562  19.207  0.00  0.00    +0.000 C 
ATOM      2  C   UNL     1       7.110   5.136  18.048  0.00  0.00    +0.000 C 
ATOM      3  N   UNL     1       7.561   5.043  16.825  0.00  0.00    +0.000 NA
ATOM      4  N   UNL     1       6.469   4.680  16.035  0.00  0.00    +0.000 N 
ATOM      5  C   UNL     1       5.263   4.555  16.741  0.00  0.00    +0.000 C 
ATOM      6  O   UNL     1       4.128   4.341  16.360  0.00  0.00    +0.000 OA
ATOM      7  C   UNL     1       5.691   4.763  18.147  0.00  0.00    +0.000 C 
ATOM      8  C   UNL     1       4.989   4.542  19.267  0.00  0.00    +0.000 C 
ENDROOT
BRANCH   8   9
ATOM      9  C   UNL     1       3.650   3.938  19.246  0.00  0.00    +0.000 A 
ATOM     10  C   UNL     1       3.526   2.546  19.139  0.00  0.00    +0.000 A 
ATOM     11  C   UNL     1       2.270   1.941  19.213  0.00  0.00    +0.000 A 
ATOM     12  C   UNL     1       1.130   2.719  19.392  0.00  0.00    +0.000 A 
ATOM     13  C   UNL     1       1.241   4.105  19.493  0.00  0.00    +0.000 A 
ATOM     14  C   UNL     1       2.495   4.732  19.416  0.00  0.00    +0.000 A 
ATOM     15  C   UNL     1       2.574   6.227  19.572  0.00  0.00    +0.000 C 
ENDBRANCH   8   9
BRANCH   4  16
ATOM     16  C   UNL     1       6.654   4.523  14.638  0.00  0.00    +0.000 A 
ATOM     17  C   UNL     1       5.918   3.586  13.903  0.00  0.00    +0.000 A 
ATOM     18  C   UNL     1       6.100   3.442  12.524  0.00  0.00    +0.000 A 
ATOM     19  C   UNL     1       7.042   4.226  11.864  0.00  0.00    +0.000 A 
ATOM     20  C   UNL     1       7.796   5.150  12.580  0.00  0.00    +0.000 A 
ATOM     21  C   UNL     1       7.600   5.301  13.957  0.00  0.00    +0.000 A 
ENDBRANCH   4  16
TORSDOF 2
ENDMDL
MODEL 2
REMARK VINA RESULT:      -8.8      0.032      1.050
REMARK  Name = 
REMARK  4 active torsions:
REMARK  status: ('A' for Active; 'I' for Inactive)
REMARK    1  A    between atoms: C_1  and  C_2
REMARK    2  A    between atoms: N_4  and  C_5
REMARK    3  A    between atoms: C_14  and  C_15
REMARK    4  A    between atoms: C_20  and  C_21
REMARK                            x       y       z     vdW  Elec       q    Type
REMARK                         _______ _______ _______ _____ _____    ______ ____
ROOT
ATOM      1  C   UNL     1       7.942   5.587  19.244  0.00  0.00    +0.000 C 
ATOM      2  C   UNL     1       7.110   5.156  18.081  0.00  0.00    +0.000 C 
ATOM      3  N   UNL     1       7.567   5.065  16.861  0.00  0.00    +0.000 NA
ATOM      4  N   UNL     1       6.480   4.696  16.066  0.00  0.00    +0.000 N 
ATOM      5  C   UNL     1       5.271   4.566  16.767  0.00  0.00    +0.000 C 
ATOM      6  O   UNL     1       4.140   4.347  16.380  0.00  0.00    +0.000 OA
ATOM      7  C   UNL     1       5.692   4.777  18.175  0.00  0.00    +0.000 C 
ATOM      8  C   UNL     1       4.986   4.554  19.291  0.00  0.00    +0.000 C 
ENDROOT
BRANCH   8   9
ATOM      9  C   UNL     1       3.649   3.945  19.265  0.00  0.00    +0.000 A 
ATOM     10  C   UNL     1       3.533   2.551  19.163  0.00  0.00    +0.000 A 
ATOM     11  C   UNL     1       2.279   1.941  19.232  0.00  0.00    +0.000 A 
ATOM     12  C   UNL     1       1.134   2.715  19.400  0.00  0.00    +0.000 A 
ATOM     13  C   UNL     1       1.238   4.101  19.496  0.00  0.00    +0.000 A 
ATOM     14  C   UNL     1       2.490   4.734  19.424  0.00  0.00    +0.000 A 
ATOM     15  C   UNL     1       2.561   6.229  19.574  0.00  0.00    +0.000 C 
ENDBRANCH   8   9
BRANCH   4  16
ATOM     16  C   UNL     1       6.672   4.539  14.670  0.00  0.00    +0.000 A 
ATOM     17  C   UNL     1       7.591   5.324  13.964  0.00  0.00    +0.000 A 
ATOM     18  C   UNL     1       7.781   5.159  12.589  0.00  0.00    +0.000 A 
ATOM     19  C   UNL     1       7.033   4.212  11.896  0.00  0.00    +0.000 A 
ATOM     20  C   UNL     1       6.101   3.434  12.575  0.00  0.00    +0.000 A 
ATOM     21  C   UNL     1       5.925   3.593  13.954  0.00  0.00    +0.000 A 
ENDBRANCH   4  16
TORSDOF 2
ENDMDL
MODEL 3
REMARK VINA RESULT:      -8.3      0.437      1.832
REMARK  Name = 
REMARK  4 active torsions:
REMARK  status: ('A' for Active; 'I' for Inactive)
REMARK    1  A    between atoms: C_1  and  C_2
REMARK    2  A    between atoms: N_4  and  C_5
REMARK    3  A    between atoms: C_14  and  C_15
REMARK    4  A    between atoms: C_20  and  C_21
REMARK                            x       y       z     vdW  Elec       q    Type
REMARK                         _______ _______ _______ _____ _____    ______ ____
ROOT
ATOM      1  C   UNL     1       7.842   5.794  19.184  0.00  0.00    +0.000 C 
ATOM      2  C   UNL     1       7.034   5.303  18.029  0.00  0.00    +0.000 C 
ATOM      3  N   UNL     1       7.507   5.183  16.817  0.00  0.00    +0.000 NA
ATOM      4  N   UNL     1       6.438   4.759  16.024  0.00  0.00    +0.000 N 
ATOM      5  C   UNL     1       5.226   4.620  16.717  0.00  0.00    +0.000 C 
ATOM      6  O   UNL     1       4.105   4.358  16.327  0.00  0.00    +0.000 OA
ATOM      7  C   UNL     1       5.627   4.888  18.121  0.00  0.00    +0.000 C 
ATOM      8  C   UNL     1       4.915   4.684  19.238  0.00  0.00    +0.000 C 
ENDROOT
BRANCH   8   9
ATOM      9  C   UNL     1       3.596   4.038  19.219  0.00  0.00    +0.000 A 
ATOM     10  C   UNL     1       2.468   4.790  18.861  0.00  0.00    +0.000 A 
ATOM     11  C   UNL     1       1.219   4.178  18.743  0.00  0.00    +0.000 A 
ATOM     12  C   UNL     1       1.085   2.813  18.982  0.00  0.00    +0.000 A 
ATOM     13  C   UNL     1       2.199   2.056  19.345  0.00  0.00    +0.000 A 
ATOM     14  C   UNL     1       3.463   2.656  19.473  0.00  0.00    +0.000 A 
ATOM     15  C   UNL     1       4.645   1.795  19.826  0.00  0.00    +0.000 C 
ENDBRANCH   8   9
BRANCH   4  16
ATOM     16  C   UNL     1       6.649   4.561  14.636  0.00  0.00    +0.000 A 
ATOM     17  C   UNL     1       7.591   5.312  13.924  0.00  0.00    +0.000 A 
ATOM     18  C   UNL     1       7.799   5.106  12.557  0.00  0.00    +0.000 A 
ATOM     19  C   UNL     1       7.046   4.153  11.877  0.00  0.00    +0.000 A 
ATOM     20  C   UNL     1       6.091   3.409  12.563  0.00  0.00    +0.000 A 
ATOM     21  C   UNL     1       5.897   3.608  13.934  0.00  0.00    +0.000 A 
ENDBRANCH   4  16
TORSDOF 2
ENDMDL
MODEL 4
REMARK VINA RESULT:      -8.3      0.434      1.500
REMARK  Name = 
REMARK  4 active torsions:
REMARK  status: ('A' for Active; 'I' for Inactive)
REMARK    1  A    between atoms: C_1  and  C_2
REMARK    2  A    between atoms: N_4  and  C_5
REMARK    3  A    between atoms: C_14  and  C_15
REMARK    4  A    between atoms: C_20  and  C_21
REMARK                            x       y       z     vdW  Elec       q    Type
REMARK                         _______ _______ _______ _____ _____    ______ ____
ROOT
ATOM      1  C   UNL     1       7.791   5.873  19.182  0.00  0.00    +0.000 C 
ATOM      2  C   UNL     1       6.987   5.358  18.033  0.00  0.00    +0.000 C 
ATOM      3  N   UNL     1       7.459   5.231  16.822  0.00  0.00    +0.000 NA
ATOM      4  N   UNL     1       6.394   4.785  16.035  0.00  0.00    +0.000 N 
ATOM      5  C   UNL     1       5.185   4.639  16.732  0.00  0.00    +0.000 C 
ATOM      6  O   UNL     1       4.067   4.358  16.347  0.00  0.00    +0.000 OA
ATOM      7  C   UNL     1       5.585   4.928  18.132  0.00  0.00    +0.000 C 
ATOM      8  C   UNL     1       4.877   4.727  19.252  0.00  0.00    +0.000 C 
ENDROOT
BRANCH   8   9
ATOM      9  C   UNL     1       3.566   4.064  19.243  0.00  0.00    +0.000 A 
ATOM     10  C   UNL     1       2.424   4.807  18.912  0.00  0.00    +0.000 A 
ATOM     11  C   UNL     1       1.181   4.181  18.802  0.00  0.00    +0.000 A 
ATOM     12  C   UNL     1       1.068   2.811  19.024  0.00  0.00    +0.000 A 
ATOM     13  C   UNL     1       2.196   2.064  19.360  0.00  0.00    +0.000 A 
ATOM     14  C   UNL     1       3.454   2.677  19.479  0.00  0.00    +0.000 A 
ATOM     15  C   UNL     1       4.652   1.826  19.803  0.00  0.00    +0.000 C 
ENDBRANCH   8   9
BRANCH   4  16
ATOM     16  C   UNL     1       6.605   4.574  14.649  0.00  0.00    +0.000 A 
ATOM     17  C   UNL     1       5.872   3.620  13.934  0.00  0.00    +0.000 A 
ATOM     18  C   UNL     1       6.080   3.423  12.565  0.00  0.00    +0.000 A 
ATOM     19  C   UNL     1       7.046   4.169  11.897  0.00  0.00    +0.000 A 
ATOM     20  C   UNL     1       7.799   5.108  12.594  0.00  0.00    +0.000 A 
ATOM     21  C   UNL     1       7.577   5.313  13.960  0.00  0.00    +0.000 A 
ENDBRANCH   4  16
TORSDOF 2
ENDMDL
MODEL 5
REMARK VINA RESULT:      -7.8      2.940      6.781
REMARK  Name = 
REMARK  4 active torsions:
REMARK  status: ('A' for Active; 'I' for Inactive)
REMARK    1  A    between atoms: C_1  and  C_2
REMARK    2  A    between atoms: N_4  and  C_5
REMARK    3  A    between atoms: C_14  and  C_15
REMARK    4  A    between atoms: C_20  and  C_21
REMARK                            x       y       z     vdW  Elec       q    Type
REMARK                         _______ _______ _______ _____ _____    ______ ____
ROOT
ATOM      1  C   UNL     1       2.348   3.491  21.217  0.00  0.00    +0.000 C 
ATOM      2  C   UNL     1       2.515   4.719  20.385  0.00  0.00    +0.000 C 
ATOM      3  N   UNL     1       1.921   5.853  20.644  0.00  0.00    +0.000 NA
ATOM      4  N   UNL     1       2.279   6.724  19.612  0.00  0.00    +0.000 N 
ATOM      5  C   UNL     1       3.105   6.149  18.634  0.00  0.00    +0.000 C 
ATOM      6  O   UNL     1       3.524   6.587  17.580  0.00  0.00    +0.000 OA
ATOM      7  C   UNL     1       3.369   4.799  19.190  0.00  0.00    +0.000 C 
ATOM      8  C   UNL     1       4.271   3.897  18.779  0.00  0.00    +0.000 C 
ENDROOT
BRANCH   8   9
ATOM      9  C   UNL     1       5.240   4.187  17.713  0.00  0.00    +0.000 A 
ATOM     10  C   UNL     1       4.945   3.810  16.396  0.00  0.00    +0.000 A 
ATOM     11  C   UNL     1       5.803   4.159  15.352  0.00  0.00    +0.000 A 
ATOM     12  C   UNL     1       6.963   4.884  15.614  0.00  0.00    +0.000 A 
ATOM     13  C   UNL     1       7.269   5.258  16.922  0.00  0.00    +0.000 A 
ATOM     14  C   UNL     1       6.420   4.913  17.986  0.00  0.00    +0.000 A 
ATOM     15  C   UNL     1       6.767   5.373  19.375  0.00  0.00    +0.000 C 
ENDBRANCH   8   9
BRANCH   4  16
ATOM     16  C   UNL     1       1.759   8.043  19.616  0.00  0.00    +0.000 A 
ATOM     17  C   UNL     1       1.776   8.839  18.464  0.00  0.00    +0.000 A 
ATOM     18  C   UNL     1       1.255  10.136  18.473  0.00  0.00    +0.000 A 
ATOM     19  C   UNL     1       0.726  10.663  19.647  0.00  0.00    +0.000 A 
ATOM     20  C   UNL     1       0.717   9.894  20.807  0.00  0.00    +0.000 A 
ATOM     21  C   UNL     1       1.226   8.591  20.790  0.00  0.00    +0.000 A 
ENDBRANCH   4  16
TORSDOF 2
ENDMDL
MODEL 6
REMARK VINA RESULT:      -7.8      2.951      6.751
REMARK  Name = 
REMARK  4 active torsions:
REMARK  status: ('A' for Active; 'I' for Inactive)
REMARK    1  A    between atoms: C_1  and  C_2
REMARK    2  A    between atoms: N_4  and  C_5
REMARK    3  A    between atoms: C_14  and  C_15
REMARK    4  A    between atoms: C_20  and  C_21
REMARK                            x       y       z     vdW  Elec       q    Type
REMARK                         _______ _______ _______ _____ _____    ______ ____
ROOT
ATOM      1  C   UNL     1       2.305   3.521  21.232  0.00  0.00    +0.000 C 
ATOM      2  C   UNL     1       2.487   4.744  20.394  0.00  0.00    +0.000 C 
ATOM      3  N   UNL     1       1.901   5.884  20.646  0.00  0.00    +0.000 NA
ATOM      4  N   UNL     1       2.272   6.747  19.611  0.00  0.00    +0.000 N 
ATOM      5  C   UNL     1       3.097   6.160  18.640  0.00  0.00    +0.000 C 
ATOM      6  O   UNL     1       3.524   6.589  17.585  0.00  0.00    +0.000 OA
ATOM      7  C   UNL     1       3.347   4.810  19.204  0.00  0.00    +0.000 C 
ATOM      8  C   UNL     1       4.242   3.898  18.801  0.00  0.00    +0.000 C 
ENDROOT
BRANCH   8   9
ATOM      9  C   UNL     1       5.218   4.175  17.738  0.00  0.00    +0.000 A 
ATOM     10  C   UNL     1       4.933   3.777  16.423  0.00  0.00    +0.000 A 
ATOM     11  C   UNL     1       5.799   4.112  15.381  0.00  0.00    +0.000 A 
ATOM     12  C   UNL     1       6.955   4.843  15.641  0.00  0.00    +0.000 A 
ATOM     13  C   UNL     1       7.251   5.238  16.945  0.00  0.00    +0.000 A 
ATOM     14  C   UNL     1       6.394   4.907  18.007  0.00  0.00    +0.000 A 
ATOM     15  C   UNL     1       6.731   5.389  19.393  0.00  0.00    +0.000 C 
ENDBRANCH   8   9
BRANCH   4  16
ATOM     16  C   UNL     1       1.764   8.070  19.606  0.00  0.00    +0.000 A 
ATOM     17  C   UNL     1       1.207   8.646  20.754  0.00  0.00    +0.000 A 
ATOM     18  C   UNL     1       0.715   9.954  20.743  0.00  0.00    +0.000 A 
ATOM     19  C   UNL     1       0.756  10.700  19.569  0.00  0.00    +0.000 A 
ATOM     20  C   UNL     1       1.288  10.140  18.413  0.00  0.00    +0.000 A 
ATOM     21  C   UNL     1       1.793   8.835  18.432  0.00  0.00    +0.000 A 
ENDBRANCH   4  16
TORSDOF 2
ENDMDL
MODEL 7
REMARK VINA RESULT:      -7.5      3.177      7.058
REMARK  Name = 
REMARK  4 active torsions:
REMARK  status: ('A' for Active; 'I' for Inactive)
REMARK    1  A    between atoms: C_1  and  C_2
REMARK    2  A    between atoms: N_4  and  C_5
REMARK    3  A    between atoms: C_14  and  C_15
REMARK    4  A    between atoms: C_20  and  C_21
REMARK                            x       y       z     vdW  Elec       q    Type
REMARK                         _______ _______ _______ _____ _____    ______ ____
ROOT
ATOM      1  C   UNL     1       1.870   3.693  21.480  0.00  0.00    +0.000 C 
ATOM      2  C   UNL     1       2.166   4.944  20.721  0.00  0.00    +0.000 C 
ATOM      3  N   UNL     1       1.540   6.074  20.919  0.00  0.00    +0.000 NA
ATOM      4  N   UNL     1       2.056   6.973  19.983  0.00  0.00    +0.000 N 
ATOM      5  C   UNL     1       3.023   6.423  19.129  0.00  0.00    +0.000 C 
ATOM      6  O   UNL     1       3.602   6.890  18.167  0.00  0.00    +0.000 OA
ATOM      7  C   UNL     1       3.196   5.055  19.678  0.00  0.00    +0.000 C 
ATOM      8  C   UNL     1       4.149   4.160  19.385  0.00  0.00    +0.000 C 
ENDROOT
BRANCH   8   9
ATOM      9  C   UNL     1       5.273   4.477  18.492  0.00  0.00    +0.000 A 
ATOM     10  C   UNL     1       6.436   5.049  19.028  0.00  0.00    +0.000 A 
ATOM     11  C   UNL     1       7.552   5.270  18.219  0.00  0.00    +0.000 A 
ATOM     12  C   UNL     1       7.516   4.925  16.870  0.00  0.00    +0.000 A 
ATOM     13  C   UNL     1       6.362   4.362  16.326  0.00  0.00    +0.000 A 
ATOM     14  C   UNL     1       5.228   4.136  17.123  0.00  0.00    +0.000 A 
ATOM     15  C   UNL     1       4.020   3.488  16.504  0.00  0.00    +0.000 C 
ENDBRANCH   8   9
BRANCH   4  16
ATOM     16  C   UNL     1       1.543   8.294  19.945  0.00  0.00    +0.000 A 
ATOM     17  C   UNL     1       1.498   9.028  18.754  0.00  0.00    +0.000 A 
ATOM     18  C   UNL     1       0.984  10.328  18.723  0.00  0.00    +0.000 A 
ATOM     19  C   UNL     1       0.526  10.920  19.896  0.00  0.00    +0.000 A 
ATOM     20  C   UNL     1       0.580  10.214  21.093  0.00  0.00    +0.000 A 
ATOM     21  C   UNL     1       1.080   8.908  21.117  0.00  0.00    +0.000 A 
ENDBRANCH   4  16
TORSDOF 2
ENDMDL
MODEL 8
REMARK VINA RESULT:      -7.5      3.168      7.101
REMARK  Name = 
REMARK  4 active torsions:
REMARK  status: ('A' for Active; 'I' for Inactive)
REMARK    1  A    between atoms: C_1  and  C_2
REMARK    2  A    between atoms: N_4  and  C_5
REMARK    3  A    between atoms: C_14  and  C_15
REMARK    4  A    between atoms: C_20  and  C_21
REMARK                            x       y       z     vdW  Elec       q    Type
REMARK                         _______ _______ _______ _____ _____    ______ ____
ROOT
ATOM      1  C   UNL     1       1.738   3.544  21.305  0.00  0.00    +0.000 C 
ATOM      2  C   UNL     1       2.078   4.839  20.644  0.00  0.00    +0.000 C 
ATOM      3  N   UNL     1       1.457   5.961  20.891  0.00  0.00    +0.000 NA
ATOM      4  N   UNL     1       2.020   6.913  20.038  0.00  0.00    +0.000 N 
ATOM      5  C   UNL     1       3.016   6.407  19.189  0.00  0.00    +0.000 C 
ATOM      6  O   UNL     1       3.639   6.929  18.284  0.00  0.00    +0.000 OA
ATOM      7  C   UNL     1       3.152   5.004  19.652  0.00  0.00    +0.000 C 
ATOM      8  C   UNL     1       4.107   4.118  19.340  0.00  0.00    +0.000 C 
ENDROOT
BRANCH   8   9
ATOM      9  C   UNL     1       5.270   4.477  18.516  0.00  0.00    +0.000 A 
ATOM     10  C   UNL     1       6.401   5.033  19.131  0.00  0.00    +0.000 A 
ATOM     11  C   UNL     1       7.553   5.294  18.387  0.00  0.00    +0.000 A 
ATOM     12  C   UNL     1       7.585   5.005  17.025  0.00  0.00    +0.000 A 
ATOM     13  C   UNL     1       6.463   4.459  16.402  0.00  0.00    +0.000 A 
ATOM     14  C   UNL     1       5.294   4.193  17.134  0.00  0.00    +0.000 A 
ATOM     15  C   UNL     1       4.121   3.565  16.431  0.00  0.00    +0.000 C 
ENDBRANCH   8   9
BRANCH   4  16
ATOM     16  C   UNL     1       1.524   8.240  20.067  0.00  0.00    +0.000 A 
ATOM     17  C   UNL     1       1.053   8.820  21.251  0.00  0.00    +0.000 A 
ATOM     18  C   UNL     1       0.572  10.132  21.274  0.00  0.00    +0.000 A 
ATOM     19  C   UNL     1       0.538  10.878  20.100  0.00  0.00    +0.000 A 
ATOM     20  C   UNL     1       0.985  10.314  18.910  0.00  0.00    +0.000 A 
ATOM     21  C   UNL     1       1.479   9.006  18.894  0.00  0.00    +0.000 A 
ENDBRANCH   4  16
TORSDOF 2
ENDMDL
MODEL 9
REMARK VINA RESULT:      -7.2      2.433      6.850
REMARK  Name = 
REMARK  4 active torsions:
REMARK  status: ('A' for Active; 'I' for Inactive)
REMARK    1  A    between atoms: C_1  and  C_2
REMARK    2  A    between atoms: N_4  and  C_5
REMARK    3  A    between atoms: C_14  and  C_15
REMARK    4  A    between atoms: C_20  and  C_21
REMARK                            x       y       z     vdW  Elec       q    Type
REMARK                         _______ _______ _______ _____ _____    ______ ____
ROOT
ATOM      1  C   UNL     1       2.457   8.816  17.834  0.00  0.00    +0.000 C 
ATOM      2  C   UNL     1       2.761   7.390  18.158  0.00  0.00    +0.000 C 
ATOM      3  N   UNL     1       2.070   6.681  19.010  0.00  0.00    +0.000 NA
ATOM      4  N   UNL     1       2.700   5.436  19.079  0.00  0.00    +0.000 N 
ATOM      5  C   UNL     1       3.847   5.326  18.278  0.00  0.00    +0.000 C 
ATOM      6  O   UNL     1       4.665   4.433  18.167  0.00  0.00    +0.000 OA
ATOM      7  C   UNL     1       3.858   6.621  17.552  0.00  0.00    +0.000 C 
ATOM      8  C   UNL     1       4.608   6.974  16.500  0.00  0.00    +0.000 C 
ENDROOT
BRANCH   8   9
ATOM      9  C   UNL     1       5.510   6.027  15.829  0.00  0.00    +0.000 A 
ATOM     10  C   UNL     1       5.025   5.255  14.763  0.00  0.00    +0.000 A 
ATOM     11  C   UNL     1       5.884   4.420  14.048  0.00  0.00    +0.000 A 
ATOM     12  C   UNL     1       7.232   4.347  14.390  0.00  0.00    +0.000 A 
ATOM     13  C   UNL     1       7.724   5.105  15.452  0.00  0.00    +0.000 A 
ATOM     14  C   UNL     1       6.873   5.948  16.186  0.00  0.00    +0.000 A 
ATOM     15  C   UNL     1       7.453   6.780  17.297  0.00  0.00    +0.000 C 
ENDBRANCH   8   9
BRANCH   4  16
ATOM     16  C   UNL     1       2.178   4.449  19.953  0.00  0.00    +0.000 A 
ATOM     17  C   UNL     1       2.721   4.236  21.225  0.00  0.00    +0.000 A 
ATOM     18  C   UNL     1       2.196   3.267  22.084  0.00  0.00    +0.000 A 
ATOM     19  C   UNL     1       1.127   2.479  21.669  0.00  0.00    +0.000 A 
ATOM     20  C   UNL     1       0.585   2.662  20.401  0.00  0.00    +0.000 A 
ATOM     21  C   UNL     1       1.104   3.644  19.550  0.00  0.00    +0.000 A 
ENDBRANCH   4  16
TORSDOF 2
ENDMDL
