MODEL 1
REMARK VINA RESULT:      -6.6      0.000      0.000
REMARK  Name = 
REMARK  10 active torsions:
REMARK  status: ('A' for Active; 'I' for Inactive)
REMARK    1  A    between atoms: C_1  and  O_2
REMARK    2  A    between atoms: O_2  and  C_3
REMARK    3  A    between atoms: C_9  and  C_10
REMARK    4  A    between atoms: C_11  and  C_12
REMARK    5  A    between atoms: C_12  and  O_14
REMARK    6  A    between atoms: O_14  and  C_15
REMARK    7  A    between atoms: C_22  and  O_23
REMARK    8  A    between atoms: O_23  and  C_24
REMARK    9  A    between atoms: C_25  and  O_26
REMARK   10  A    between atoms: N_31  and  C_32
REMARK                            x       y       z     vdW  Elec       q    Type
REMARK                         _______ _______ _______ _____ _____    ______ ____
ROOT
ATOM      1  C   UNL     1       1.622  15.130  20.084  0.00  0.00    +0.000 C 
ATOM      2  C   UNL     1       2.022  14.044  20.748  0.00  0.00    +0.000 C 
ATOM      3  C   UNL     1       1.166  12.784  20.880  0.00  0.00    +0.000 C 
ATOM      4  C   UNL     1       0.020  12.513  21.854  0.00  0.00    +0.000 C 
ATOM      5  C   UNL     1      -1.329  13.098  21.316  0.00  0.00    +0.000 C 
ATOM      6  C   UNL     1      -1.814  12.395  20.058  0.00  0.00    +0.000 A 
ATOM      7  C   UNL     1      -3.174  12.326  19.687  0.00  0.00    +0.000 A 
ATOM      8  C   UNL     1      -3.588  11.461  18.640  0.00  0.00    +0.000 A 
ATOM      9  C   UNL     1      -2.641  10.678  17.999  0.00  0.00    +0.000 A 
ATOM     10  C   UNL     1      -1.299  10.866  18.260  0.00  0.00    +0.000 A 
ATOM     11  C   UNL     1      -0.847  11.744  19.277  0.00  0.00    +0.000 A 
ATOM     12  C   UNL     1       0.654  12.142  19.519  0.00  0.00    +0.000 C 
ATOM     13  C   UNL     1       1.378  10.776  19.742  0.00  0.00    +0.000 C 
ATOM     14  C   UNL     1       0.871  10.174  21.159  0.00  0.00    +0.000 C 
ATOM     15  N   UNL     1      -0.029  11.034  21.964  0.00  0.00    +0.000 NA
ATOM     16  C   UNL     1      -1.019  10.433  22.823  0.00  0.00    +0.000 C 
ATOM     17  C   UNL     1       0.796  13.311  18.483  0.00  0.00    +0.000 C 
ATOM     18  C   UNL     1       0.530  14.698  19.181  0.00  0.00    +0.000 C 
ATOM     19  O   UNL     1      -0.499  15.361  19.098  0.00  0.00    +0.000 OA
ENDROOT
BRANCH   1  21
ATOM     20  C   UNL     1       2.610  16.399  18.393  0.00  0.00    +0.000 C 
ATOM     21  O   UNL     1       2.431  16.206  19.799  0.00  0.00    +0.000 OA
ENDBRANCH   1  21
BRANCH   7  22
ATOM     22  C   UNL     1      -4.177  13.191  20.326  0.00  0.00    +0.000 C 
ATOM     23  C   UNL     1      -5.465  12.815  20.390  0.00  0.00    +0.000 C 
BRANCH  23  24
ATOM     24  C   UNL     1      -6.519  13.695  20.966  0.00  0.00    +0.000 C 
ATOM     25  O   UNL     1      -7.702  13.653  20.694  0.00  0.00    +0.000 OA
BRANCH  24  26
ATOM     26  O   UNL     1      -5.894  14.485  21.869  0.00  0.00    +0.000 OA
BRANCH  26  27
ATOM     27  C   UNL     1      -6.333  14.470  23.247  0.00  0.00    +0.000 C 
ATOM     28  C   UNL     1      -5.883  13.173  23.929  0.00  0.00    +0.000 C 
ATOM     29  C   UNL     1      -4.359  13.032  23.935  0.00  0.00    +0.000 C 
ATOM     30  C   UNL     1      -3.679  14.237  24.582  0.00  0.00    +0.000 C 
ATOM     31  C   UNL     1      -4.140  15.553  23.961  0.00  0.00    +0.000 C 
ATOM     32  C   UNL     1      -5.669  15.668  23.948  0.00  0.00    +0.000 C 
ENDBRANCH  26  27
ENDBRANCH  24  26
ENDBRANCH  23  24
ENDBRANCH   7  22
BRANCH   9  33
ATOM     33  O   UNL     1      -2.963   9.750  17.041  0.00  0.00    +0.000 OA
ATOM     34  C   UNL     1      -3.234  10.186  15.710  0.00  0.00    +0.000 C 
ENDBRANCH   9  33
BRANCH  10  35
ATOM     35  O   UNL     1      -0.403  10.125  17.516  0.00  0.00    +0.000 OA
ATOM     36  H   UNL     1      -0.021  10.750  16.862  0.00  0.00    +0.000 HD
ENDBRANCH  10  35
TORSDOF 7
ENDMDL
MODEL 2
REMARK VINA RESULT:      -6.5      3.892      8.096
REMARK  Name = 
REMARK  10 active torsions:
REMARK  status: ('A' for Active; 'I' for Inactive)
REMARK    1  A    between atoms: C_1  and  O_2
REMARK    2  A    between atoms: O_2  and  C_3
REMARK    3  A    between atoms: C_9  and  C_10
REMARK    4  A    between atoms: C_11  and  C_12
REMARK    5  A    between atoms: C_12  and  O_14
REMARK    6  A    between atoms: O_14  and  C_15
REMARK    7  A    between atoms: C_22  and  O_23
REMARK    8  A    between atoms: O_23  and  C_24
REMARK    9  A    between atoms: C_25  and  O_26
REMARK   10  A    between atoms: N_31  and  C_32
REMARK                            x       y       z     vdW  Elec       q    Type
REMARK                         _______ _______ _______ _____ _____    ______ ____
ROOT
ATOM      1  C   UNL     1       1.535  15.210  18.939  0.00  0.00    +0.000 C 
ATOM      2  C   UNL     1       0.205  15.202  18.834  0.00  0.00    +0.000 C 
ATOM      3  C   UNL     1      -0.650  13.978  19.157  0.00  0.00    +0.000 C 
ATOM      4  C   UNL     1      -0.937  12.761  18.278  0.00  0.00    +0.000 C 
ATOM      5  C   UNL     1       0.213  11.703  18.385  0.00  0.00    +0.000 C 
ATOM      6  C   UNL     1       0.307  11.076  19.767  0.00  0.00    +0.000 A 
ATOM      7  C   UNL     1       0.834   9.787  19.997  0.00  0.00    +0.000 A 
ATOM      8  C   UNL     1       0.679   9.164  21.263  0.00  0.00    +0.000 A 
ATOM      9  C   UNL     1      -0.008   9.834  22.263  0.00  0.00    +0.000 A 
ATOM     10  C   UNL     1      -0.382  11.150  22.081  0.00  0.00    +0.000 A 
ATOM     11  C   UNL     1      -0.215  11.814  20.840  0.00  0.00    +0.000 A 
ATOM     12  C   UNL     1      -0.452  13.350  20.604  0.00  0.00    +0.000 C 
ATOM     13  C   UNL     1      -1.932  13.577  21.046  0.00  0.00    +0.000 C 
ATOM     14  C   UNL     1      -2.890  12.835  19.969  0.00  0.00    +0.000 C 
ATOM     15  N   UNL     1      -2.222  12.227  18.794  0.00  0.00    +0.000 NA
ATOM     16  C   UNL     1      -2.788  11.056  18.172  0.00  0.00    +0.000 C 
ATOM     17  C   UNL     1       0.937  13.914  21.064  0.00  0.00    +0.000 C 
ATOM     18  C   UNL     1       1.899  14.081  19.827  0.00  0.00    +0.000 C 
ATOM     19  O   UNL     1       2.819  13.329  19.523  0.00  0.00    +0.000 OA
ENDROOT
BRANCH   1  21
ATOM     20  C   UNL     1       3.097  16.346  17.628  0.00  0.00    +0.000 C 
ATOM     21  O   UNL     1       2.316  16.339  18.826  0.00  0.00    +0.000 OA
ENDBRANCH   1  21
BRANCH   7  22
ATOM     22  C   UNL     1       1.609   9.091  18.958  0.00  0.00    +0.000 C 
ATOM     23  C   UNL     1       2.007   7.821  19.136  0.00  0.00    +0.000 C 
BRANCH  23  24
ATOM     24  C   UNL     1       2.851   7.108  18.137  0.00  0.00    +0.000 C 
ATOM     25  O   UNL     1       3.763   7.599  17.504  0.00  0.00    +0.000 OA
BRANCH  24  26
ATOM     26  O   UNL     1       2.425   5.824  18.136  0.00  0.00    +0.000 OA
BRANCH  26  27
ATOM     27  C   UNL     1       2.830   4.943  19.209  0.00  0.00    +0.000 C 
ATOM     28  C   UNL     1       1.674   4.011  19.592  0.00  0.00    +0.000 C 
ATOM     29  C   UNL     1       1.241   3.129  18.417  0.00  0.00    +0.000 C 
ATOM     30  C   UNL     1       2.409   2.324  17.850  0.00  0.00    +0.000 C 
ATOM     31  C   UNL     1       3.599   3.214  17.503  0.00  0.00    +0.000 C 
ATOM     32  C   UNL     1       4.007   4.102  18.685  0.00  0.00    +0.000 C 
ENDBRANCH  26  27
ENDBRANCH  24  26
ENDBRANCH  23  24
ENDBRANCH   7  22
BRANCH   9  33
ATOM     33  O   UNL     1      -0.284   9.272  23.484  0.00  0.00    +0.000 OA
ATOM     34  C   UNL     1       0.765   9.127  24.439  0.00  0.00    +0.000 C 
ENDBRANCH   9  33
BRANCH  10  35
ATOM     35  O   UNL     1      -0.973  11.789  23.152  0.00  0.00    +0.000 OA
ATOM     36  H   UNL     1      -0.241  12.007  23.769  0.00  0.00    +0.000 HD
ENDBRANCH  10  35
TORSDOF 7
ENDMDL
MODEL 3
REMARK VINA RESULT:      -6.5      3.876      8.060
REMARK  Name = 
REMARK  10 active torsions:
REMARK  status: ('A' for Active; 'I' for Inactive)
REMARK    1  A    between atoms: C_1  and  O_2
REMARK    2  A    between atoms: O_2  and  C_3
REMARK    3  A    between atoms: C_9  and  C_10
REMARK    4  A    between atoms: C_11  and  C_12
REMARK    5  A    between atoms: C_12  and  O_14
REMARK    6  A    between atoms: O_14  and  C_15
REMARK    7  A    between atoms: C_22  and  O_23
REMARK    8  A    between atoms: O_23  and  C_24
REMARK    9  A    between atoms: C_25  and  O_26
REMARK   10  A    between atoms: N_31  and  C_32
REMARK                            x       y       z     vdW  Elec       q    Type
REMARK                         _______ _______ _______ _____ _____    ______ ____
ROOT
ATOM      1  C   UNL     1       1.439  15.106  18.896  0.00  0.00    +0.000 C 
ATOM      2  C   UNL     1       0.110  15.068  18.783  0.00  0.00    +0.000 C 
ATOM      3  C   UNL     1      -0.722  13.834  19.129  0.00  0.00    +0.000 C 
ATOM      4  C   UNL     1      -0.977  12.590  18.277  0.00  0.00    +0.000 C 
ATOM      5  C   UNL     1       0.194  11.560  18.417  0.00  0.00    +0.000 C 
ATOM      6  C   UNL     1       0.291  10.968  19.815  0.00  0.00    +0.000 A 
ATOM      7  C   UNL     1       0.844   9.697  20.079  0.00  0.00    +0.000 A 
ATOM      8  C   UNL     1       0.692   9.100  21.358  0.00  0.00    +0.000 A 
ATOM      9  C   UNL     1      -0.016   9.780  22.338  0.00  0.00    +0.000 A 
ATOM     10  C   UNL     1      -0.416  11.083  22.122  0.00  0.00    +0.000 A 
ATOM     11  C   UNL     1      -0.253  11.720  20.866  0.00  0.00    +0.000 A 
ATOM     12  C   UNL     1      -0.521  13.245  20.591  0.00  0.00    +0.000 C 
ATOM     13  C   UNL     1      -2.009  13.451  21.018  0.00  0.00    +0.000 C 
ATOM     14  C   UNL     1      -2.943  12.663  19.953  0.00  0.00    +0.000 C 
ATOM     15  N   UNL     1      -2.254  12.042  18.797  0.00  0.00    +0.000 NA
ATOM     16  C   UNL     1      -2.791  10.845  18.200  0.00  0.00    +0.000 C 
ATOM     17  C   UNL     1       0.852  13.849  21.048  0.00  0.00    +0.000 C 
ATOM     18  C   UNL     1       1.819  14.007  19.813  0.00  0.00    +0.000 C 
ATOM     19  O   UNL     1       2.758  13.268  19.533  0.00  0.00    +0.000 OA
ENDROOT
BRANCH   1  21
ATOM     20  C   UNL     1       3.127  16.163  17.678  0.00  0.00    +0.000 C 
ATOM     21  O   UNL     1       2.196  16.248  18.761  0.00  0.00    +0.000 OA
ENDBRANCH   1  21
BRANCH   7  22
ATOM     22  C   UNL     1       1.641   8.993  19.062  0.00  0.00    +0.000 C 
ATOM     23  C   UNL     1       2.092   7.748  19.286  0.00  0.00    +0.000 C 
BRANCH  23  24
ATOM     24  C   UNL     1       2.959   7.031  18.310  0.00  0.00    +0.000 C 
ATOM     25  O   UNL     1       3.447   7.516  17.310  0.00  0.00    +0.000 OA
BRANCH  24  26
ATOM     26  O   UNL     1       3.119   5.781  18.801  0.00  0.00    +0.000 OA
BRANCH  26  27
ATOM     27  C   UNL     1       2.976   4.648  17.913  0.00  0.00    +0.000 C 
ATOM     28  C   UNL     1       3.904   3.511  18.354  0.00  0.00    +0.000 C 
ATOM     29  C   UNL     1       3.576   3.025  19.768  0.00  0.00    +0.000 C 
ATOM     30  C   UNL     1       2.114   2.600  19.899  0.00  0.00    +0.000 C 
ATOM     31  C   UNL     1       1.160   3.691  19.421  0.00  0.00    +0.000 C 
ATOM     32  C   UNL     1       1.514   4.177  18.011  0.00  0.00    +0.000 C 
ENDBRANCH  26  27
ENDBRANCH  24  26
ENDBRANCH  23  24
ENDBRANCH   7  22
BRANCH   9  33
ATOM     33  O   UNL     1      -0.289   9.241  23.570  0.00  0.00    +0.000 OA
ATOM     34  C   UNL     1       0.758   9.138  24.534  0.00  0.00    +0.000 C 
ENDBRANCH   9  33
BRANCH  10  35
ATOM     35  O   UNL     1      -1.028  11.734  23.173  0.00  0.00    +0.000 OA
ATOM     36  H   UNL     1      -0.624  12.629  23.202  0.00  0.00    +0.000 HD
ENDBRANCH  10  35
TORSDOF 7
ENDMDL
MODEL 4
REMARK VINA RESULT:      -6.4      1.804      2.365
REMARK  Name = 
REMARK  10 active torsions:
REMARK  status: ('A' for Active; 'I' for Inactive)
REMARK    1  A    between atoms: C_1  and  O_2
REMARK    2  A    between atoms: O_2  and  C_3
REMARK    3  A    between atoms: C_9  and  C_10
REMARK    4  A    between atoms: C_11  and  C_12
REMARK    5  A    between atoms: C_12  and  O_14
REMARK    6  A    between atoms: O_14  and  C_15
REMARK    7  A    between atoms: C_22  and  O_23
REMARK    8  A    between atoms: O_23  and  C_24
REMARK    9  A    between atoms: C_25  and  O_26
REMARK   10  A    between atoms: N_31  and  C_32
REMARK                            x       y       z     vdW  Elec       q    Type
REMARK                         _______ _______ _______ _____ _____    ______ ____
ROOT
ATOM      1  C   UNL     1       2.188  14.690  19.841  0.00  0.00    +0.000 C 
ATOM      2  C   UNL     1       2.559  13.409  19.875  0.00  0.00    +0.000 C 
ATOM      3  C   UNL     1       1.563  12.253  19.950  0.00  0.00    +0.000 C 
ATOM      4  C   UNL     1       0.842  11.699  21.179  0.00  0.00    +0.000 C 
ATOM      5  C   UNL     1      -0.445  12.531  21.502  0.00  0.00    +0.000 C 
ATOM      6  C   UNL     1      -1.513  12.400  20.427  0.00  0.00    +0.000 A 
ATOM      7  C   UNL     1      -2.891  12.566  20.683  0.00  0.00    +0.000 A 
ATOM      8  C   UNL     1      -3.851  12.201  19.703  0.00  0.00    +0.000 A 
ATOM      9  C   UNL     1      -3.416  11.668  18.500  0.00  0.00    +0.000 A 
ATOM     10  C   UNL     1      -2.069  11.656  18.198  0.00  0.00    +0.000 A 
ATOM     11  C   UNL     1      -1.084  12.042  19.140  0.00  0.00    +0.000 A 
ATOM     12  C   UNL     1       0.445  12.220  18.821  0.00  0.00    +0.000 C 
ATOM     13  C   UNL     1       0.878  10.831  18.253  0.00  0.00    +0.000 C 
ATOM     14  C   UNL     1       0.826   9.762  19.469  0.00  0.00    +0.000 C 
ATOM     15  N   UNL     1       0.513  10.299  20.814  0.00  0.00    +0.000 NA
ATOM     16  C   UNL     1      -0.184   9.476  21.772  0.00  0.00    +0.000 C 
ATOM     17  C   UNL     1       0.437  13.687  18.266  0.00  0.00    +0.000 C 
ATOM     18  C   UNL     1       0.769  14.711  19.417  0.00  0.00    +0.000 C 
ATOM     19  O   UNL     1      -0.041  15.418  20.008  0.00  0.00    +0.000 OA
ENDROOT
BRANCH   1  21
ATOM     20  C   UNL     1       3.291  16.528  20.767  0.00  0.00    +0.000 C 
ATOM     21  O   UNL     1       3.045  15.740  19.598  0.00  0.00    +0.000 OA
ENDBRANCH   1  21
BRANCH   7  22
ATOM     22  C   UNL     1      -3.359  13.178  21.936  0.00  0.00    +0.000 C 
ATOM     23  C   UNL     1      -3.502  12.440  23.048  0.00  0.00    +0.000 C 
BRANCH  23  24
ATOM     24  C   UNL     1      -4.040  13.010  24.315  0.00  0.00    +0.000 C 
ATOM     25  O   UNL     1      -4.404  12.369  25.279  0.00  0.00    +0.000 OA
BRANCH  24  26
ATOM     26  O   UNL     1      -3.982  14.354  24.174  0.00  0.00    +0.000 OA
BRANCH  26  27
ATOM     27  C   UNL     1      -3.267  15.139  25.156  0.00  0.00    +0.000 C 
ATOM     28  C   UNL     1      -1.756  15.024  24.925  0.00  0.00    +0.000 C 
ATOM     29  C   UNL     1      -1.351  15.545  23.544  0.00  0.00    +0.000 C 
ATOM     30  C   UNL     1      -1.816  16.982  23.319  0.00  0.00    +0.000 C 
ATOM     31  C   UNL     1      -3.309  17.146  23.589  0.00  0.00    +0.000 C 
ATOM     32  C   UNL     1      -3.700  16.603  24.968  0.00  0.00    +0.000 C 
ENDBRANCH  26  27
ENDBRANCH  24  26
ENDBRANCH  23  24
ENDBRANCH   7  22
BRANCH   9  33
ATOM     33  O   UNL     1      -4.274  11.204  17.535  0.00  0.00    +0.000 OA
ATOM     34  C   UNL     1      -5.369  12.021  17.124  0.00  0.00    +0.000 C 
ENDBRANCH   9  33
BRANCH  10  35
ATOM     35  O   UNL     1      -1.711  11.205  16.944  0.00  0.00    +0.000 OA
ATOM     36  H   UNL     1      -2.396  11.551  16.331  0.00  0.00    +0.000 HD
ENDBRANCH  10  35
TORSDOF 7
ENDMDL
MODEL 5
REMARK VINA RESULT:      -6.2      1.374      2.118
REMARK  Name = 
REMARK  10 active torsions:
REMARK  status: ('A' for Active; 'I' for Inactive)
REMARK    1  A    between atoms: C_1  and  O_2
REMARK    2  A    between atoms: O_2  and  C_3
REMARK    3  A    between atoms: C_9  and  C_10
REMARK    4  A    between atoms: C_11  and  C_12
REMARK    5  A    between atoms: C_12  and  O_14
REMARK    6  A    between atoms: O_14  and  C_15
REMARK    7  A    between atoms: C_22  and  O_23
REMARK    8  A    between atoms: O_23  and  C_24
REMARK    9  A    between atoms: C_25  and  O_26
REMARK   10  A    between atoms: N_31  and  C_32
REMARK                            x       y       z     vdW  Elec       q    Type
REMARK                         _______ _______ _______ _____ _____    ______ ____
ROOT
ATOM      1  C   UNL     1       2.010  14.677  19.985  0.00  0.00    +0.000 C 
ATOM      2  C   UNL     1       2.405  13.412  20.144  0.00  0.00    +0.000 C 
ATOM      3  C   UNL     1       1.432  12.236  20.207  0.00  0.00    +0.000 C 
ATOM      4  C   UNL     1       0.608  11.747  21.399  0.00  0.00    +0.000 C 
ATOM      5  C   UNL     1      -0.722  12.561  21.539  0.00  0.00    +0.000 C 
ATOM      6  C   UNL     1      -1.678  12.326  20.380  0.00  0.00    +0.000 A 
ATOM      7  C   UNL     1      -3.077  12.469  20.492  0.00  0.00    +0.000 A 
ATOM      8  C   UNL     1      -3.930  12.009  19.454  0.00  0.00    +0.000 A 
ATOM      9  C   UNL     1      -3.369  11.408  18.338  0.00  0.00    +0.000 A 
ATOM     10  C   UNL     1      -2.000  11.414  18.166  0.00  0.00    +0.000 A 
ATOM     11  C   UNL     1      -1.119  11.893  19.168  0.00  0.00    +0.000 A 
ATOM     12  C   UNL     1       0.429  12.092  18.983  0.00  0.00    +0.000 C 
ATOM     13  C   UNL     1       0.946  10.681  18.558  0.00  0.00    +0.000 C 
ATOM     14  C   UNL     1       0.801   9.697  19.838  0.00  0.00    +0.000 C 
ATOM     15  N   UNL     1       0.347  10.316  21.105  0.00  0.00    +0.000 NA
ATOM     16  C   UNL     1      -0.420   9.542  22.049  0.00  0.00    +0.000 C 
ATOM     17  C   UNL     1       0.442  13.517  18.326  0.00  0.00    +0.000 C 
ATOM     18  C   UNL     1       0.638  14.627  19.427  0.00  0.00    +0.000 C 
ATOM     19  O   UNL     1      -0.240  15.349  19.887  0.00  0.00    +0.000 OA
ENDROOT
BRANCH   1  21
ATOM     20  C   UNL     1       2.797  16.198  18.399  0.00  0.00    +0.000 C 
ATOM     21  O   UNL     1       2.863  15.732  19.750  0.00  0.00    +0.000 OA
ENDBRANCH   1  21
BRANCH   7  22
ATOM     22  C   UNL     1      -3.678  13.152  21.647  0.00  0.00    +0.000 C 
ATOM     23  C   UNL     1      -3.715  14.493  21.708  0.00  0.00    +0.000 C 
BRANCH  23  24
ATOM     24  C   UNL     1      -4.252  15.218  22.893  0.00  0.00    +0.000 C 
ATOM     25  O   UNL     1      -3.931  16.336  23.242  0.00  0.00    +0.000 OA
BRANCH  24  26
ATOM     26  O   UNL     1      -5.183  14.403  23.440  0.00  0.00    +0.000 OA
BRANCH  26  27
ATOM     27  C   UNL     1      -6.561  14.838  23.492  0.00  0.00    +0.000 C 
ATOM     28  C   UNL     1      -7.119  14.993  22.073  0.00  0.00    +0.000 C 
ATOM     29  C   UNL     1      -7.088  13.670  21.302  0.00  0.00    +0.000 C 
ATOM     30  C   UNL     1      -7.826  12.560  22.047  0.00  0.00    +0.000 C 
ATOM     31  C   UNL     1      -7.331  12.410  23.482  0.00  0.00    +0.000 C 
ATOM     32  C   UNL     1      -7.353  13.747  24.233  0.00  0.00    +0.000 C 
ENDBRANCH  26  27
ENDBRANCH  24  26
ENDBRANCH  23  24
ENDBRANCH   7  22
BRANCH   9  33
ATOM     33  O   UNL     1      -4.120  10.854  17.331  0.00  0.00    +0.000 OA
ATOM     34  C   UNL     1      -5.313  11.511  16.908  0.00  0.00    +0.000 C 
ENDBRANCH   9  33
BRANCH  10  35
ATOM     35  O   UNL     1      -1.512  10.888  16.987  0.00  0.00    +0.000 OA
ATOM     36  H   UNL     1      -1.048  10.060  17.238  0.00  0.00    +0.000 HD
ENDBRANCH  10  35
TORSDOF 7
ENDMDL
MODEL 6
REMARK VINA RESULT:      -6.0      1.026      1.485
REMARK  Name = 
REMARK  10 active torsions:
REMARK  status: ('A' for Active; 'I' for Inactive)
REMARK    1  A    between atoms: C_1  and  O_2
REMARK    2  A    between atoms: O_2  and  C_3
REMARK    3  A    between atoms: C_9  and  C_10
REMARK    4  A    between atoms: C_11  and  C_12
REMARK    5  A    between atoms: C_12  and  O_14
REMARK    6  A    between atoms: O_14  and  C_15
REMARK    7  A    between atoms: C_22  and  O_23
REMARK    8  A    between atoms: O_23  and  C_24
REMARK    9  A    between atoms: C_25  and  O_26
REMARK   10  A    between atoms: N_31  and  C_32
REMARK                            x       y       z     vdW  Elec       q    Type
REMARK                         _______ _______ _______ _____ _____    ______ ____
ROOT
ATOM      1  C   UNL     1       1.607  15.311  20.064  0.00  0.00    +0.000 C 
ATOM      2  C   UNL     1       2.027  14.184  20.641  0.00  0.00    +0.000 C 
ATOM      3  C   UNL     1       1.146  12.945  20.793  0.00  0.00    +0.000 C 
ATOM      4  C   UNL     1       0.079  12.662  21.852  0.00  0.00    +0.000 C 
ATOM      5  C   UNL     1      -1.291  13.311  21.461  0.00  0.00    +0.000 C 
ATOM      6  C   UNL     1      -1.906  12.681  20.221  0.00  0.00    +0.000 A 
ATOM      7  C   UNL     1      -3.294  12.668  19.968  0.00  0.00    +0.000 A 
ATOM      8  C   UNL     1      -3.826  11.865  18.925  0.00  0.00    +0.000 A 
ATOM      9  C   UNL     1      -2.964  11.086  18.169  0.00  0.00    +0.000 A 
ATOM     10  C   UNL     1      -1.599  11.223  18.319  0.00  0.00    +0.000 A 
ATOM     11  C   UNL     1      -1.032  12.039  19.330  0.00  0.00    +0.000 A 
ATOM     12  C   UNL     1       0.497  12.382  19.456  0.00  0.00    +0.000 C 
ATOM     13  C   UNL     1       1.191  10.987  19.555  0.00  0.00    +0.000 C 
ATOM     14  C   UNL     1       0.790  10.334  20.983  0.00  0.00    +0.000 C 
ATOM     15  N   UNL     1      -0.008  11.182  21.900  0.00  0.00    +0.000 NA
ATOM     16  C   UNL     1      -0.939  10.570  22.816  0.00  0.00    +0.000 C 
ATOM     17  C   UNL     1       0.586  13.593  18.463  0.00  0.00    +0.000 C 
ATOM     18  C   UNL     1       0.427  14.954  19.242  0.00  0.00    +0.000 C 
ATOM     19  O   UNL     1      -0.583  15.649  19.279  0.00  0.00    +0.000 OA
ENDROOT
BRANCH   1  21
ATOM     20  C   UNL     1       2.064  17.565  20.465  0.00  0.00    +0.000 C 
ATOM     21  O   UNL     1       2.424  16.376  19.755  0.00  0.00    +0.000 OA
ENDBRANCH   1  21
BRANCH   7  22
ATOM     22  C   UNL     1      -4.209  13.531  20.730  0.00  0.00    +0.000 C 
ATOM     23  C   UNL     1      -4.903  13.044  21.771  0.00  0.00    +0.000 C 
BRANCH  23  24
ATOM     24  C   UNL     1      -5.891  13.869  22.522  0.00  0.00    +0.000 C 
ATOM     25  O   UNL     1      -6.984  13.496  22.896  0.00  0.00    +0.000 OA
BRANCH  24  26
ATOM     26  O   UNL     1      -5.294  15.064  22.734  0.00  0.00    +0.000 OA
BRANCH  26  27
ATOM     27  C   UNL     1      -4.677  15.331  24.014  0.00  0.00    +0.000 C 
ATOM     28  C   UNL     1      -3.157  15.442  23.854  0.00  0.00    +0.000 C 
ATOM     29  C   UNL     1      -2.765  16.585  22.914  0.00  0.00    +0.000 C 
ATOM     30  C   UNL     1      -3.352  17.920  23.367  0.00  0.00    +0.000 C 
ATOM     31  C   UNL     1      -4.860  17.835  23.585  0.00  0.00    +0.000 C 
ATOM     32  C   UNL     1      -5.234  16.675  24.515  0.00  0.00    +0.000 C 
ENDBRANCH  26  27
ENDBRANCH  24  26
ENDBRANCH  23  24
ENDBRANCH   7  22
BRANCH   9  33
ATOM     33  O   UNL     1      -3.399  10.213  17.204  0.00  0.00    +0.000 OA
ATOM     34  C   UNL     1      -3.864  10.726  15.958  0.00  0.00    +0.000 C 
ENDBRANCH   9  33
BRANCH  10  35
ATOM     35  O   UNL     1      -0.796  10.491  17.468  0.00  0.00    +0.000 OA
ATOM     36  H   UNL     1      -1.325  10.362  16.650  0.00  0.00    +0.000 HD
ENDBRANCH  10  35
TORSDOF 7
ENDMDL
MODEL 7
REMARK VINA RESULT:      -5.9      1.422      1.932
REMARK  Name = 
REMARK  10 active torsions:
REMARK  status: ('A' for Active; 'I' for Inactive)
REMARK    1  A    between atoms: C_1  and  O_2
REMARK    2  A    between atoms: O_2  and  C_3
REMARK    3  A    between atoms: C_9  and  C_10
REMARK    4  A    between atoms: C_11  and  C_12
REMARK    5  A    between atoms: C_12  and  O_14
REMARK    6  A    between atoms: O_14  and  C_15
REMARK    7  A    between atoms: C_22  and  O_23
REMARK    8  A    between atoms: O_23  and  C_24
REMARK    9  A    between atoms: C_25  and  O_26
REMARK   10  A    between atoms: N_31  and  C_32
REMARK                            x       y       z     vdW  Elec       q    Type
REMARK                         _______ _______ _______ _____ _____    ______ ____
ROOT
ATOM      1  C   UNL     1       2.077  14.708  20.009  0.00  0.00    +0.000 C 
ATOM      2  C   UNL     1       2.428  13.433  20.182  0.00  0.00    +0.000 C 
ATOM      3  C   UNL     1       1.416  12.291  20.261  0.00  0.00    +0.000 C 
ATOM      4  C   UNL     1       0.578  11.845  21.459  0.00  0.00    +0.000 C 
ATOM      5  C   UNL     1      -0.723  12.706  21.592  0.00  0.00    +0.000 C 
ATOM      6  C   UNL     1      -1.689  12.490  20.437  0.00  0.00    +0.000 A 
ATOM      7  C   UNL     1      -3.082  12.682  20.550  0.00  0.00    +0.000 A 
ATOM      8  C   UNL     1      -3.953  12.240  19.519  0.00  0.00    +0.000 A 
ATOM      9  C   UNL     1      -3.415  11.608  18.409  0.00  0.00    +0.000 A 
ATOM     10  C   UNL     1      -2.047  11.564  18.235  0.00  0.00    +0.000 A 
ATOM     11  C   UNL     1      -1.147  12.024  19.230  0.00  0.00    +0.000 A 
ATOM     12  C   UNL     1       0.406  12.169  19.039  0.00  0.00    +0.000 C 
ATOM     13  C   UNL     1       0.873  10.736  18.631  0.00  0.00    +0.000 C 
ATOM     14  C   UNL     1       0.698   9.772  19.921  0.00  0.00    +0.000 C 
ATOM     15  N   UNL     1       0.268  10.420  21.183  0.00  0.00    +0.000 NA
ATOM     16  C   UNL     1      -0.523   9.683  22.137  0.00  0.00    +0.000 C 
ATOM     17  C   UNL     1       0.467  13.584  18.366  0.00  0.00    +0.000 C 
ATOM     18  C   UNL     1       0.703  14.699  19.455  0.00  0.00    +0.000 C 
ATOM     19  O   UNL     1      -0.149  15.456  19.908  0.00  0.00    +0.000 OA
ENDROOT
BRANCH   1  21
ATOM     20  C   UNL     1       3.881  15.416  18.708  0.00  0.00    +0.000 C 
ATOM     21  O   UNL     1       2.965  15.731  19.760  0.00  0.00    +0.000 OA
ENDBRANCH   1  21
BRANCH   7  22
ATOM     22  C   UNL     1      -3.657  13.399  21.699  0.00  0.00    +0.000 C 
ATOM     23  C   UNL     1      -4.719  12.904  22.354  0.00  0.00    +0.000 C 
BRANCH  23  24
ATOM     24  C   UNL     1      -5.370  13.635  23.476  0.00  0.00    +0.000 C 
ATOM     25  O   UNL     1      -6.402  13.310  24.027  0.00  0.00    +0.000 OA
BRANCH  24  26
ATOM     26  O   UNL     1      -4.553  14.673  23.769  0.00  0.00    +0.000 OA
BRANCH  26  27
ATOM     27  C   UNL     1      -5.131  15.939  24.163  0.00  0.00    +0.000 C 
ATOM     28  C   UNL     1      -4.123  16.744  24.992  0.00  0.00    +0.000 C 
ATOM     29  C   UNL     1      -2.850  17.051  24.198  0.00  0.00    +0.000 C 
ATOM     30  C   UNL     1      -3.158  17.772  22.887  0.00  0.00    +0.000 C 
ATOM     31  C   UNL     1      -4.197  17.024  22.056  0.00  0.00    +0.000 C 
ATOM     32  C   UNL     1      -5.457  16.709  22.872  0.00  0.00    +0.000 C 
ENDBRANCH  26  27
ENDBRANCH  24  26
ENDBRANCH  23  24
ENDBRANCH   7  22
BRANCH   9  33
ATOM     33  O   UNL     1      -4.186  11.068  17.410  0.00  0.00    +0.000 OA
ATOM     34  C   UNL     1      -5.571  11.402  17.341  0.00  0.00    +0.000 C 
ENDBRANCH   9  33
BRANCH  10  35
ATOM     35  O   UNL     1      -1.579  11.009  17.061  0.00  0.00    +0.000 OA
ATOM     36  H   UNL     1      -0.836  10.423  17.322  0.00  0.00    +0.000 HD
ENDBRANCH  10  35
TORSDOF 7
ENDMDL
MODEL 8
REMARK VINA RESULT:      -5.9      1.458      2.192
REMARK  Name = 
REMARK  10 active torsions:
REMARK  status: ('A' for Active; 'I' for Inactive)
REMARK    1  A    between atoms: C_1  and  O_2
REMARK    2  A    between atoms: O_2  and  C_3
REMARK    3  A    between atoms: C_9  and  C_10
REMARK    4  A    between atoms: C_11  and  C_12
REMARK    5  A    between atoms: C_12  and  O_14
REMARK    6  A    between atoms: O_14  and  C_15
REMARK    7  A    between atoms: C_22  and  O_23
REMARK    8  A    between atoms: O_23  and  C_24
REMARK    9  A    between atoms: C_25  and  O_26
REMARK   10  A    between atoms: N_31  and  C_32
REMARK                            x       y       z     vdW  Elec       q    Type
REMARK                         _______ _______ _______ _____ _____    ______ ____
ROOT
ATOM      1  C   UNL     1       2.173  14.695  19.881  0.00  0.00    +0.000 C 
ATOM      2  C   UNL     1       2.535  13.414  19.975  0.00  0.00    +0.000 C 
ATOM      3  C   UNL     1       1.529  12.266  20.043  0.00  0.00    +0.000 C 
ATOM      4  C   UNL     1       0.749  11.757  21.255  0.00  0.00    +0.000 C 
ATOM      5  C   UNL     1      -0.547  12.605  21.488  0.00  0.00    +0.000 C 
ATOM      6  C   UNL     1      -1.565  12.442  20.370  0.00  0.00    +0.000 A 
ATOM      7  C   UNL     1      -2.952  12.623  20.555  0.00  0.00    +0.000 A 
ATOM      8  C   UNL     1      -3.867  12.228  19.544  0.00  0.00    +0.000 A 
ATOM      9  C   UNL     1      -3.379  11.653  18.381  0.00  0.00    +0.000 A 
ATOM     10  C   UNL     1      -2.020  11.624  18.143  0.00  0.00    +0.000 A 
ATOM     11  C   UNL     1      -1.078  12.038  19.117  0.00  0.00    +0.000 A 
ATOM     12  C   UNL     1       0.465  12.199  18.864  0.00  0.00    +0.000 C 
ATOM     13  C   UNL     1       0.916  10.790  18.364  0.00  0.00    +0.000 C 
ATOM     14  C   UNL     1       0.802   9.763  19.613  0.00  0.00    +0.000 C 
ATOM     15  N   UNL     1       0.429  10.347  20.923  0.00  0.00    +0.000 NA
ATOM     16  C   UNL     1      -0.316   9.561  21.874  0.00  0.00    +0.000 C 
ATOM     17  C   UNL     1       0.492  13.646  18.260  0.00  0.00    +0.000 C 
ATOM     18  C   UNL     1       0.776  14.707  19.389  0.00  0.00    +0.000 C 
ATOM     19  O   UNL     1      -0.057  15.438  19.917  0.00  0.00    +0.000 OA
ENDROOT
BRANCH   1  21
ATOM     20  C   UNL     1       3.445  15.808  18.270  0.00  0.00    +0.000 C 
ATOM     21  O   UNL     1       3.047  15.732  19.642  0.00  0.00    +0.000 OA
ENDBRANCH   1  21
BRANCH   7  22
ATOM     22  C   UNL     1      -3.475  13.279  21.763  0.00  0.00    +0.000 C 
ATOM     23  C   UNL     1      -3.905  12.552  22.806  0.00  0.00    +0.000 C 
BRANCH  23  24
ATOM     24  C   UNL     1      -4.505  13.180  24.017  0.00  0.00    +0.000 C 
ATOM     25  O   UNL     1      -4.710  12.621  25.074  0.00  0.00    +0.000 OA
BRANCH  24  26
ATOM     26  O   UNL     1      -4.710  14.480  23.700  0.00  0.00    +0.000 OA
BRANCH  26  27
ATOM     27  C   UNL     1      -6.005  15.072  23.950  0.00  0.00    +0.000 C 
ATOM     28  C   UNL     1      -5.885  16.600  24.004  0.00  0.00    +0.000 C 
ATOM     29  C   UNL     1      -5.366  17.177  22.684  0.00  0.00    +0.000 C 
ATOM     30  C   UNL     1      -6.232  16.752  21.499  0.00  0.00    +0.000 C 
ATOM     31  C   UNL     1      -6.416  15.239  21.441  0.00  0.00    +0.000 C 
ATOM     32  C   UNL     1      -6.918  14.676  22.776  0.00  0.00    +0.000 C 
ENDBRANCH  26  27
ENDBRANCH  24  26
ENDBRANCH  23  24
ENDBRANCH   7  22
BRANCH   9  33
ATOM     33  O   UNL     1      -4.194  11.160  17.393  0.00  0.00    +0.000 OA
ATOM     34  C   UNL     1      -5.604  11.345  17.495  0.00  0.00    +0.000 C 
ENDBRANCH   9  33
BRANCH  10  35
ATOM     35  O   UNL     1      -1.606  11.129  16.924  0.00  0.00    +0.000 OA
ATOM     36  H   UNL     1      -1.617  11.894  16.308  0.00  0.00    +0.000 HD
ENDBRANCH  10  35
TORSDOF 7
ENDMDL
MODEL 9
REMARK VINA RESULT:      -5.9      3.790      8.005
REMARK  Name = 
REMARK  10 active torsions:
REMARK  status: ('A' for Active; 'I' for Inactive)
REMARK    1  A    between atoms: C_1  and  O_2
REMARK    2  A    between atoms: O_2  and  C_3
REMARK    3  A    between atoms: C_9  and  C_10
REMARK    4  A    between atoms: C_11  and  C_12
REMARK    5  A    between atoms: C_12  and  O_14
REMARK    6  A    between atoms: O_14  and  C_15
REMARK    7  A    between atoms: C_22  and  O_23
REMARK    8  A    between atoms: O_23  and  C_24
REMARK    9  A    between atoms: C_25  and  O_26
REMARK   10  A    between atoms: N_31  and  C_32
REMARK                            x       y       z     vdW  Elec       q    Type
REMARK                         _______ _______ _______ _____ _____    ______ ____
ROOT
ATOM      1  C   UNL     1      -1.044  13.647  23.270  0.00  0.00    +0.000 C 
ATOM      2  C   UNL     1      -0.378  14.488  22.477  0.00  0.00    +0.000 C 
ATOM      3  C   UNL     1       0.153  14.093  21.099  0.00  0.00    +0.000 C 
ATOM      4  C   UNL     1       1.433  13.332  20.757  0.00  0.00    +0.000 C 
ATOM      5  C   UNL     1       1.217  11.784  20.867  0.00  0.00    +0.000 C 
ATOM      6  C   UNL     1       0.248  11.252  19.822  0.00  0.00    +0.000 A 
ATOM      7  C   UNL     1       0.280   9.925  19.344  0.00  0.00    +0.000 A 
ATOM      8  C   UNL     1      -0.486   9.554  18.208  0.00  0.00    +0.000 A 
ATOM      9  C   UNL     1      -1.254  10.516  17.570  0.00  0.00    +0.000 A 
ATOM     10  C   UNL     1      -1.402  11.766  18.135  0.00  0.00    +0.000 A 
ATOM     11  C   UNL     1      -0.676  12.162  19.286  0.00  0.00    +0.000 A 
ATOM     12  C   UNL     1      -0.915  13.494  20.085  0.00  0.00    +0.000 C 
ATOM     13  C   UNL     1      -0.721  14.617  19.017  0.00  0.00    +0.000 C 
ATOM     14  C   UNL     1       0.848  14.647  18.611  0.00  0.00    +0.000 C 
ATOM     15  N   UNL     1       1.748  13.744  19.367  0.00  0.00    +0.000 NA
ATOM     16  C   UNL     1       2.920  13.198  18.729  0.00  0.00    +0.000 C 
ATOM     17  C   UNL     1      -2.096  13.046  21.015  0.00  0.00    +0.000 C 
ATOM     18  C   UNL     1      -1.543  12.552  22.405  0.00  0.00    +0.000 C 
ATOM     19  O   UNL     1      -1.426  11.384  22.760  0.00  0.00    +0.000 OA
ENDROOT
BRANCH   1  21
ATOM     20  C   UNL     1      -3.100  14.129  24.265  0.00  0.00    +0.000 C 
ATOM     21  O   UNL     1      -1.683  14.018  24.432  0.00  0.00    +0.000 OA
ENDBRANCH   1  21
BRANCH   7  22
ATOM     22  C   UNL     1       1.051   8.887  20.045  0.00  0.00    +0.000 C 
ATOM     23  C   UNL     1       1.587   7.858  19.369  0.00  0.00    +0.000 C 
BRANCH  23  24
ATOM     24  C   UNL     1       2.314   6.753  20.053  0.00  0.00    +0.000 C 
ATOM     25  O   UNL     1       1.992   6.241  21.106  0.00  0.00    +0.000 OA
BRANCH  24  26
ATOM     26  O   UNL     1       3.344   6.423  19.240  0.00  0.00    +0.000 OA
BRANCH  26  27
ATOM     27  C   UNL     1       4.103   5.222  19.512  0.00  0.00    +0.000 C 
ATOM     28  C   UNL     1       3.418   4.009  18.875  0.00  0.00    +0.000 C 
ATOM     29  C   UNL     1       3.315   4.147  17.353  0.00  0.00    +0.000 C 
ATOM     30  C   UNL     1       4.680   4.387  16.710  0.00  0.00    +0.000 C 
ATOM     31  C   UNL     1       5.415   5.560  17.354  0.00  0.00    +0.000 C 
ATOM     32  C   UNL     1       5.492   5.412  18.878  0.00  0.00    +0.000 C 
ENDBRANCH  26  27
ENDBRANCH  24  26
ENDBRANCH  23  24
ENDBRANCH   7  22
BRANCH   9  33
ATOM     33  O   UNL     1      -1.952  10.269  16.415  0.00  0.00    +0.000 OA
ATOM     34  C   UNL     1      -3.237   9.655  16.494  0.00  0.00    +0.000 C 
ENDBRANCH   9  33
BRANCH  10  35
ATOM     35  O   UNL     1      -2.259  12.644  17.503  0.00  0.00    +0.000 OA
ATOM     36  H   UNL     1      -1.739  13.465  17.356  0.00  0.00    +0.000 HD
ENDBRANCH  10  35
TORSDOF 7
ENDMDL
