MODEL 1
REMARK VINA RESULT:      -8.7      0.000      0.000
REMARK  Name = 
REMARK  6 active torsions:
REMARK  status: ('A' for Active; 'I' for Inactive)
REMARK    1  A    between atoms: S_2  and  C_4
REMARK    2  A    between atoms: S_2  and  N_26
REMARK    3  A    between atoms: C_8  and  C_9
REMARK    4  A    between atoms: C_12  and  S_13
REMARK    5  A    between atoms: S_13  and  C_14
REMARK    6  A    between atoms: C_14  and  C_15
REMARK                            x       y       z     vdW  Elec       q    Type
REMARK                         _______ _______ _______ _____ _____    ______ ____
ROOT
ATOM      1  C   UNL     1       0.532   9.634  21.569  0.00  0.00    +0.000 A 
ATOM      2  N   UNL     1       0.499   9.295  22.845  0.00  0.00    +0.000 NA
ATOM      3  N   UNL     1      -0.216  10.272  23.493  0.00  0.00    +0.000 NA
ATOM      4  C   UNL     1      -0.565  11.155  22.581  0.00  0.00    +0.000 A 
ATOM      5  O   UNL     1      -0.130  10.808  21.323  0.00  0.00    +0.000 OA
ENDROOT
BRANCH   1  10
ATOM      6  C   UNL     1       2.262   7.025  19.426  0.00  0.00    +0.000 A 
ATOM      7  C   UNL     1       2.345   7.703  18.206  0.00  0.00    +0.000 A 
ATOM      8  C   UNL     1       1.829   8.987  18.103  0.00  0.00    +0.000 A 
ATOM      9  C   UNL     1       1.240   9.587  19.217  0.00  0.00    +0.000 A 
ATOM     10  C   UNL     1       1.149   8.917  20.454  0.00  0.00    +0.000 A 
ATOM     11  C   UNL     1       1.665   7.618  20.552  0.00  0.00    +0.000 A 
BRANCH   6  13
ATOM     12  O   UNL     1       4.441   5.626  19.276  0.00  0.00    +0.000 OA
ATOM     13  S   UNL     1       3.033   5.426  19.537  0.00  0.00    +0.000 S 
ATOM     14  O   UNL     1       2.585   4.799  20.760  0.00  0.00    +0.000 OA
BRANCH  13  15
ATOM     15  N   UNL     1       2.369   4.572  18.216  0.00  0.00    +0.000 NA
ATOM     16  C   UNL     1       1.354   3.516  18.527  0.00  0.00    +0.000 C 
ATOM     17  C   UNL     1       2.017   2.210  18.989  0.00  0.00    +0.000 C 
ATOM     18  O   UNL     1       2.974   1.738  18.028  0.00  0.00    +0.000 OA
ATOM     19  C   UNL     1       3.994   2.720  17.790  0.00  0.00    +0.000 C 
ATOM     20  C   UNL     1       3.381   4.018  17.255  0.00  0.00    +0.000 C 
ENDBRANCH  13  15
ENDBRANCH   6  13
ENDBRANCH   1  10
BRANCH   4  21
ATOM     21  S   UNL     1      -1.498  12.579  22.922  0.00  0.00    +0.000 S 
BRANCH  21  22
ATOM     22  C   UNL     1      -1.762  13.210  21.226  0.00  0.00    +0.000 C 
BRANCH  22  23
ATOM     23  C   UNL     1      -3.105  12.812  20.688  0.00  0.00    +0.000 A 
ATOM     24  N   UNL     1      -3.294  12.272  19.503  0.00  0.00    +0.000 NA
ATOM     25  C   UNL     1      -4.647  12.105  19.266  0.00  0.00    +0.000 A 
ATOM     26  C   UNL     1      -5.219  11.605  18.080  0.00  0.00    +0.000 A 
ATOM     27  C   UNL     1      -6.608  11.513  17.963  0.00  0.00    +0.000 A 
ATOM     28  C   UNL     1      -7.431  11.903  19.015  0.00  0.00    +0.000 A 
ATOM     29  C   UNL     1      -6.887  12.390  20.209  0.00  0.00    +0.000 A 
ATOM     30  C   UNL     1      -5.490  12.486  20.312  0.00  0.00    +0.000 A 
ATOM     31  S   UNL     1      -4.528  13.047  21.624  0.00  0.00    +0.000 S 
ENDBRANCH  22  23
ENDBRANCH  21  22
ENDBRANCH   4  21
TORSDOF 6
ENDMDL
MODEL 2
REMARK VINA RESULT:      -8.5      7.883     11.697
REMARK  Name = 
REMARK  6 active torsions:
REMARK  status: ('A' for Active; 'I' for Inactive)
REMARK    1  A    between atoms: S_2  and  C_4
REMARK    2  A    between atoms: S_2  and  N_26
REMARK    3  A    between atoms: C_8  and  C_9
REMARK    4  A    between atoms: C_12  and  S_13
REMARK    5  A    between atoms: S_13  and  C_14
REMARK    6  A    between atoms: C_14  and  C_15
REMARK                            x       y       z     vdW  Elec       q    Type
REMARK                         _______ _______ _______ _____ _____    ______ ____
ROOT
ATOM      1  C   UNL     1       8.007   8.629  18.001  0.00  0.00    +0.000 A 
ATOM      2  N   UNL     1       7.101   8.593  17.040  0.00  0.00    +0.000 NA
ATOM      3  N   UNL     1       6.788   7.270  16.844  0.00  0.00    +0.000 NA
ATOM      4  C   UNL     1       7.529   6.576  17.683  0.00  0.00    +0.000 A 
ATOM      5  O   UNL     1       8.327   7.379  18.464  0.00  0.00    +0.000 OA
ENDROOT
BRANCH   1  10
ATOM      6  C   UNL     1       9.507  12.065  18.578  0.00  0.00    +0.000 A 
ATOM      7  C   UNL     1       9.954  11.936  19.897  0.00  0.00    +0.000 A 
ATOM      8  C   UNL     1       9.751  10.740  20.572  0.00  0.00    +0.000 A 
ATOM      9  C   UNL     1       9.108   9.683  19.927  0.00  0.00    +0.000 A 
ATOM     10  C   UNL     1       8.652   9.797  18.598  0.00  0.00    +0.000 A 
ATOM     11  C   UNL     1       8.853  11.007  17.922  0.00  0.00    +0.000 A 
BRANCH   6  13
ATOM     12  O   UNL     1      10.901  13.254  16.742  0.00  0.00    +0.000 OA
ATOM     13  S   UNL     1       9.887  13.576  17.721  0.00  0.00    +0.000 S 
ATOM     14  O   UNL     1       8.640  14.191  17.326  0.00  0.00    +0.000 OA
BRANCH  13  15
ATOM     15  N   UNL     1      10.610  14.546  18.926  0.00  0.00    +0.000 NA
ATOM     16  C   UNL     1       9.936  15.842  19.255  0.00  0.00    +0.000 C 
ATOM     17  C   UNL     1      10.273  16.933  18.229  0.00  0.00    +0.000 C 
ATOM     18  O   UNL     1      11.692  17.110  18.096  0.00  0.00    +0.000 OA
ATOM     19  C   UNL     1      12.330  15.885  17.702  0.00  0.00    +0.000 C 
ATOM     20  C   UNL     1      12.080  14.786  18.740  0.00  0.00    +0.000 C 
ENDBRANCH  13  15
ENDBRANCH   6  13
ENDBRANCH   1  10
BRANCH   4  21
ATOM     21  S   UNL     1       7.478   4.846  17.814  0.00  0.00    +0.000 S 
BRANCH  21  22
ATOM     22  C   UNL     1       5.988   4.487  16.816  0.00  0.00    +0.000 C 
BRANCH  22  23
ATOM     23  C   UNL     1       4.797   4.195  17.679  0.00  0.00    +0.000 A 
ATOM     24  N   UNL     1       3.838   3.354  17.354  0.00  0.00    +0.000 NA
ATOM     25  C   UNL     1       2.841   3.373  18.314  0.00  0.00    +0.000 A 
ATOM     26  C   UNL     1       1.640   2.640  18.267  0.00  0.00    +0.000 A 
ATOM     27  C   UNL     1       0.704   2.773  19.295  0.00  0.00    +0.000 A 
ATOM     28  C   UNL     1       0.955   3.618  20.372  0.00  0.00    +0.000 A 
ATOM     29  C   UNL     1       2.148   4.346  20.449  0.00  0.00    +0.000 A 
ATOM     30  C   UNL     1       3.077   4.211  19.405  0.00  0.00    +0.000 A 
ATOM     31  S   UNL     1       4.609   4.969  19.203  0.00  0.00    +0.000 S 
ENDBRANCH  22  23
ENDBRANCH  21  22
ENDBRANCH   4  21
TORSDOF 6
ENDMDL
MODEL 3
REMARK VINA RESULT:      -8.4      0.978      1.246
REMARK  Name = 
REMARK  6 active torsions:
REMARK  status: ('A' for Active; 'I' for Inactive)
REMARK    1  A    between atoms: S_2  and  C_4
REMARK    2  A    between atoms: S_2  and  N_26
REMARK    3  A    between atoms: C_8  and  C_9
REMARK    4  A    between atoms: C_12  and  S_13
REMARK    5  A    between atoms: S_13  and  C_14
REMARK    6  A    between atoms: C_14  and  C_15
REMARK                            x       y       z     vdW  Elec       q    Type
REMARK                         _______ _______ _______ _____ _____    ______ ____
ROOT
ATOM      1  C   UNL     1       0.429   9.484  21.246  0.00  0.00    +0.000 A 
ATOM      2  N   UNL     1      -0.246   8.975  22.261  0.00  0.00    +0.000 NA
ATOM      3  N   UNL     1      -0.823  10.033  22.920  0.00  0.00    +0.000 NA
ATOM      4  C   UNL     1      -0.456  11.124  22.281  0.00  0.00    +0.000 A 
ATOM      5  O   UNL     1       0.339  10.851  21.191  0.00  0.00    +0.000 OA
ENDROOT
BRANCH   1  10
ATOM      6  C   UNL     1       2.490   6.916  19.362  0.00  0.00    +0.000 A 
ATOM      7  C   UNL     1       2.707   7.590  18.156  0.00  0.00    +0.000 A 
ATOM      8  C   UNL     1       2.172   8.858  17.977  0.00  0.00    +0.000 A 
ATOM      9  C   UNL     1       1.430   9.446  19.003  0.00  0.00    +0.000 A 
ATOM     10  C   UNL     1       1.203   8.780  20.224  0.00  0.00    +0.000 A 
ATOM     11  C   UNL     1       1.739   7.498  20.398  0.00  0.00    +0.000 A 
BRANCH   6  13
ATOM     12  O   UNL     1       4.710   5.592  19.576  0.00  0.00    +0.000 OA
ATOM     13  S   UNL     1       3.287   5.341  19.583  0.00  0.00    +0.000 S 
ATOM     14  O   UNL     1       2.654   4.675  20.699  0.00  0.00    +0.000 OA
BRANCH  13  15
ATOM     15  N   UNL     1       2.894   4.493  18.155  0.00  0.00    +0.000 NA
ATOM     16  C   UNL     1       1.469   4.063  17.986  0.00  0.00    +0.000 C 
ATOM     17  C   UNL     1       1.164   2.786  18.782  0.00  0.00    +0.000 C 
ATOM     18  O   UNL     1       2.067   1.724  18.439  0.00  0.00    +0.000 OA
ATOM     19  C   UNL     1       3.430   2.108  18.678  0.00  0.00    +0.000 C 
ATOM     20  C   UNL     1       3.800   3.337  17.842  0.00  0.00    +0.000 C 
ENDBRANCH  13  15
ENDBRANCH   6  13
ENDBRANCH   1  10
BRANCH   4  21
ATOM     21  S   UNL     1      -0.948  12.724  22.740  0.00  0.00    +0.000 S 
BRANCH  21  22
ATOM     22  C   UNL     1      -1.001  13.532  21.101  0.00  0.00    +0.000 C 
BRANCH  22  23
ATOM     23  C   UNL     1      -2.030  12.908  20.205  0.00  0.00    +0.000 A 
ATOM     24  N   UNL     1      -1.751  12.301  19.071  0.00  0.00    +0.000 NA
ATOM     25  C   UNL     1      -2.920  11.914  18.438  0.00  0.00    +0.000 A 
ATOM     26  C   UNL     1      -3.004  11.287  17.179  0.00  0.00    +0.000 A 
ATOM     27  C   UNL     1      -4.255  10.972  16.642  0.00  0.00    +0.000 A 
ATOM     28  C   UNL     1      -5.418  11.265  17.348  0.00  0.00    +0.000 A 
ATOM     29  C   UNL     1      -5.360  11.875  18.606  0.00  0.00    +0.000 A 
ATOM     30  C   UNL     1      -4.098  12.194  19.132  0.00  0.00    +0.000 A 
ATOM     31  S   UNL     1      -3.697  12.949  20.626  0.00  0.00    +0.000 S 
ENDBRANCH  22  23
ENDBRANCH  21  22
ENDBRANCH   4  21
TORSDOF 6
ENDMDL
MODEL 4
REMARK VINA RESULT:      -8.4      2.648      3.478
REMARK  Name = 
REMARK  6 active torsions:
REMARK  status: ('A' for Active; 'I' for Inactive)
REMARK    1  A    between atoms: S_2  and  C_4
REMARK    2  A    between atoms: S_2  and  N_26
REMARK    3  A    between atoms: C_8  and  C_9
REMARK    4  A    between atoms: C_12  and  S_13
REMARK    5  A    between atoms: S_13  and  C_14
REMARK    6  A    between atoms: C_14  and  C_15
REMARK                            x       y       z     vdW  Elec       q    Type
REMARK                         _______ _______ _______ _____ _____    ______ ____
ROOT
ATOM      1  C   UNL     1       1.665   8.626  19.219  0.00  0.00    +0.000 A 
ATOM      2  N   UNL     1       2.075   9.377  18.213  0.00  0.00    +0.000 NA
ATOM      3  N   UNL     1       1.432  10.584  18.336  0.00  0.00    +0.000 NA
ATOM      4  C   UNL     1       0.659  10.496  19.398  0.00  0.00    +0.000 A 
ATOM      5  O   UNL     1       0.763   9.274  20.021  0.00  0.00    +0.000 OA
ENDROOT
BRANCH   1  10
ATOM      6  C   UNL     1       3.359   5.232  19.263  0.00  0.00    +0.000 A 
ATOM      7  C   UNL     1       2.679   4.614  20.317  0.00  0.00    +0.000 A 
ATOM      8  C   UNL     1       1.693   5.316  20.997  0.00  0.00    +0.000 A 
ATOM      9  C   UNL     1       1.389   6.625  20.617  0.00  0.00    +0.000 A 
ATOM     10  C   UNL     1       2.065   7.260  19.556  0.00  0.00    +0.000 A 
ATOM     11  C   UNL     1       3.065   6.551  18.877  0.00  0.00    +0.000 A 
BRANCH   6  13
ATOM     12  O   UNL     1       5.405   3.638  19.333  0.00  0.00    +0.000 OA
ATOM     13  S   UNL     1       4.537   4.255  18.355  0.00  0.00    +0.000 S 
ATOM     14  O   UNL     1       3.807   3.455  17.398  0.00  0.00    +0.000 OA
BRANCH  13  15
ATOM     15  N   UNL     1       5.447   5.421  17.503  0.00  0.00    +0.000 NA
ATOM     16  C   UNL     1       5.506   5.285  16.013  0.00  0.00    +0.000 C 
ATOM     17  C   UNL     1       6.530   4.225  15.580  0.00  0.00    +0.000 C 
ATOM     18  O   UNL     1       7.831   4.496  16.125  0.00  0.00    +0.000 OA
ATOM     19  C   UNL     1       7.789   4.547  17.560  0.00  0.00    +0.000 C 
ATOM     20  C   UNL     1       6.833   5.646  18.035  0.00  0.00    +0.000 C 
ENDBRANCH  13  15
ENDBRANCH   6  13
ENDBRANCH   1  10
BRANCH   4  21
ATOM     21  S   UNL     1      -0.352  11.787  19.967  0.00  0.00    +0.000 S 
BRANCH  21  22
ATOM     22  C   UNL     1      -1.352  12.104  18.469  0.00  0.00    +0.000 C 
BRANCH  22  23
ATOM     23  C   UNL     1      -2.823  12.031  18.757  0.00  0.00    +0.000 A 
ATOM     24  N   UNL     1      -3.388  12.520  19.840  0.00  0.00    +0.000 NA
ATOM     25  C   UNL     1      -4.738  12.215  19.852  0.00  0.00    +0.000 A 
ATOM     26  C   UNL     1      -5.644  12.534  20.882  0.00  0.00    +0.000 A 
ATOM     27  C   UNL     1      -6.981  12.141  20.778  0.00  0.00    +0.000 A 
ATOM     28  C   UNL     1      -7.425  11.446  19.658  0.00  0.00    +0.000 A 
ATOM     29  C   UNL     1      -6.548  11.129  18.615  0.00  0.00    +0.000 A 
ATOM     30  C   UNL     1      -5.205  11.522  18.734  0.00  0.00    +0.000 A 
ATOM     31  S   UNL     1      -3.895  11.276  17.645  0.00  0.00    +0.000 S 
ENDBRANCH  22  23
ENDBRANCH  21  22
ENDBRANCH   4  21
TORSDOF 6
ENDMDL
MODEL 5
REMARK VINA RESULT:      -8.4      7.670     11.759
REMARK  Name = 
REMARK  6 active torsions:
REMARK  status: ('A' for Active; 'I' for Inactive)
REMARK    1  A    between atoms: S_2  and  C_4
REMARK    2  A    between atoms: S_2  and  N_26
REMARK    3  A    between atoms: C_8  and  C_9
REMARK    4  A    between atoms: C_12  and  S_13
REMARK    5  A    between atoms: S_13  and  C_14
REMARK    6  A    between atoms: C_14  and  C_15
REMARK                            x       y       z     vdW  Elec       q    Type
REMARK                         _______ _______ _______ _____ _____    ______ ____
ROOT
ATOM      1  C   UNL     1       8.546   9.398  18.332  0.00  0.00    +0.000 A 
ATOM      2  N   UNL     1       7.881   9.203  17.208  0.00  0.00    +0.000 NA
ATOM      3  N   UNL     1       7.512   7.880  17.193  0.00  0.00    +0.000 NA
ATOM      4  C   UNL     1       7.984   7.342  18.298  0.00  0.00    +0.000 A 
ATOM      5  O   UNL     1       8.650   8.256  19.083  0.00  0.00    +0.000 OA
ENDROOT
BRANCH   1  10
ATOM      6  C   UNL     1       9.526  13.030  18.821  0.00  0.00    +0.000 A 
ATOM      7  C   UNL     1      10.387  12.923  19.918  0.00  0.00    +0.000 A 
ATOM      8  C   UNL     1      10.622  11.676  20.481  0.00  0.00    +0.000 A 
ATOM      9  C   UNL     1      10.002  10.546  19.943  0.00  0.00    +0.000 A 
ATOM     10  C   UNL     1       9.134  10.638  18.837  0.00  0.00    +0.000 A 
ATOM     11  C   UNL     1       8.893  11.899  18.276  0.00  0.00    +0.000 A 
BRANCH   6  13
ATOM     12  O   UNL     1      10.549  14.873  17.309  0.00  0.00    +0.000 OA
ATOM     13  S   UNL     1       9.343  14.632  18.069  0.00  0.00    +0.000 S 
ATOM     14  O   UNL     1       8.043  14.681  17.439  0.00  0.00    +0.000 OA
BRANCH  13  15
ATOM     15  N   UNL     1       9.338  15.698  19.402  0.00  0.00    +0.000 NA
ATOM     16  C   UNL     1       8.013  15.997  20.033  0.00  0.00    +0.000 C 
ATOM     17  C   UNL     1       7.230  17.050  19.236  0.00  0.00    +0.000 C 
ATOM     18  O   UNL     1       7.997  18.251  19.056  0.00  0.00    +0.000 OA
ATOM     19  C   UNL     1       9.233  17.976  18.378  0.00  0.00    +0.000 C 
ATOM     20  C   UNL     1      10.081  16.984  19.180  0.00  0.00    +0.000 C 
ENDBRANCH  13  15
ENDBRANCH   6  13
ENDBRANCH   1  10
BRANCH   4  21
ATOM     21  S   UNL     1       7.763   5.677  18.733  0.00  0.00    +0.000 S 
BRANCH  21  22
ATOM     22  C   UNL     1       6.615   5.145  17.414  0.00  0.00    +0.000 C 
BRANCH  22  23
ATOM     23  C   UNL     1       5.247   4.846  17.953  0.00  0.00    +0.000 A 
ATOM     24  N   UNL     1       4.696   5.486  18.963  0.00  0.00    +0.000 NA
ATOM     25  C   UNL     1       3.473   4.919  19.276  0.00  0.00    +0.000 A 
ATOM     26  C   UNL     1       2.631   5.313  20.334  0.00  0.00    +0.000 A 
ATOM     27  C   UNL     1       1.430   4.635  20.556  0.00  0.00    +0.000 A 
ATOM     28  C   UNL     1       1.055   3.579  19.730  0.00  0.00    +0.000 A 
ATOM     29  C   UNL     1       1.867   3.178  18.664  0.00  0.00    +0.000 A 
ATOM     30  C   UNL     1       3.076   3.862  18.456  0.00  0.00    +0.000 A 
ATOM     31  S   UNL     1       4.283   3.605  17.256  0.00  0.00    +0.000 S 
ENDBRANCH  22  23
ENDBRANCH  21  22
ENDBRANCH   4  21
TORSDOF 6
ENDMDL
MODEL 6
REMARK VINA RESULT:      -8.4      1.202      1.669
REMARK  Name = 
REMARK  6 active torsions:
REMARK  status: ('A' for Active; 'I' for Inactive)
REMARK    1  A    between atoms: S_2  and  C_4
REMARK    2  A    between atoms: S_2  and  N_26
REMARK    3  A    between atoms: C_8  and  C_9
REMARK    4  A    between atoms: C_12  and  S_13
REMARK    5  A    between atoms: S_13  and  C_14
REMARK    6  A    between atoms: C_14  and  C_15
REMARK                            x       y       z     vdW  Elec       q    Type
REMARK                         _______ _______ _______ _____ _____    ______ ____
ROOT
ATOM      1  C   UNL     1       0.849   9.367  21.390  0.00  0.00    +0.000 A 
ATOM      2  N   UNL     1       1.256   9.271  22.642  0.00  0.00    +0.000 NA
ATOM      3  N   UNL     1       0.416  10.060  23.390  0.00  0.00    +0.000 NA
ATOM      4  C   UNL     1      -0.443  10.601  22.551  0.00  0.00    +0.000 A 
ATOM      5  O   UNL     1      -0.234  10.195  21.253  0.00  0.00    +0.000 OA
ENDROOT
BRANCH   1  10
ATOM      6  C   UNL     1       2.574   6.933  19.046  0.00  0.00    +0.000 A 
ATOM      7  C   UNL     1       2.412   7.589  17.822  0.00  0.00    +0.000 A 
ATOM      8  C   UNL     1       1.738   8.803  17.783  0.00  0.00    +0.000 A 
ATOM      9  C   UNL     1       1.236   9.353  18.964  0.00  0.00    +0.000 A 
ATOM     10  C   UNL     1       1.392   8.704  20.205  0.00  0.00    +0.000 A 
ATOM     11  C   UNL     1       2.067   7.476  20.239  0.00  0.00    +0.000 A 
BRANCH   6  13
ATOM     12  O   UNL     1       3.518   4.920  17.710  0.00  0.00    +0.000 OA
ATOM     13  S   UNL     1       3.538   5.438  19.059  0.00  0.00    +0.000 S 
ATOM     14  O   UNL     1       4.786   5.719  19.730  0.00  0.00    +0.000 OA
BRANCH  13  15
ATOM     15  N   UNL     1       2.622   4.383  20.041  0.00  0.00    +0.000 NA
ATOM     16  C   UNL     1       3.267   3.094  20.445  0.00  0.00    +0.000 C 
ATOM     17  C   UNL     1       3.196   2.048  19.322  0.00  0.00    +0.000 C 
ATOM     18  O   UNL     1       1.845   1.834  18.887  0.00  0.00    +0.000 OA
ATOM     19  C   UNL     1       1.252   3.057  18.423  0.00  0.00    +0.000 C 
ATOM     20  C   UNL     1       1.233   4.106  19.539  0.00  0.00    +0.000 C 
ENDBRANCH  13  15
ENDBRANCH   6  13
ENDBRANCH   1  10
BRANCH   4  21
ATOM     21  S   UNL     1      -1.717  11.677  23.032  0.00  0.00    +0.000 S 
BRANCH  21  22
ATOM     22  C   UNL     1      -1.720  12.834  21.616  0.00  0.00    +0.000 C 
BRANCH  22  23
ATOM     23  C   UNL     1      -2.894  12.602  20.711  0.00  0.00    +0.000 A 
ATOM     24  N   UNL     1      -4.139  12.890  21.028  0.00  0.00    +0.000 NA
ATOM     25  C   UNL     1      -4.994  12.477  20.022  0.00  0.00    +0.000 A 
ATOM     26  C   UNL     1      -6.399  12.576  20.045  0.00  0.00    +0.000 A 
ATOM     27  C   UNL     1      -7.147  12.094  18.968  0.00  0.00    +0.000 A 
ATOM     28  C   UNL     1      -6.513  11.525  17.868  0.00  0.00    +0.000 A 
ATOM     29  C   UNL     1      -5.118  11.428  17.815  0.00  0.00    +0.000 A 
ATOM     30  C   UNL     1      -4.377  11.908  18.907  0.00  0.00    +0.000 A 
ATOM     31  S   UNL     1      -2.672  11.923  19.147  0.00  0.00    +0.000 S 
ENDBRANCH  22  23
ENDBRANCH  21  22
ENDBRANCH   4  21
TORSDOF 6
ENDMDL
MODEL 7
REMARK VINA RESULT:      -8.3      7.649     11.789
REMARK  Name = 
REMARK  6 active torsions:
REMARK  status: ('A' for Active; 'I' for Inactive)
REMARK    1  A    between atoms: S_2  and  C_4
REMARK    2  A    between atoms: S_2  and  N_26
REMARK    3  A    between atoms: C_8  and  C_9
REMARK    4  A    between atoms: C_12  and  S_13
REMARK    5  A    between atoms: S_13  and  C_14
REMARK    6  A    between atoms: C_14  and  C_15
REMARK                            x       y       z     vdW  Elec       q    Type
REMARK                         _______ _______ _______ _____ _____    ______ ____
ROOT
ATOM      1  C   UNL     1       8.164   8.719  18.130  0.00  0.00    +0.000 A 
ATOM      2  N   UNL     1       7.271   8.738  17.158  0.00  0.00    +0.000 NA
ATOM      3  N   UNL     1       6.919   7.432  16.921  0.00  0.00    +0.000 NA
ATOM      4  C   UNL     1       7.626   6.693  17.750  0.00  0.00    +0.000 A 
ATOM      5  O   UNL     1       8.439   7.448  18.563  0.00  0.00    +0.000 OA
ENDROOT
BRANCH   1  10
ATOM      6  C   UNL     1      10.161  11.880  18.773  0.00  0.00    +0.000 A 
ATOM      7  C   UNL     1      10.115  11.939  20.170  0.00  0.00    +0.000 A 
ATOM      8  C   UNL     1       9.428  10.957  20.871  0.00  0.00    +0.000 A 
ATOM      9  C   UNL     1       8.798   9.923  20.176  0.00  0.00    +0.000 A 
ATOM     10  C   UNL     1       8.837   9.850  18.769  0.00  0.00    +0.000 A 
ATOM     11  C   UNL     1       9.525  10.846  18.064  0.00  0.00    +0.000 A 
BRANCH   6  13
ATOM     12  O   UNL     1      12.330  13.302  18.727  0.00  0.00    +0.000 OA
ATOM     13  S   UNL     1      11.143  13.099  17.928  0.00  0.00    +0.000 S 
ATOM     14  O   UNL     1      11.237  12.709  16.539  0.00  0.00    +0.000 OA
BRANCH  13  15
ATOM     15  N   UNL     1      10.193  14.514  18.029  0.00  0.00    +0.000 NA
ATOM     16  C   UNL     1      10.384  15.542  16.957  0.00  0.00    +0.000 C 
ATOM     17  C   UNL     1      11.628  16.405  17.214  0.00  0.00    +0.000 C 
ATOM     18  O   UNL     1      11.586  17.016  18.513  0.00  0.00    +0.000 OA
ATOM     19  C   UNL     1      11.483  16.024  19.547  0.00  0.00    +0.000 C 
ATOM     20  C   UNL     1      10.212  15.188  19.371  0.00  0.00    +0.000 C 
ENDBRANCH  13  15
ENDBRANCH   6  13
ENDBRANCH   1  10
BRANCH   4  21
ATOM     21  S   UNL     1       7.519   4.962  17.832  0.00  0.00    +0.000 S 
BRANCH  21  22
ATOM     22  C   UNL     1       5.904   4.696  17.018  0.00  0.00    +0.000 C 
BRANCH  22  23
ATOM     23  C   UNL     1       4.808   4.466  18.017  0.00  0.00    +0.000 A 
ATOM     24  N   UNL     1       4.873   3.586  18.994  0.00  0.00    +0.000 NA
ATOM     25  C   UNL     1       3.674   3.551  19.684  0.00  0.00    +0.000 A 
ATOM     26  C   UNL     1       3.366   2.690  20.755  0.00  0.00    +0.000 A 
ATOM     27  C   UNL     1       2.102   2.742  21.348  0.00  0.00    +0.000 A 
ATOM     28  C   UNL     1       1.148   3.647  20.894  0.00  0.00    +0.000 A 
ATOM     29  C   UNL     1       1.434   4.523  19.841  0.00  0.00    +0.000 A 
ATOM     30  C   UNL     1       2.705   4.456  19.247  0.00  0.00    +0.000 A 
ATOM     31  S   UNL     1       3.351   5.376  17.943  0.00  0.00    +0.000 S 
ENDBRANCH  22  23
ENDBRANCH  21  22
ENDBRANCH   4  21
TORSDOF 6
ENDMDL
MODEL 8
REMARK VINA RESULT:      -8.2      7.583     11.601
REMARK  Name = 
REMARK  6 active torsions:
REMARK  status: ('A' for Active; 'I' for Inactive)
REMARK    1  A    between atoms: S_2  and  C_4
REMARK    2  A    between atoms: S_2  and  N_26
REMARK    3  A    between atoms: C_8  and  C_9
REMARK    4  A    between atoms: C_12  and  S_13
REMARK    5  A    between atoms: S_13  and  C_14
REMARK    6  A    between atoms: C_14  and  C_15
REMARK                            x       y       z     vdW  Elec       q    Type
REMARK                         _______ _______ _______ _____ _____    ______ ____
ROOT
ATOM      1  C   UNL     1       8.357   9.223  18.230  0.00  0.00    +0.000 A 
ATOM      2  N   UNL     1       7.587   9.018  17.177  0.00  0.00    +0.000 NA
ATOM      3  N   UNL     1       7.279   7.680  17.169  0.00  0.00    +0.000 NA
ATOM      4  C   UNL     1       7.888   7.145  18.207  0.00  0.00    +0.000 A 
ATOM      5  O   UNL     1       8.590   8.074  18.939  0.00  0.00    +0.000 OA
ENDROOT
BRANCH   1  10
ATOM      6  C   UNL     1       9.178  12.892  18.739  0.00  0.00    +0.000 A 
ATOM      7  C   UNL     1      10.198  12.801  19.691  0.00  0.00    +0.000 A 
ATOM      8  C   UNL     1      10.590  11.552  20.155  0.00  0.00    +0.000 A 
ATOM      9  C   UNL     1       9.966  10.405  19.661  0.00  0.00    +0.000 A 
ATOM     10  C   UNL     1       8.937  10.480  18.701  0.00  0.00    +0.000 A 
ATOM     11  C   UNL     1       8.540  11.742  18.241  0.00  0.00    +0.000 A 
BRANCH   6  13
ATOM     12  O   UNL     1       9.994  15.010  17.483  0.00  0.00    +0.000 OA
ATOM     13  S   UNL     1       8.788  14.505  18.099  0.00  0.00    +0.000 S 
ATOM     14  O   UNL     1       7.557  14.399  17.348  0.00  0.00    +0.000 OA
BRANCH  13  15
ATOM     15  N   UNL     1       8.487  15.428  19.503  0.00  0.00    +0.000 NA
ATOM     16  C   UNL     1       7.057  15.741  19.821  0.00  0.00    +0.000 C 
ATOM     17  C   UNL     1       6.534  16.916  18.982  0.00  0.00    +0.000 C 
ATOM     18  O   UNL     1       7.361  18.080  19.133  0.00  0.00    +0.000 OA
ATOM     19  C   UNL     1       8.718  17.801  18.751  0.00  0.00    +0.000 C 
ATOM     20  C   UNL     1       9.305  16.682  19.616  0.00  0.00    +0.000 C 
ENDBRANCH  13  15
ENDBRANCH   6  13
ENDBRANCH   1  10
BRANCH   4  21
ATOM     21  S   UNL     1       7.789   5.463  18.623  0.00  0.00    +0.000 S 
BRANCH  21  22
ATOM     22  C   UNL     1       6.406   4.941  17.546  0.00  0.00    +0.000 C 
BRANCH  22  23
ATOM     23  C   UNL     1       5.163   4.656  18.336  0.00  0.00    +0.000 A 
ATOM     24  N   UNL     1       4.702   3.447  18.577  0.00  0.00    +0.000 NA
ATOM     25  C   UNL     1       3.495   3.522  19.251  0.00  0.00    +0.000 A 
ATOM     26  C   UNL     1       2.692   2.427  19.624  0.00  0.00    +0.000 A 
ATOM     27  C   UNL     1       1.478   2.647  20.280  0.00  0.00    +0.000 A 
ATOM     28  C   UNL     1       1.063   3.942  20.577  0.00  0.00    +0.000 A 
ATOM     29  C   UNL     1       1.850   5.045  20.230  0.00  0.00    +0.000 A 
ATOM     30  C   UNL     1       3.063   4.812  19.563  0.00  0.00    +0.000 A 
ATOM     31  S   UNL     1       4.233   5.942  18.999  0.00  0.00    +0.000 S 
ENDBRANCH  22  23
ENDBRANCH  21  22
ENDBRANCH   4  21
TORSDOF 6
ENDMDL
MODEL 9
REMARK VINA RESULT:      -8.2      3.593      9.989
REMARK  Name = 
REMARK  6 active torsions:
REMARK  status: ('A' for Active; 'I' for Inactive)
REMARK    1  A    between atoms: S_2  and  C_4
REMARK    2  A    between atoms: S_2  and  N_26
REMARK    3  A    between atoms: C_8  and  C_9
REMARK    4  A    between atoms: C_12  and  S_13
REMARK    5  A    between atoms: S_13  and  C_14
REMARK    6  A    between atoms: C_14  and  C_15
REMARK                            x       y       z     vdW  Elec       q    Type
REMARK                         _______ _______ _______ _____ _____    ______ ____
ROOT
ATOM      1  C   UNL     1       2.017   5.954  19.930  0.00  0.00    +0.000 A 
ATOM      2  N   UNL     1       2.301   5.530  21.148  0.00  0.00    +0.000 NA
ATOM      3  N   UNL     1       2.282   4.157  21.102  0.00  0.00    +0.000 NA
ATOM      4  C   UNL     1       1.974   3.824  19.866  0.00  0.00    +0.000 A 
ATOM      5  O   UNL     1       1.800   4.922  19.055  0.00  0.00    +0.000 OA
ENDROOT
BRANCH   1  10
ATOM      6  C   UNL     1       1.281   9.660  19.589  0.00  0.00    +0.000 A 
ATOM      7  C   UNL     1       1.827   9.919  18.329  0.00  0.00    +0.000 A 
ATOM      8  C   UNL     1       2.431   8.889  17.621  0.00  0.00    +0.000 A 
ATOM      9  C   UNL     1       2.481   7.608  18.174  0.00  0.00    +0.000 A 
ATOM     10  C   UNL     1       1.934   7.330  19.443  0.00  0.00    +0.000 A 
ATOM     11  C   UNL     1       1.332   8.374  20.156  0.00  0.00    +0.000 A 
BRANCH   6  13
ATOM     12  O   UNL     1      -0.976  10.840  20.080  0.00  0.00    +0.000 OA
ATOM     13  S   UNL     1       0.424  10.987  20.408  0.00  0.00    +0.000 S 
ATOM     14  O   UNL     1       0.867  11.021  21.783  0.00  0.00    +0.000 OA
BRANCH  13  15
ATOM     15  N   UNL     1       1.007  12.383  19.617  0.00  0.00    +0.000 NA
ATOM     16  C   UNL     1       1.961  13.251  20.378  0.00  0.00    +0.000 C 
ATOM     17  C   UNL     1       1.228  14.165  21.371  0.00  0.00    +0.000 C 
ATOM     18  O   UNL     1       0.224  14.955  20.715  0.00  0.00    +0.000 OA
ATOM     19  C   UNL     1      -0.738  14.120  20.052  0.00  0.00    +0.000 C 
ATOM     20  C   UNL     1      -0.057  13.243  18.997  0.00  0.00    +0.000 C 
ENDBRANCH  13  15
ENDBRANCH   6  13
ENDBRANCH   1  10
BRANCH   4  21
ATOM     21  S   UNL     1       1.837   2.184  19.313  0.00  0.00    +0.000 S 
BRANCH  21  22
ATOM     22  C   UNL     1       3.603   1.768  19.086  0.00  0.00    +0.000 C 
BRANCH  22  23
ATOM     23  C   UNL     1       4.391   2.942  18.584  0.00  0.00    +0.000 A 
ATOM     24  N   UNL     1       5.345   3.538  19.269  0.00  0.00    +0.000 NA
ATOM     25  C   UNL     1       5.815   4.637  18.573  0.00  0.00    +0.000 A 
ATOM     26  C   UNL     1       6.797   5.539  19.027  0.00  0.00    +0.000 A 
ATOM     27  C   UNL     1       7.162   6.628  18.230  0.00  0.00    +0.000 A 
ATOM     28  C   UNL     1       6.569   6.820  16.987  0.00  0.00    +0.000 A 
ATOM     29  C   UNL     1       5.601   5.931  16.508  0.00  0.00    +0.000 A 
ATOM     30  C   UNL     1       5.236   4.846  17.320  0.00  0.00    +0.000 A 
ATOM     31  S   UNL     1       4.085   3.600  17.025  0.00  0.00    +0.000 S 
ENDBRANCH  22  23
ENDBRANCH  21  22
ENDBRANCH   4  21
TORSDOF 6
ENDMDL
