MODEL 1
REMARK VINA RESULT:      -7.2      0.000      0.000
REMARK  Name = 
REMARK  4 active torsions:
REMARK  status: ('A' for Active; 'I' for Inactive)
REMARK    1  A    between atoms: C_1  and  O_2
REMARK    2  A    between atoms: O_2  and  C_3
REMARK    3  A    between atoms: C_3  and  C_5
REMARK    4  A    between atoms: C_9  and  C_10
REMARK                            x       y       z     vdW  Elec       q    Type
REMARK                         _______ _______ _______ _____ _____    ______ ____
ROOT
ATOM      1  C   UNL     1       6.276   5.819  17.381  0.00  0.00    +0.000 C 
ATOM      2  C   UNL     1       5.127   5.580  18.035  0.00  0.00    +0.000 C 
ATOM      3  N   UNL     1       4.906   4.559  18.943  0.00  0.00    +0.000 N 
ATOM      4  C   UNL     1       3.680   3.883  18.911  0.00  0.00    +0.000 A 
ATOM      5  C   UNL     1       3.490   2.630  19.512  0.00  0.00    +0.000 A 
ATOM      6  C   UNL     1       4.560   1.913  20.290  0.00  0.00    +0.000 C 
ATOM      7  C   UNL     1       2.245   1.993  19.364  0.00  0.00    +0.000 A 
ATOM      8  C   UNL     1       1.194   2.606  18.675  0.00  0.00    +0.000 A 
ATOM      9  C   UNL     1       1.357   3.884  18.149  0.00  0.00    +0.000 A 
ATOM     10  C   UNL     1       2.592   4.509  18.285  0.00  0.00    +0.000 A 
ATOM     11  O   UNL     1       2.720   5.817  17.757  0.00  0.00    +0.000 OA
ATOM     12  C   UNL     1       3.964   6.441  17.642  0.00  0.00    +0.000 C 
ATOM     13  O   UNL     1       4.087   7.574  17.193  0.00  0.00    +0.000 OA
ATOM     14  H   UNL     1       5.720   3.951  19.065  0.00  0.00    +0.000 HD
ENDROOT
BRANCH   1  15
ATOM     15  C   UNL     1       7.406   4.888  17.538  0.00  0.00    +0.000 C 
ATOM     16  O   UNL     1       7.804   4.458  18.610  0.00  0.00    +0.000 OA
BRANCH  15  18
ATOM     17  C   UNL     1       6.890   4.700  15.283  0.00  0.00    +0.000 C 
ATOM     18  O   UNL     1       7.865   4.536  16.315  0.00  0.00    +0.000 OA
ENDBRANCH  15  18
ENDBRANCH   1  15
TORSDOF 2
ENDMDL
MODEL 2
REMARK VINA RESULT:      -7.1      2.049      2.739
REMARK  Name = 
REMARK  4 active torsions:
REMARK  status: ('A' for Active; 'I' for Inactive)
REMARK    1  A    between atoms: C_1  and  O_2
REMARK    2  A    between atoms: O_2  and  C_3
REMARK    3  A    between atoms: C_3  and  C_5
REMARK    4  A    between atoms: C_9  and  C_10
REMARK                            x       y       z     vdW  Elec       q    Type
REMARK                         _______ _______ _______ _____ _____    ______ ____
ROOT
ATOM      1  C   UNL     1       7.243   5.209  17.700  0.00  0.00    +0.000 C 
ATOM      2  C   UNL     1       5.961   5.062  17.327  0.00  0.00    +0.000 C 
ATOM      3  N   UNL     1       4.861   5.603  17.970  0.00  0.00    +0.000 N 
ATOM      4  C   UNL     1       3.706   4.822  18.097  0.00  0.00    +0.000 A 
ATOM      5  C   UNL     1       2.692   5.114  19.022  0.00  0.00    +0.000 A 
ATOM      6  C   UNL     1       2.718   6.315  19.929  0.00  0.00    +0.000 C 
ATOM      7  C   UNL     1       1.603   4.232  19.131  0.00  0.00    +0.000 A 
ATOM      8  C   UNL     1       1.496   3.107  18.307  0.00  0.00    +0.000 A 
ATOM      9  C   UNL     1       2.460   2.862  17.334  0.00  0.00    +0.000 A 
ATOM     10  C   UNL     1       3.543   3.729  17.234  0.00  0.00    +0.000 A 
ATOM     11  O   UNL     1       4.496   3.464  16.220  0.00  0.00    +0.000 OA
ATOM     12  C   UNL     1       5.722   4.131  16.176  0.00  0.00    +0.000 C 
ATOM     13  O   UNL     1       6.552   3.916  15.302  0.00  0.00    +0.000 OA
ATOM     14  H   UNL     1       5.109   6.129  18.812  0.00  0.00    +0.000 HD
ENDROOT
BRANCH   1  15
ATOM     15  C   UNL     1       7.557   5.925  18.949  0.00  0.00    +0.000 C 
ATOM     16  O   UNL     1       7.236   5.543  20.065  0.00  0.00    +0.000 OA
BRANCH  15  18
ATOM     17  C   UNL     1       7.718   7.862  17.682  0.00  0.00    +0.000 C 
ATOM     18  O   UNL     1       8.313   7.009  18.663  0.00  0.00    +0.000 OA
ENDBRANCH  15  18
ENDBRANCH   1  15
TORSDOF 2
ENDMDL
MODEL 3
REMARK VINA RESULT:      -7.0      0.564      1.339
REMARK  Name = 
REMARK  4 active torsions:
REMARK  status: ('A' for Active; 'I' for Inactive)
REMARK    1  A    between atoms: C_1  and  O_2
REMARK    2  A    between atoms: O_2  and  C_3
REMARK    3  A    between atoms: C_3  and  C_5
REMARK    4  A    between atoms: C_9  and  C_10
REMARK                            x       y       z     vdW  Elec       q    Type
REMARK                         _______ _______ _______ _____ _____    ______ ____
ROOT
ATOM      1  C   UNL     1       6.123   5.821  17.367  0.00  0.00    +0.000 C 
ATOM      2  C   UNL     1       4.992   5.559  18.043  0.00  0.00    +0.000 C 
ATOM      3  N   UNL     1       4.796   4.508  18.923  0.00  0.00    +0.000 N 
ATOM      4  C   UNL     1       3.570   3.832  18.900  0.00  0.00    +0.000 A 
ATOM      5  C   UNL     1       3.396   2.560  19.465  0.00  0.00    +0.000 A 
ATOM      6  C   UNL     1       4.487   1.818  20.191  0.00  0.00    +0.000 C 
ATOM      7  C   UNL     1       2.149   1.926  19.329  0.00  0.00    +0.000 A 
ATOM      8  C   UNL     1       1.080   2.559  18.688  0.00  0.00    +0.000 A 
ATOM      9  C   UNL     1       1.228   3.854  18.200  0.00  0.00    +0.000 A 
ATOM     10  C   UNL     1       2.465   4.476  18.324  0.00  0.00    +0.000 A 
ATOM     11  O   UNL     1       2.578   5.801  17.836  0.00  0.00    +0.000 OA
ATOM     12  C   UNL     1       3.818   6.430  17.709  0.00  0.00    +0.000 C 
ATOM     13  O   UNL     1       3.929   7.578  17.294  0.00  0.00    +0.000 OA
ATOM     14  H   UNL     1       5.613   3.898  19.003  0.00  0.00    +0.000 HD
ENDROOT
BRANCH   1  15
ATOM     15  C   UNL     1       7.258   4.887  17.464  0.00  0.00    +0.000 C 
ATOM     16  O   UNL     1       7.843   4.407  16.504  0.00  0.00    +0.000 OA
BRANCH  15  18
ATOM     17  C   UNL     1       8.116   5.902  19.366  0.00  0.00    +0.000 C 
ATOM     18  O   UNL     1       7.585   4.719  18.766  0.00  0.00    +0.000 OA
ENDBRANCH  15  18
ENDBRANCH   1  15
TORSDOF 2
ENDMDL
MODEL 4
REMARK VINA RESULT:      -6.9      2.075      3.154
REMARK  Name = 
REMARK  4 active torsions:
REMARK  status: ('A' for Active; 'I' for Inactive)
REMARK    1  A    between atoms: C_1  and  O_2
REMARK    2  A    between atoms: O_2  and  C_3
REMARK    3  A    between atoms: C_3  and  C_5
REMARK    4  A    between atoms: C_9  and  C_10
REMARK                            x       y       z     vdW  Elec       q    Type
REMARK                         _______ _______ _______ _____ _____    ______ ____
ROOT
ATOM      1  C   UNL     1       7.226   5.763  16.769  0.00  0.00    +0.000 C 
ATOM      2  C   UNL     1       5.944   5.428  16.545  0.00  0.00    +0.000 C 
ATOM      3  N   UNL     1       4.835   6.031  17.114  0.00  0.00    +0.000 N 
ATOM      4  C   UNL     1       3.767   5.224  17.523  0.00  0.00    +0.000 A 
ATOM      5  C   UNL     1       2.783   5.667  18.420  0.00  0.00    +0.000 A 
ATOM      6  C   UNL     1       2.748   7.059  18.991  0.00  0.00    +0.000 C 
ATOM      7  C   UNL     1       1.789   4.762  18.831  0.00  0.00    +0.000 A 
ATOM      8  C   UNL     1       1.742   3.459  18.328  0.00  0.00    +0.000 A 
ATOM      9  C   UNL     1       2.669   3.045  17.376  0.00  0.00    +0.000 A 
ATOM     10  C   UNL     1       3.659   3.936  16.979  0.00  0.00    +0.000 A 
ATOM     11  O   UNL     1       4.575   3.492  15.993  0.00  0.00    +0.000 OA
ATOM     12  C   UNL     1       5.729   4.217  15.688  0.00  0.00    +0.000 C 
ATOM     13  O   UNL     1       6.526   3.847  14.834  0.00  0.00    +0.000 OA
ATOM     14  H   UNL     1       5.080   6.774  17.774  0.00  0.00    +0.000 HD
ENDROOT
BRANCH   1  15
ATOM     15  C   UNL     1       7.540   6.797  17.769  0.00  0.00    +0.000 C 
ATOM     16  O   UNL     1       8.002   6.570  18.877  0.00  0.00    +0.000 OA
BRANCH  15  18
ATOM     17  C   UNL     1       8.057   9.057  17.871  0.00  0.00    +0.000 C 
ATOM     18  O   UNL     1       7.311   8.018  17.233  0.00  0.00    +0.000 OA
ENDBRANCH  15  18
ENDBRANCH   1  15
TORSDOF 2
ENDMDL
MODEL 5
REMARK VINA RESULT:      -6.8      3.039      5.403
REMARK  Name = 
REMARK  4 active torsions:
REMARK  status: ('A' for Active; 'I' for Inactive)
REMARK    1  A    between atoms: C_1  and  O_2
REMARK    2  A    between atoms: O_2  and  C_3
REMARK    3  A    between atoms: C_3  and  C_5
REMARK    4  A    between atoms: C_9  and  C_10
REMARK                            x       y       z     vdW  Elec       q    Type
REMARK                         _______ _______ _______ _____ _____    ______ ____
ROOT
ATOM      1  C   UNL     1       2.945   3.568  19.958  0.00  0.00    +0.000 C 
ATOM      2  C   UNL     1       3.248   4.850  19.698  0.00  0.00    +0.000 C 
ATOM      3  N   UNL     1       2.750   5.955  20.367  0.00  0.00    +0.000 N 
ATOM      4  C   UNL     1       2.409   7.093  19.626  0.00  0.00    +0.000 A 
ATOM      5  C   UNL     1       1.576   8.103  20.128  0.00  0.00    +0.000 A 
ATOM      6  C   UNL     1       1.007   8.092  21.522  0.00  0.00    +0.000 C 
ATOM      7  C   UNL     1       1.227   9.172  19.285  0.00  0.00    +0.000 A 
ATOM      8  C   UNL     1       1.733   9.265  17.985  0.00  0.00    +0.000 A 
ATOM      9  C   UNL     1       2.625   8.306  17.514  0.00  0.00    +0.000 A 
ATOM     10  C   UNL     1       2.959   7.242  18.344  0.00  0.00    +0.000 A 
ATOM     11  O   UNL     1       3.885   6.294  17.843  0.00  0.00    +0.000 OA
ATOM     12  C   UNL     1       4.118   5.082  18.498  0.00  0.00    +0.000 C 
ATOM     13  O   UNL     1       4.920   4.257  18.080  0.00  0.00    +0.000 OA
ATOM     14  H   UNL     1       2.076   5.709  21.096  0.00  0.00    +0.000 HD
ENDROOT
BRANCH   1  15
ATOM     15  C   UNL     1       1.927   3.256  20.976  0.00  0.00    +0.000 C 
ATOM     16  O   UNL     1       2.125   3.274  22.182  0.00  0.00    +0.000 OA
BRANCH  15  18
ATOM     17  C   UNL     1       0.883   2.450  19.067  0.00  0.00    +0.000 C 
ATOM     18  O   UNL     1       0.741   3.031  20.364  0.00  0.00    +0.000 OA
ENDBRANCH  15  18
ENDBRANCH   1  15
TORSDOF 2
ENDMDL
MODEL 6
REMARK VINA RESULT:      -6.8      1.735      1.793
REMARK  Name = 
REMARK  4 active torsions:
REMARK  status: ('A' for Active; 'I' for Inactive)
REMARK    1  A    between atoms: C_1  and  O_2
REMARK    2  A    between atoms: O_2  and  C_3
REMARK    3  A    between atoms: C_3  and  C_5
REMARK    4  A    between atoms: C_9  and  C_10
REMARK                            x       y       z     vdW  Elec       q    Type
REMARK                         _______ _______ _______ _____ _____    ______ ____
ROOT
ATOM      1  C   UNL     1       4.582   6.155  16.706  0.00  0.00    +0.000 C 
ATOM      2  C   UNL     1       4.108   5.966  17.949  0.00  0.00    +0.000 C 
ATOM      3  N   UNL     1       4.390   4.887  18.770  0.00  0.00    +0.000 N 
ATOM      4  C   UNL     1       3.355   4.340  19.538  0.00  0.00    +0.000 A 
ATOM      5  C   UNL     1       3.430   3.059  20.105  0.00  0.00    +0.000 A 
ATOM      6  C   UNL     1       4.638   2.170  19.989  0.00  0.00    +0.000 C 
ATOM      7  C   UNL     1       2.312   2.562  20.799  0.00  0.00    +0.000 A 
ATOM      8  C   UNL     1       1.161   3.337  20.969  0.00  0.00    +0.000 A 
ATOM      9  C   UNL     1       1.118   4.638  20.477  0.00  0.00    +0.000 A 
ATOM     10  C   UNL     1       2.219   5.125  19.781  0.00  0.00    +0.000 A 
ATOM     11  O   UNL     1       2.152   6.460  19.311  0.00  0.00    +0.000 OA
ATOM     12  C   UNL     1       3.098   6.969  18.418  0.00  0.00    +0.000 C 
ATOM     13  O   UNL     1       3.055   8.123  18.010  0.00  0.00    +0.000 OA
ATOM     14  H   UNL     1       4.997   4.195  18.325  0.00  0.00    +0.000 HD
ENDROOT
BRANCH   1  15
ATOM     15  C   UNL     1       5.406   5.109  16.078  0.00  0.00    +0.000 C 
ATOM     16  O   UNL     1       5.221   3.908  16.212  0.00  0.00    +0.000 OA
BRANCH  15  18
ATOM     17  C   UNL     1       6.981   4.762  14.409  0.00  0.00    +0.000 C 
ATOM     18  O   UNL     1       6.332   5.690  15.281  0.00  0.00    +0.000 OA
ENDBRANCH  15  18
ENDBRANCH   1  15
TORSDOF 2
ENDMDL
MODEL 7
REMARK VINA RESULT:      -6.8      2.280      3.682
REMARK  Name = 
REMARK  4 active torsions:
REMARK  status: ('A' for Active; 'I' for Inactive)
REMARK    1  A    between atoms: C_1  and  O_2
REMARK    2  A    between atoms: O_2  and  C_3
REMARK    3  A    between atoms: C_3  and  C_5
REMARK    4  A    between atoms: C_9  and  C_10
REMARK                            x       y       z     vdW  Elec       q    Type
REMARK                         _______ _______ _______ _____ _____    ______ ____
ROOT
ATOM      1  C   UNL     1       5.491   4.086  16.676  0.00  0.00    +0.000 C 
ATOM      2  C   UNL     1       4.286   4.307  17.227  0.00  0.00    +0.000 C 
ATOM      3  N   UNL     1       3.619   5.520  17.261  0.00  0.00    +0.000 N 
ATOM      4  C   UNL     1       2.933   5.877  18.428  0.00  0.00    +0.000 A 
ATOM      5  C   UNL     1       2.546   7.196  18.706  0.00  0.00    +0.000 A 
ATOM      6  C   UNL     1       2.781   8.346  17.762  0.00  0.00    +0.000 C 
ATOM      7  C   UNL     1       1.927   7.473  19.938  0.00  0.00    +0.000 A 
ATOM      8  C   UNL     1       1.654   6.456  20.857  0.00  0.00    +0.000 A 
ATOM      9  C   UNL     1       1.964   5.135  20.547  0.00  0.00    +0.000 A 
ATOM     10  C   UNL     1       2.586   4.864  19.333  0.00  0.00    +0.000 A 
ATOM     11  O   UNL     1       2.870   3.507  19.039  0.00  0.00    +0.000 OA
ATOM     12  C   UNL     1       3.684   3.147  17.962  0.00  0.00    +0.000 C 
ATOM     13  O   UNL     1       3.932   1.979  17.693  0.00  0.00    +0.000 OA
ATOM     14  H   UNL     1       4.153   6.282  16.836  0.00  0.00    +0.000 HD
ENDROOT
BRANCH   1  15
ATOM     15  C   UNL     1       6.255   5.218  16.125  0.00  0.00    +0.000 C 
ATOM     16  O   UNL     1       5.845   5.972  15.254  0.00  0.00    +0.000 OA
BRANCH  15  18
ATOM     17  C   UNL     1       7.443   6.413  17.720  0.00  0.00    +0.000 C 
ATOM     18  O   UNL     1       7.428   5.328  16.790  0.00  0.00    +0.000 OA
ENDBRANCH  15  18
ENDBRANCH   1  15
TORSDOF 2
ENDMDL
MODEL 8
REMARK VINA RESULT:      -6.8      1.967      2.727
REMARK  Name = 
REMARK  4 active torsions:
REMARK  status: ('A' for Active; 'I' for Inactive)
REMARK    1  A    between atoms: C_1  and  O_2
REMARK    2  A    between atoms: O_2  and  C_3
REMARK    3  A    between atoms: C_3  and  C_5
REMARK    4  A    between atoms: C_9  and  C_10
REMARK                            x       y       z     vdW  Elec       q    Type
REMARK                         _______ _______ _______ _____ _____    ______ ____
ROOT
ATOM      1  C   UNL     1       7.227   5.043  16.642  0.00  0.00    +0.000 C 
ATOM      2  C   UNL     1       6.425   4.693  17.662  0.00  0.00    +0.000 C 
ATOM      3  N   UNL     1       5.344   3.831  17.586  0.00  0.00    +0.000 N 
ATOM      4  C   UNL     1       4.182   4.147  18.299  0.00  0.00    +0.000 A 
ATOM      5  C   UNL     1       2.937   3.565  18.015  0.00  0.00    +0.000 A 
ATOM      6  C   UNL     1       2.735   2.514  16.957  0.00  0.00    +0.000 C 
ATOM      7  C   UNL     1       1.810   3.999  18.734  0.00  0.00    +0.000 A 
ATOM      8  C   UNL     1       1.920   4.955  19.748  0.00  0.00    +0.000 A 
ATOM      9  C   UNL     1       3.167   5.472  20.086  0.00  0.00    +0.000 A 
ATOM     10  C   UNL     1       4.280   5.052  19.366  0.00  0.00    +0.000 A 
ATOM     11  O   UNL     1       5.538   5.581  19.748  0.00  0.00    +0.000 OA
ATOM     12  C   UNL     1       6.677   5.401  18.959  0.00  0.00    +0.000 C 
ATOM     13  O   UNL     1       7.771   5.847  19.280  0.00  0.00    +0.000 OA
ATOM     14  H   UNL     1       5.177   3.483  16.638  0.00  0.00    +0.000 HD
ENDROOT
BRANCH   1  15
ATOM     15  C   UNL     1       6.919   4.568  15.282  0.00  0.00    +0.000 C 
ATOM     16  O   UNL     1       6.208   3.607  15.029  0.00  0.00    +0.000 OA
BRANCH  15  18
ATOM     17  C   UNL     1       7.453   4.893  13.048  0.00  0.00    +0.000 C 
ATOM     18  O   UNL     1       7.479   5.407  14.381  0.00  0.00    +0.000 OA
ENDBRANCH  15  18
ENDBRANCH   1  15
TORSDOF 2
ENDMDL
MODEL 9
REMARK VINA RESULT:      -6.8      0.931      1.097
REMARK  Name = 
REMARK  4 active torsions:
REMARK  status: ('A' for Active; 'I' for Inactive)
REMARK    1  A    between atoms: C_1  and  O_2
REMARK    2  A    between atoms: O_2  and  C_3
REMARK    3  A    between atoms: C_3  and  C_5
REMARK    4  A    between atoms: C_9  and  C_10
REMARK                            x       y       z     vdW  Elec       q    Type
REMARK                         _______ _______ _______ _____ _____    ______ ____
ROOT
ATOM      1  C   UNL     1       5.792   5.562  16.577  0.00  0.00    +0.000 C 
ATOM      2  C   UNL     1       4.858   5.279  17.500  0.00  0.00    +0.000 C 
ATOM      3  N   UNL     1       4.745   4.092  18.205  0.00  0.00    +0.000 N 
ATOM      4  C   UNL     1       3.469   3.561  18.428  0.00  0.00    +0.000 A 
ATOM      5  C   UNL     1       3.259   2.223  18.792  0.00  0.00    +0.000 A 
ATOM      6  C   UNL     1       4.376   1.242  19.027  0.00  0.00    +0.000 C 
ATOM      7  C   UNL     1       1.938   1.759  18.921  0.00  0.00    +0.000 A 
ATOM      8  C   UNL     1       0.848   2.615  18.741  0.00  0.00    +0.000 A 
ATOM      9  C   UNL     1       1.058   3.962  18.461  0.00  0.00    +0.000 A 
ATOM     10  C   UNL     1       2.364   4.418  18.321  0.00  0.00    +0.000 A 
ATOM     11  O   UNL     1       2.545   5.798  18.056  0.00  0.00    +0.000 OA
ATOM     12  C   UNL     1       3.788   6.313  17.680  0.00  0.00    +0.000 C 
ATOM     13  O   UNL     1       3.959   7.505  17.454  0.00  0.00    +0.000 OA
ATOM     14  H   UNL     1       5.449   3.400  17.936  0.00  0.00    +0.000 HD
ENDROOT
BRANCH   1  15
ATOM     15  C   UNL     1       6.752   4.520  16.175  0.00  0.00    +0.000 C 
ATOM     16  O   UNL     1       7.911   4.461  16.561  0.00  0.00    +0.000 OA
BRANCH  15  18
ATOM     17  C   UNL     1       6.203   3.937  13.998  0.00  0.00    +0.000 C 
ATOM     18  O   UNL     1       6.125   3.617  15.388  0.00  0.00    +0.000 OA
ENDBRANCH  15  18
ENDBRANCH   1  15
TORSDOF 2
ENDMDL
