MODEL 1
REMARK VINA RESULT:      -7.9      0.000      0.000
REMARK  Name = 
REMARK  4 active torsions:
REMARK  status: ('A' for Active; 'I' for Inactive)
REMARK    1  A    between atoms: C_1  and  C_2
REMARK    2  A    between atoms: C_2  and  C_3
REMARK    3  A    between atoms: C_2  and  C_21
REMARK    4  A    between atoms: C_14  and  C_15
REMARK                            x       y       z     vdW  Elec       q    Type
REMARK                         _______ _______ _______ _____ _____    ______ ____
ROOT
ATOM      1  C   UNL     1       2.468   7.330  18.711  0.00  0.00    +0.000 C 
ATOM      2  O   UNL     1       1.846   8.071  17.947  0.00  0.00    +0.000 OA
ATOM      3  N   UNL     1       3.680   6.746  18.329  0.00  0.00    +0.000 N 
ATOM      4  C   UNL     1       4.254   7.145  17.020  0.00  0.00    +0.000 C 
ATOM      5  C   UNL     1       5.283   6.182  16.449  0.00  0.00    +0.000 A 
ATOM      6  C   UNL     1       5.376   5.929  15.076  0.00  0.00    +0.000 A 
ATOM      7  C   UNL     1       6.261   4.958  14.594  0.00  0.00    +0.000 A 
ATOM      8  C   UNL     1       7.091   4.263  15.474  0.00  0.00    +0.000 A 
ATOM      9  C   UNL     1       7.041   4.535  16.837  0.00  0.00    +0.000 A 
ATOM     10  C   UNL     1       6.129   5.478  17.325  0.00  0.00    +0.000 A 
ATOM     11  C   UNL     1       5.920   5.688  18.797  0.00  0.00    +0.000 C 
ATOM     12  C   UNL     1       4.404   5.718  19.106  0.00  0.00    +0.000 C 
ENDROOT
BRANCH  12  13
ATOM     13  C   UNL     1       3.770   4.330  18.946  0.00  0.00    +0.000 A 
ATOM     14  C   UNL     1       4.121   3.297  19.830  0.00  0.00    +0.000 A 
ATOM     15  C   UNL     1       3.620   2.005  19.649  0.00  0.00    +0.000 A 
ATOM     16  C   UNL     1       2.776   1.715  18.573  0.00  0.00    +0.000 A 
ATOM     17  C   UNL     1       2.419   2.725  17.692  0.00  0.00    +0.000 A 
ATOM     18  C   UNL     1       2.896   4.021  17.889  0.00  0.00    +0.000 A 
ENDBRANCH  12  13
BRANCH   1  20
ATOM     19  C   UNL     1       1.304   5.783  20.355  0.00  0.00    +0.000 C 
ATOM     20  C   UNL     1       1.974   7.154  20.170  0.00  0.00    +0.000 C 
BRANCH  20  21
ATOM     21  C   UNL     1       0.993   8.309  20.552  0.00  0.00    +0.000 C 
ATOM     22  C   UNL     1       1.693   9.679  20.556  0.00  0.00    +0.000 C 
ATOM     23  C   UNL     1       0.814  10.777  21.137  0.00  0.00    +0.000 C 
ATOM     24  O   UNL     1       0.386  10.425  22.448  0.00  0.00    +0.000 OA
ATOM     25  C   UNL     1      -0.445   9.268  22.430  0.00  0.00    +0.000 C 
ATOM     26  C   UNL     1       0.329   8.057  21.923  0.00  0.00    +0.000 C 
ENDBRANCH  20  21
ENDBRANCH   1  20
TORSDOF 3
ENDMDL
MODEL 2
REMARK VINA RESULT:      -7.8      0.500      1.067
REMARK  Name = 
REMARK  4 active torsions:
REMARK  status: ('A' for Active; 'I' for Inactive)
REMARK    1  A    between atoms: C_1  and  C_2
REMARK    2  A    between atoms: C_2  and  C_3
REMARK    3  A    between atoms: C_2  and  C_21
REMARK    4  A    between atoms: C_14  and  C_15
REMARK                            x       y       z     vdW  Elec       q    Type
REMARK                         _______ _______ _______ _____ _____    ______ ____
ROOT
ATOM      1  C   UNL     1       2.524   7.114  18.816  0.00  0.00    +0.000 C 
ATOM      2  O   UNL     1       1.855   7.853  18.090  0.00  0.00    +0.000 OA
ATOM      3  N   UNL     1       3.742   6.581  18.384  0.00  0.00    +0.000 N 
ATOM      4  C   UNL     1       4.264   7.032  17.070  0.00  0.00    +0.000 C 
ATOM      5  C   UNL     1       5.306   6.119  16.445  0.00  0.00    +0.000 A 
ATOM      6  C   UNL     1       5.367   5.904  15.063  0.00  0.00    +0.000 A 
ATOM      7  C   UNL     1       6.268   4.975  14.531  0.00  0.00    +0.000 A 
ATOM      8  C   UNL     1       7.146   4.286  15.368  0.00  0.00    +0.000 A 
ATOM      9  C   UNL     1       7.127   4.522  16.739  0.00  0.00    +0.000 A 
ATOM     10  C   UNL     1       6.201   5.421  17.277  0.00  0.00    +0.000 A 
ATOM     11  C   UNL     1       6.028   5.587  18.760  0.00  0.00    +0.000 C 
ATOM     12  C   UNL     1       4.522   5.558  19.113  0.00  0.00    +0.000 C 
ENDROOT
BRANCH  12  13
ATOM     13  C   UNL     1       3.929   4.154  18.935  0.00  0.00    +0.000 A 
ATOM     14  C   UNL     1       4.430   3.085  19.694  0.00  0.00    +0.000 A 
ATOM     15  C   UNL     1       3.962   1.785  19.485  0.00  0.00    +0.000 A 
ATOM     16  C   UNL     1       3.002   1.524  18.504  0.00  0.00    +0.000 A 
ATOM     17  C   UNL     1       2.496   2.570  17.747  0.00  0.00    +0.000 A 
ATOM     18  C   UNL     1       2.941   3.873  17.975  0.00  0.00    +0.000 A 
ENDBRANCH  12  13
BRANCH   1  20
ATOM     19  C   UNL     1       1.014   5.780  20.362  0.00  0.00    +0.000 C 
ATOM     20  C   UNL     1       2.079   6.885  20.283  0.00  0.00    +0.000 C 
BRANCH  20  21
ATOM     21  C   UNL     1       1.545   8.217  20.902  0.00  0.00    +0.000 C 
ATOM     22  C   UNL     1       0.226   8.008  21.667  0.00  0.00    +0.000 C 
ATOM     23  C   UNL     1      -0.416   9.322  22.083  0.00  0.00    +0.000 C 
ATOM     24  O   UNL     1      -0.617  10.157  20.948  0.00  0.00    +0.000 OA
ATOM     25  C   UNL     1       0.621  10.532  20.353  0.00  0.00    +0.000 C 
ATOM     26  C   UNL     1       1.358   9.308  19.825  0.00  0.00    +0.000 C 
ENDBRANCH  20  21
ENDBRANCH   1  20
TORSDOF 3
ENDMDL
MODEL 3
REMARK VINA RESULT:      -7.7      0.442      1.037
REMARK  Name = 
REMARK  4 active torsions:
REMARK  status: ('A' for Active; 'I' for Inactive)
REMARK    1  A    between atoms: C_1  and  C_2
REMARK    2  A    between atoms: C_2  and  C_3
REMARK    3  A    between atoms: C_2  and  C_21
REMARK    4  A    between atoms: C_14  and  C_15
REMARK                            x       y       z     vdW  Elec       q    Type
REMARK                         _______ _______ _______ _____ _____    ______ ____
ROOT
ATOM      1  C   UNL     1       2.372   7.545  18.842  0.00  0.00    +0.000 C 
ATOM      2  O   UNL     1       1.823   8.332  18.067  0.00  0.00    +0.000 OA
ATOM      3  N   UNL     1       3.542   6.869  18.481  0.00  0.00    +0.000 N 
ATOM      4  C   UNL     1       4.170   7.224  17.184  0.00  0.00    +0.000 C 
ATOM      5  C   UNL     1       5.132   6.184  16.631  0.00  0.00    +0.000 A 
ATOM      6  C   UNL     1       5.231   5.925  15.259  0.00  0.00    +0.000 A 
ATOM      7  C   UNL     1       6.047   4.889  14.793  0.00  0.00    +0.000 A 
ATOM      8  C   UNL     1       6.805   4.132  15.686  0.00  0.00    +0.000 A 
ATOM      9  C   UNL     1       6.750   4.407  17.049  0.00  0.00    +0.000 A 
ATOM     10  C   UNL     1       5.905   5.417  17.521  0.00  0.00    +0.000 A 
ATOM     11  C   UNL     1       5.685   5.642  18.990  0.00  0.00    +0.000 C 
ATOM     12  C   UNL     1       4.170   5.788  19.271  0.00  0.00    +0.000 C 
ENDROOT
BRANCH  12  13
ATOM     13  C   UNL     1       3.435   4.453  19.096  0.00  0.00    +0.000 A 
ATOM     14  C   UNL     1       2.614   4.252  17.975  0.00  0.00    +0.000 A 
ATOM     15  C   UNL     1       1.870   3.076  17.841  0.00  0.00    +0.000 A 
ATOM     16  C   UNL     1       1.916   2.090  18.831  0.00  0.00    +0.000 A 
ATOM     17  C   UNL     1       2.723   2.273  19.943  0.00  0.00    +0.000 A 
ATOM     18  C   UNL     1       3.489   3.434  20.063  0.00  0.00    +0.000 A 
ENDBRANCH  12  13
BRANCH   1  20
ATOM     19  C   UNL     1       1.138   6.053  20.485  0.00  0.00    +0.000 C 
ATOM     20  C   UNL     1       1.838   7.407  20.290  0.00  0.00    +0.000 C 
BRANCH  20  21
ATOM     21  C   UNL     1       0.870   8.588  20.626  0.00  0.00    +0.000 C 
ATOM     22  C   UNL     1       1.582   9.950  20.560  0.00  0.00    +0.000 C 
ATOM     23  C   UNL     1       0.717  11.082  21.096  0.00  0.00    +0.000 C 
ATOM     24  O   UNL     1       0.295  10.795  22.425  0.00  0.00    +0.000 OA
ATOM     25  C   UNL     1      -0.545   9.646  22.466  0.00  0.00    +0.000 C 
ATOM     26  C   UNL     1       0.214   8.406  22.011  0.00  0.00    +0.000 C 
ENDBRANCH  20  21
ENDBRANCH   1  20
TORSDOF 3
ENDMDL
MODEL 4
REMARK VINA RESULT:      -7.4      4.323      8.086
REMARK  Name = 
REMARK  4 active torsions:
REMARK  status: ('A' for Active; 'I' for Inactive)
REMARK    1  A    between atoms: C_1  and  C_2
REMARK    2  A    between atoms: C_2  and  C_3
REMARK    3  A    between atoms: C_2  and  C_21
REMARK    4  A    between atoms: C_14  and  C_15
REMARK                            x       y       z     vdW  Elec       q    Type
REMARK                         _______ _______ _______ _____ _____    ______ ____
ROOT
ATOM      1  C   UNL     1      -1.071  11.437  22.427  0.00  0.00    +0.000 C 
ATOM      2  O   UNL     1      -0.910  10.842  23.494  0.00  0.00    +0.000 OA
ATOM      3  N   UNL     1      -0.685  10.865  21.211  0.00  0.00    +0.000 N 
ATOM      4  C   UNL     1      -0.188   9.467  21.235  0.00  0.00    +0.000 C 
ATOM      5  C   UNL     1       0.631   9.055  20.022  0.00  0.00    +0.000 A 
ATOM      6  C   UNL     1       1.731   8.197  20.130  0.00  0.00    +0.000 A 
ATOM      7  C   UNL     1       2.527   7.923  19.012  0.00  0.00    +0.000 A 
ATOM      8  C   UNL     1       2.207   8.469  17.769  0.00  0.00    +0.000 A 
ATOM      9  C   UNL     1       1.091   9.289  17.637  0.00  0.00    +0.000 A 
ATOM     10  C   UNL     1       0.316   9.594  18.762  0.00  0.00    +0.000 A 
ATOM     11  C   UNL     1      -0.796  10.603  18.706  0.00  0.00    +0.000 C 
ATOM     12  C   UNL     1      -0.682  11.568  19.910  0.00  0.00    +0.000 C 
ENDROOT
BRANCH  12  13
ATOM     13  C   UNL     1       0.527  12.502  19.769  0.00  0.00    +0.000 A 
ATOM     14  C   UNL     1       0.738  13.192  18.565  0.00  0.00    +0.000 A 
ATOM     15  C   UNL     1       1.877  13.981  18.388  0.00  0.00    +0.000 A 
ATOM     16  C   UNL     1       2.837  14.079  19.399  0.00  0.00    +0.000 A 
ATOM     17  C   UNL     1       2.643  13.405  20.595  0.00  0.00    +0.000 A 
ATOM     18  C   UNL     1       1.491  12.641  20.783  0.00  0.00    +0.000 A 
ENDBRANCH  12  13
BRANCH   1  20
ATOM     19  C   UNL     1      -1.314  13.722  23.509  0.00  0.00    +0.000 C 
ATOM     20  C   UNL     1      -1.843  12.782  22.415  0.00  0.00    +0.000 C 
BRANCH  20  21
ATOM     21  C   UNL     1      -3.375  12.528  22.592  0.00  0.00    +0.000 C 
ATOM     22  C   UNL     1      -4.162  12.845  21.309  0.00  0.00    +0.000 C 
ATOM     23  C   UNL     1      -5.667  12.816  21.530  0.00  0.00    +0.000 C 
ATOM     24  O   UNL     1      -6.030  13.708  22.578  0.00  0.00    +0.000 OA
ATOM     25  C   UNL     1      -5.473  13.300  23.824  0.00  0.00    +0.000 C 
ATOM     26  C   UNL     1      -3.951  13.340  23.773  0.00  0.00    +0.000 C 
ENDBRANCH  20  21
ENDBRANCH   1  20
TORSDOF 3
ENDMDL
MODEL 5
REMARK VINA RESULT:      -7.2      6.137      8.715
REMARK  Name = 
REMARK  4 active torsions:
REMARK  status: ('A' for Active; 'I' for Inactive)
REMARK    1  A    between atoms: C_1  and  C_2
REMARK    2  A    between atoms: C_2  and  C_3
REMARK    3  A    between atoms: C_2  and  C_21
REMARK    4  A    between atoms: C_14  and  C_15
REMARK                            x       y       z     vdW  Elec       q    Type
REMARK                         _______ _______ _______ _____ _____    ______ ____
ROOT
ATOM      1  C   UNL     1      -2.083  11.702  17.977  0.00  0.00    +0.000 C 
ATOM      2  O   UNL     1      -1.841  11.693  16.768  0.00  0.00    +0.000 OA
ATOM      3  N   UNL     1      -1.312  12.455  18.867  0.00  0.00    +0.000 N 
ATOM      4  C   UNL     1      -0.268  13.341  18.294  0.00  0.00    +0.000 C 
ATOM      5  C   UNL     1       0.818  13.768  19.269  0.00  0.00    +0.000 A 
ATOM      6  C   UNL     1       2.152  13.915  18.870  0.00  0.00    +0.000 A 
ATOM      7  C   UNL     1       3.144  14.204  19.813  0.00  0.00    +0.000 A 
ATOM      8  C   UNL     1       2.807  14.392  21.154  0.00  0.00    +0.000 A 
ATOM      9  C   UNL     1       1.480  14.293  21.557  0.00  0.00    +0.000 A 
ATOM     10  C   UNL     1       0.492  13.965  20.622  0.00  0.00    +0.000 A 
ATOM     11  C   UNL     1      -0.925  13.684  21.034  0.00  0.00    +0.000 C 
ATOM     12  C   UNL     1      -1.420  12.392  20.340  0.00  0.00    +0.000 C 
ENDROOT
BRANCH  12  13
ATOM     13  C   UNL     1      -0.728  11.147  20.911  0.00  0.00    +0.000 A 
ATOM     14  C   UNL     1      -0.771  10.898  22.291  0.00  0.00    +0.000 A 
ATOM     15  C   UNL     1      -0.077   9.816  22.840  0.00  0.00    +0.000 A 
ATOM     16  C   UNL     1       0.689   8.977  22.026  0.00  0.00    +0.000 A 
ATOM     17  C   UNL     1       0.740   9.209  20.660  0.00  0.00    +0.000 A 
ATOM     18  C   UNL     1       0.023  10.271  20.107  0.00  0.00    +0.000 A 
ENDBRANCH  12  13
BRANCH   1  20
ATOM     19  C   UNL     1      -3.587   9.669  17.734  0.00  0.00    +0.000 C 
ATOM     20  C   UNL     1      -3.350  10.979  18.503  0.00  0.00    +0.000 C 
BRANCH  20  21
ATOM     21  C   UNL     1      -4.594  11.919  18.398  0.00  0.00    +0.000 C 
ATOM     22  C   UNL     1      -4.939  12.567  19.750  0.00  0.00    +0.000 C 
ATOM     23  C   UNL     1      -6.269  13.306  19.715  0.00  0.00    +0.000 C 
ATOM     24  O   UNL     1      -7.309  12.431  19.293  0.00  0.00    +0.000 OA
ATOM     25  C   UNL     1      -7.106  11.988  17.954  0.00  0.00    +0.000 C 
ATOM     26  C   UNL     1      -5.826  11.170  17.847  0.00  0.00    +0.000 C 
ENDBRANCH  20  21
ENDBRANCH   1  20
TORSDOF 3
ENDMDL
MODEL 6
REMARK VINA RESULT:      -7.1      4.516      8.221
REMARK  Name = 
REMARK  4 active torsions:
REMARK  status: ('A' for Active; 'I' for Inactive)
REMARK    1  A    between atoms: C_1  and  C_2
REMARK    2  A    between atoms: C_2  and  C_3
REMARK    3  A    between atoms: C_2  and  C_21
REMARK    4  A    between atoms: C_14  and  C_15
REMARK                            x       y       z     vdW  Elec       q    Type
REMARK                         _______ _______ _______ _____ _____    ______ ____
ROOT
ATOM      1  C   UNL     1      -0.971  12.318  22.213  0.00  0.00    +0.000 C 
ATOM      2  O   UNL     1      -0.984  11.812  23.337  0.00  0.00    +0.000 OA
ATOM      3  N   UNL     1      -0.611  11.574  21.085  0.00  0.00    +0.000 N 
ATOM      4  C   UNL     1      -0.366  10.121  21.269  0.00  0.00    +0.000 C 
ATOM      5  C   UNL     1       0.446   9.462  20.165  0.00  0.00    +0.000 A 
ATOM      6  C   UNL     1       1.371   8.447  20.434  0.00  0.00    +0.000 A 
ATOM      7  C   UNL     1       2.178   7.937  19.412  0.00  0.00    +0.000 A 
ATOM      8  C   UNL     1       2.039   8.404  18.105  0.00  0.00    +0.000 A 
ATOM      9  C   UNL     1       1.092   9.381  17.814  0.00  0.00    +0.000 A 
ATOM     10  C   UNL     1       0.311   9.920  18.842  0.00  0.00    +0.000 A 
ATOM     11  C   UNL     1      -0.603  11.089  18.611  0.00  0.00    +0.000 C 
ATOM     12  C   UNL     1      -0.402  12.135  19.733  0.00  0.00    +0.000 C 
ENDROOT
BRANCH  12  13
ATOM     13  C   UNL     1       0.957  12.836  19.611  0.00  0.00    +0.000 A 
ATOM     14  C   UNL     1       1.768  12.987  20.747  0.00  0.00    +0.000 A 
ATOM     15  C   UNL     1       2.970  13.696  20.673  0.00  0.00    +0.000 A 
ATOM     16  C   UNL     1       3.374  14.285  19.472  0.00  0.00    +0.000 A 
ATOM     17  C   UNL     1       2.586  14.143  18.340  0.00  0.00    +0.000 A 
ATOM     18  C   UNL     1       1.400  13.410  18.406  0.00  0.00    +0.000 A 
ENDBRANCH  12  13
BRANCH   1  20
ATOM     19  C   UNL     1      -0.845  14.716  23.040  0.00  0.00    +0.000 C 
ATOM     20  C   UNL     1      -1.496  13.765  22.024  0.00  0.00    +0.000 C 
BRANCH  20  21
ATOM     21  C   UNL     1      -3.053  13.796  22.150  0.00  0.00    +0.000 C 
ATOM     22  C   UNL     1      -3.519  13.516  23.589  0.00  0.00    +0.000 C 
ATOM     23  C   UNL     1      -5.026  13.325  23.683  0.00  0.00    +0.000 C 
ATOM     24  O   UNL     1      -5.449  12.289  22.804  0.00  0.00    +0.000 OA
ATOM     25  C   UNL     1      -5.212  12.634  21.443  0.00  0.00    +0.000 C 
ATOM     26  C   UNL     1      -3.721  12.798  21.180  0.00  0.00    +0.000 C 
ENDBRANCH  20  21
ENDBRANCH   1  20
TORSDOF 3
ENDMDL
MODEL 7
REMARK VINA RESULT:      -7.1      6.555      9.038
REMARK  Name = 
REMARK  4 active torsions:
REMARK  status: ('A' for Active; 'I' for Inactive)
REMARK    1  A    between atoms: C_1  and  C_2
REMARK    2  A    between atoms: C_2  and  C_3
REMARK    3  A    between atoms: C_2  and  C_21
REMARK    4  A    between atoms: C_14  and  C_15
REMARK                            x       y       z     vdW  Elec       q    Type
REMARK                         _______ _______ _______ _____ _____    ______ ____
ROOT
ATOM      1  C   UNL     1      -2.183  11.707  18.048  0.00  0.00    +0.000 C 
ATOM      2  O   UNL     1      -1.869  11.566  16.864  0.00  0.00    +0.000 OA
ATOM      3  N   UNL     1      -1.439  12.525  18.904  0.00  0.00    +0.000 N 
ATOM      4  C   UNL     1      -0.330  13.315  18.311  0.00  0.00    +0.000 C 
ATOM      5  C   UNL     1       0.711  13.806  19.304  0.00  0.00    +0.000 A 
ATOM      6  C   UNL     1       2.070  13.870  18.978  0.00  0.00    +0.000 A 
ATOM      7  C   UNL     1       3.014  14.225  19.948  0.00  0.00    +0.000 A 
ATOM      8  C   UNL     1       2.605  14.561  21.238  0.00  0.00    +0.000 A 
ATOM      9  C   UNL     1       1.253  14.545  21.565  0.00  0.00    +0.000 A 
ATOM     10  C   UNL     1       0.312  14.153  20.607  0.00  0.00    +0.000 A 
ATOM     11  C   UNL     1      -1.137  13.959  20.955  0.00  0.00    +0.000 C 
ATOM     12  C   UNL     1      -1.637  12.618  20.366  0.00  0.00    +0.000 C 
ENDROOT
BRANCH  12  13
ATOM     13  C   UNL     1      -1.027  11.419  21.103  0.00  0.00    +0.000 A 
ATOM     14  C   UNL     1      -0.384  10.406  20.373  0.00  0.00    +0.000 A 
ATOM     15  C   UNL     1       0.103   9.266  21.016  0.00  0.00    +0.000 A 
ATOM     16  C   UNL     1      -0.059   9.105  22.395  0.00  0.00    +0.000 A 
ATOM     17  C   UNL     1      -0.689  10.097  23.131  0.00  0.00    +0.000 A 
ATOM     18  C   UNL     1      -1.150  11.250  22.493  0.00  0.00    +0.000 A 
ENDBRANCH  12  13
BRANCH   1  20
ATOM     19  C   UNL     1      -3.851   9.812  17.770  0.00  0.00    +0.000 C 
ATOM     20  C   UNL     1      -3.504  11.082  18.563  0.00  0.00    +0.000 C 
BRANCH  20  21
ATOM     21  C   UNL     1      -4.666  12.124  18.481  0.00  0.00    +0.000 C 
ATOM     22  C   UNL     1      -5.675  11.952  19.629  0.00  0.00    +0.000 C 
ATOM     23  C   UNL     1      -6.919  12.808  19.440  0.00  0.00    +0.000 C 
ATOM     24  O   UNL     1      -7.528  12.524  18.185  0.00  0.00    +0.000 OA
ATOM     25  C   UNL     1      -6.675  12.881  17.101  0.00  0.00    +0.000 C 
ATOM     26  C   UNL     1      -5.399  12.049  17.124  0.00  0.00    +0.000 C 
ENDBRANCH  20  21
ENDBRANCH   1  20
TORSDOF 3
ENDMDL
MODEL 8
REMARK VINA RESULT:      -7.0      1.959      4.409
REMARK  Name = 
REMARK  4 active torsions:
REMARK  status: ('A' for Active; 'I' for Inactive)
REMARK    1  A    between atoms: C_1  and  C_2
REMARK    2  A    between atoms: C_2  and  C_3
REMARK    3  A    between atoms: C_2  and  C_21
REMARK    4  A    between atoms: C_14  and  C_15
REMARK                            x       y       z     vdW  Elec       q    Type
REMARK                         _______ _______ _______ _____ _____    ______ ____
ROOT
ATOM      1  C   UNL     1       1.823   7.608  19.570  0.00  0.00    +0.000 C 
ATOM      2  O   UNL     1       1.629   7.941  20.742  0.00  0.00    +0.000 OA
ATOM      3  N   UNL     1       2.053   6.274  19.222  0.00  0.00    +0.000 N 
ATOM      4  C   UNL     1       1.933   5.253  20.293  0.00  0.00    +0.000 C 
ATOM      5  C   UNL     1       2.622   3.930  19.999  0.00  0.00    +0.000 A 
ATOM      6  C   UNL     1       3.262   3.191  21.000  0.00  0.00    +0.000 A 
ATOM      7  C   UNL     1       3.977   2.033  20.677  0.00  0.00    +0.000 A 
ATOM      8  C   UNL     1       4.022   1.578  19.359  0.00  0.00    +0.000 A 
ATOM      9  C   UNL     1       3.354   2.277  18.360  0.00  0.00    +0.000 A 
ATOM     10  C   UNL     1       2.671   3.457  18.675  0.00  0.00    +0.000 A 
ATOM     11  C   UNL     1       2.075   4.335  17.611  0.00  0.00    +0.000 C 
ATOM     12  C   UNL     1       2.461   5.809  17.880  0.00  0.00    +0.000 C 
ENDROOT
BRANCH  12  13
ATOM     13  C   UNL     1       3.953   6.056  17.620  0.00  0.00    +0.000 A 
ATOM     14  C   UNL     1       4.386   6.417  16.334  0.00  0.00    +0.000 A 
ATOM     15  C   UNL     1       5.748   6.564  16.058  0.00  0.00    +0.000 A 
ATOM     16  C   UNL     1       6.703   6.334  17.052  0.00  0.00    +0.000 A 
ATOM     17  C   UNL     1       6.292   5.978  18.327  0.00  0.00    +0.000 A 
ATOM     18  C   UNL     1       4.930   5.860  18.612  0.00  0.00    +0.000 A 
ENDBRANCH  12  13
BRANCH   1  20
ATOM     19  C   UNL     1       3.032   9.272  18.081  0.00  0.00    +0.000 C 
ATOM     20  C   UNL     1       1.669   8.664  18.446  0.00  0.00    +0.000 C 
BRANCH  20  21
ATOM     21  C   UNL     1       0.662   9.777  18.881  0.00  0.00    +0.000 C 
ATOM     22  C   UNL     1      -0.530   9.883  17.914  0.00  0.00    +0.000 C 
ATOM     23  C   UNL     1      -1.399  11.100  18.197  0.00  0.00    +0.000 C 
ATOM     24  O   UNL     1      -0.613  12.287  18.165  0.00  0.00    +0.000 OA
ATOM     25  C   UNL     1       0.364  12.291  19.200  0.00  0.00    +0.000 C 
ATOM     26  C   UNL     1       1.355  11.150  19.010  0.00  0.00    +0.000 C 
ENDBRANCH  20  21
ENDBRANCH   1  20
TORSDOF 3
ENDMDL
MODEL 9
REMARK VINA RESULT:      -7.0      9.251     10.831
REMARK  Name = 
REMARK  4 active torsions:
REMARK  status: ('A' for Active; 'I' for Inactive)
REMARK    1  A    between atoms: C_1  and  C_2
REMARK    2  A    between atoms: C_2  and  C_3
REMARK    3  A    between atoms: C_2  and  C_21
REMARK    4  A    between atoms: C_14  and  C_15
REMARK                            x       y       z     vdW  Elec       q    Type
REMARK                         _______ _______ _______ _____ _____    ______ ____
ROOT
ATOM      1  C   UNL     1       7.971  14.081  21.899  0.00  0.00    +0.000 C 
ATOM      2  O   UNL     1       6.786  14.417  21.852  0.00  0.00    +0.000 OA
ATOM      3  N   UNL     1       8.962  14.818  21.242  0.00  0.00    +0.000 N 
ATOM      4  C   UNL     1       8.556  16.086  20.587  0.00  0.00    +0.000 C 
ATOM      5  C   UNL     1       9.519  16.598  19.528  0.00  0.00    +0.000 A 
ATOM      6  C   UNL     1       9.067  17.234  18.365  0.00  0.00    +0.000 A 
ATOM      7  C   UNL     1       9.972  17.597  17.361  0.00  0.00    +0.000 A 
ATOM      8  C   UNL     1      11.338  17.369  17.528  0.00  0.00    +0.000 A 
ATOM      9  C   UNL     1      11.806  16.778  18.697  0.00  0.00    +0.000 A 
ATOM     10  C   UNL     1      10.899  16.379  19.685  0.00  0.00    +0.000 A 
ATOM     11  C   UNL     1      11.335  15.591  20.887  0.00  0.00    +0.000 C 
ATOM     12  C   UNL     1      10.373  14.398  21.102  0.00  0.00    +0.000 C 
ENDROOT
BRANCH  12  13
ATOM     13  C   UNL     1      10.546  13.333  20.012  0.00  0.00    +0.000 A 
ATOM     14  C   UNL     1      11.731  12.583  19.952  0.00  0.00    +0.000 A 
ATOM     15  C   UNL     1      11.942  11.668  18.917  0.00  0.00    +0.000 A 
ATOM     16  C   UNL     1      10.985  11.499  17.912  0.00  0.00    +0.000 A 
ATOM     17  C   UNL     1       9.808  12.231  17.958  0.00  0.00    +0.000 A 
ATOM     18  C   UNL     1       9.584  13.123  19.007  0.00  0.00    +0.000 A 
ENDBRANCH  12  13
BRANCH   1  20
ATOM     19  C   UNL     1       8.338  11.573  22.055  0.00  0.00    +0.000 C 
ATOM     20  C   UNL     1       8.391  12.905  22.818  0.00  0.00    +0.000 C 
BRANCH  20  21
ATOM     21  C   UNL     1       7.480  12.857  24.087  0.00  0.00    +0.000 C 
ATOM     22  C   UNL     1       8.302  12.914  25.387  0.00  0.00    +0.000 C 
ATOM     23  C   UNL     1       7.452  12.646  26.620  0.00  0.00    +0.000 C 
ATOM     24  O   UNL     1       6.784  11.395  26.499  0.00  0.00    +0.000 OA
ATOM     25  C   UNL     1       5.858  11.403  25.417  0.00  0.00    +0.000 C 
ATOM     26  C   UNL     1       6.580  11.602  24.091  0.00  0.00    +0.000 C 
ENDBRANCH  20  21
ENDBRANCH   1  20
TORSDOF 3
ENDMDL
