MODEL 1
REMARK VINA RESULT:      -6.9      0.000      0.000
REMARK  Name = 
REMARK  5 active torsions:
REMARK  status: ('A' for Active; 'I' for Inactive)
REMARK    1  A    between atoms: C_2  and  C_4
REMARK    2  A    between atoms: C_4  and  S_5
REMARK    3  A    between atoms: S_5  and  C_6
REMARK    4  A    between atoms: C_9  and  S_10
REMARK    5  A    between atoms: S_10  and  N_13
REMARK                            x       y       z     vdW  Elec       q    Type
REMARK                         _______ _______ _______ _____ _____    ______ ____
ROOT
ATOM      1  C   UNL     1       3.305   5.186  18.611  0.00  0.00    +0.000 A 
ATOM      2  C   UNL     1       3.539   6.316  17.834  0.00  0.00    +0.000 A 
ATOM      3  C   UNL     1       4.740   6.418  17.129  0.00  0.00    +0.000 A 
ATOM      4  C   UNL     1       5.682   5.399  17.249  0.00  0.00    +0.000 A 
ATOM      5  C   UNL     1       5.364   4.293  18.015  0.00  0.00    +0.000 A 
ATOM      6  N   UNL     1       4.201   4.176  18.709  0.00  0.00    +0.000 NA
ENDROOT
BRANCH   4   7
ATOM      7  S   UNL     1       7.211   5.440  16.354  0.00  0.00    +0.000 S 
ATOM      8  O   UNL     1       7.688   6.802  16.388  0.00  0.00    +0.000 OA
ATOM      9  O   UNL     1       8.020   4.351  16.864  0.00  0.00    +0.000 OA
BRANCH   7  10
ATOM     10  N   UNL     1       6.769   5.061  14.737  0.00  0.00    +0.000 NA
ATOM     11  C   UNL     1       7.855   5.216  13.735  0.00  0.00    +0.000 C 
ATOM     12  C   UNL     1       7.365   4.975  12.311  0.00  0.00    +0.000 C 
ATOM     13  C   UNL     1       6.643   3.644  12.198  0.00  0.00    +0.000 C 
ATOM     14  C   UNL     1       5.457   3.646  13.150  0.00  0.00    +0.000 C 
ATOM     15  C   UNL     1       5.910   3.857  14.589  0.00  0.00    +0.000 C 
ENDBRANCH   7  10
ENDBRANCH   4   7
BRANCH   1  16
ATOM     16  S   UNL     1       1.829   5.015  19.590  0.00  0.00    +0.000 S 
BRANCH  16  17
ATOM     17  C   UNL     1       1.715   3.198  19.679  0.00  0.00    +0.000 C 
BRANCH  17  19
ATOM     18  N   UNL     1       3.541   2.389  21.096  0.00  0.00    +0.000 N 
ATOM     19  C   UNL     1       2.214   2.713  21.027  0.00  0.00    +0.000 C 
ATOM     20  O   UNL     1       1.479   2.556  21.998  0.00  0.00    +0.000 OA
ATOM     21  H   UNL     1       3.900   2.153  22.012  0.00  0.00    +0.000 HD
ATOM     22  H   UNL     1       4.192   2.772  20.422  0.00  0.00    +0.000 HD
ENDBRANCH  17  19
ENDBRANCH  16  17
ENDBRANCH   1  16
TORSDOF 5
ENDMDL
MODEL 2
REMARK VINA RESULT:      -6.8      1.310      1.360
REMARK  Name = 
REMARK  5 active torsions:
REMARK  status: ('A' for Active; 'I' for Inactive)
REMARK    1  A    between atoms: C_2  and  C_4
REMARK    2  A    between atoms: C_4  and  S_5
REMARK    3  A    between atoms: S_5  and  C_6
REMARK    4  A    between atoms: C_9  and  S_10
REMARK    5  A    between atoms: S_10  and  N_13
REMARK                            x       y       z     vdW  Elec       q    Type
REMARK                         _______ _______ _______ _____ _____    ______ ____
ROOT
ATOM      1  C   UNL     1       3.440   4.889  18.905  0.00  0.00    +0.000 A 
ATOM      2  C   UNL     1       3.335   5.508  17.664  0.00  0.00    +0.000 A 
ATOM      3  C   UNL     1       4.487   5.686  16.895  0.00  0.00    +0.000 A 
ATOM      4  C   UNL     1       5.712   5.265  17.407  0.00  0.00    +0.000 A 
ATOM      5  C   UNL     1       5.732   4.630  18.634  0.00  0.00    +0.000 A 
ATOM      6  N   UNL     1       4.622   4.449  19.398  0.00  0.00    +0.000 NA
ENDROOT
BRANCH   4   7
ATOM      7  S   UNL     1       7.210   5.422  16.473  0.00  0.00    +0.000 S 
ATOM      8  O   UNL     1       7.598   6.811  16.519  0.00  0.00    +0.000 OA
ATOM      9  O   UNL     1       8.102   4.380  16.941  0.00  0.00    +0.000 OA
BRANCH   7  10
ATOM     10  N   UNL     1       6.749   5.042  14.861  0.00  0.00    +0.000 NA
ATOM     11  C   UNL     1       7.790   5.296  13.832  0.00  0.00    +0.000 C 
ATOM     12  C   UNL     1       7.277   5.047  12.418  0.00  0.00    +0.000 C 
ATOM     13  C   UNL     1       6.651   3.668  12.297  0.00  0.00    +0.000 C 
ATOM     14  C   UNL     1       5.498   3.563  13.282  0.00  0.00    +0.000 C 
ATOM     15  C   UNL     1       5.977   3.781  14.713  0.00  0.00    +0.000 C 
ENDBRANCH   7  10
ENDBRANCH   4   7
BRANCH   1  16
ATOM     16  S   UNL     1       2.029   4.687  19.971  0.00  0.00    +0.000 S 
BRANCH  16  17
ATOM     17  C   UNL     1       2.192   2.920  20.383  0.00  0.00    +0.000 C 
BRANCH  17  19
ATOM     18  N   UNL     1       0.868   1.960  18.560  0.00  0.00    +0.000 N 
ATOM     19  C   UNL     1       2.109   2.083  19.120  0.00  0.00    +0.000 C 
ATOM     20  O   UNL     1       3.074   1.493  18.641  0.00  0.00    +0.000 OA
ATOM     21  H   UNL     1       0.820   1.481  17.670  0.00  0.00    +0.000 HD
ATOM     22  H   UNL     1       0.149   2.645  18.763  0.00  0.00    +0.000 HD
ENDBRANCH  17  19
ENDBRANCH  16  17
ENDBRANCH   1  16
TORSDOF 5
ENDMDL
MODEL 3
REMARK VINA RESULT:      -6.8      1.270      1.617
REMARK  Name = 
REMARK  5 active torsions:
REMARK  status: ('A' for Active; 'I' for Inactive)
REMARK    1  A    between atoms: C_2  and  C_4
REMARK    2  A    between atoms: C_4  and  S_5
REMARK    3  A    between atoms: S_5  and  C_6
REMARK    4  A    between atoms: C_9  and  S_10
REMARK    5  A    between atoms: S_10  and  N_13
REMARK                            x       y       z     vdW  Elec       q    Type
REMARK                         _______ _______ _______ _____ _____    ______ ____
ROOT
ATOM      1  C   UNL     1       3.409   5.031  18.893  0.00  0.00    +0.000 A 
ATOM      2  C   UNL     1       4.441   4.123  19.103  0.00  0.00    +0.000 A 
ATOM      3  C   UNL     1       5.611   4.240  18.350  0.00  0.00    +0.000 A 
ATOM      4  C   UNL     1       5.699   5.244  17.389  0.00  0.00    +0.000 A 
ATOM      5  C   UNL     1       4.644   6.127  17.260  0.00  0.00    +0.000 A 
ATOM      6  N   UNL     1       3.497   6.030  17.983  0.00  0.00    +0.000 NA
ENDROOT
BRANCH   4   7
ATOM      7  S   UNL     1       7.166   5.478  16.423  0.00  0.00    +0.000 S 
ATOM      8  O   UNL     1       7.479   6.886  16.457  0.00  0.00    +0.000 OA
ATOM      9  O   UNL     1       8.123   4.487  16.875  0.00  0.00    +0.000 OA
BRANCH   7  10
ATOM     10  N   UNL     1       6.693   5.067  14.822  0.00  0.00    +0.000 NA
ATOM     11  C   UNL     1       7.770   5.163  13.803  0.00  0.00    +0.000 C 
ATOM     12  C   UNL     1       7.255   4.897  12.393  0.00  0.00    +0.000 C 
ATOM     13  C   UNL     1       6.493   3.584  12.326  0.00  0.00    +0.000 C 
ATOM     14  C   UNL     1       5.320   3.647  13.291  0.00  0.00    +0.000 C 
ATOM     15  C   UNL     1       5.798   3.885  14.719  0.00  0.00    +0.000 C 
ENDBRANCH   7  10
ENDBRANCH   4   7
BRANCH   1  16
ATOM     16  S   UNL     1       1.864   4.907  19.765  0.00  0.00    +0.000 S 
BRANCH  16  17
ATOM     17  C   UNL     1       1.866   3.130  20.168  0.00  0.00    +0.000 C 
BRANCH  17  19
ATOM     18  N   UNL     1       2.262   1.517  18.368  0.00  0.00    +0.000 N 
ATOM     19  C   UNL     1       1.352   2.330  18.985  0.00  0.00    +0.000 C 
ATOM     20  O   UNL     1       0.207   2.432  18.552  0.00  0.00    +0.000 OA
ATOM     21  H   UNL     1       1.905   0.913  17.638  0.00  0.00    +0.000 HD
ATOM     22  H   UNL     1       3.089   1.211  18.866  0.00  0.00    +0.000 HD
ENDBRANCH  17  19
ENDBRANCH  16  17
ENDBRANCH   1  16
TORSDOF 5
ENDMDL
MODEL 4
REMARK VINA RESULT:      -6.6      1.256      1.557
REMARK  Name = 
REMARK  5 active torsions:
REMARK  status: ('A' for Active; 'I' for Inactive)
REMARK    1  A    between atoms: C_2  and  C_4
REMARK    2  A    between atoms: C_4  and  S_5
REMARK    3  A    between atoms: S_5  and  C_6
REMARK    4  A    between atoms: C_9  and  S_10
REMARK    5  A    between atoms: S_10  and  N_13
REMARK                            x       y       z     vdW  Elec       q    Type
REMARK                         _______ _______ _______ _____ _____    ______ ____
ROOT
ATOM      1  C   UNL     1       2.796   3.984  17.984  0.00  0.00    +0.000 A 
ATOM      2  C   UNL     1       3.753   3.026  17.667  0.00  0.00    +0.000 A 
ATOM      3  C   UNL     1       4.965   3.438  17.108  0.00  0.00    +0.000 A 
ATOM      4  C   UNL     1       5.167   4.792  16.856  0.00  0.00    +0.000 A 
ATOM      5  C   UNL     1       4.181   5.687  17.226  0.00  0.00    +0.000 A 
ATOM      6  N   UNL     1       2.996   5.306  17.771  0.00  0.00    +0.000 NA
ENDROOT
BRANCH   4   7
ATOM      7  S   UNL     1       6.694   5.392  16.184  0.00  0.00    +0.000 S 
ATOM      8  O   UNL     1       6.708   6.824  16.371  0.00  0.00    +0.000 OA
ATOM      9  O   UNL     1       7.745   4.556  16.730  0.00  0.00    +0.000 OA
BRANCH   7  10
ATOM     10  N   UNL     1       6.576   5.066  14.501  0.00  0.00    +0.000 NA
ATOM     11  C   UNL     1       7.800   5.368  13.715  0.00  0.00    +0.000 C 
ATOM     12  C   UNL     1       7.590   5.165  12.218  0.00  0.00    +0.000 C 
ATOM     13  C   UNL     1       7.026   3.784  11.927  0.00  0.00    +0.000 C 
ATOM     14  C   UNL     1       5.698   3.633  12.652  0.00  0.00    +0.000 C 
ATOM     15  C   UNL     1       5.873   3.804  14.156  0.00  0.00    +0.000 C 
ENDBRANCH   7  10
ENDBRANCH   4   7
BRANCH   1  16
ATOM     16  S   UNL     1       1.203   3.533  18.636  0.00  0.00    +0.000 S 
BRANCH  16  17
ATOM     17  C   UNL     1       1.373   4.147  20.343  0.00  0.00    +0.000 C 
BRANCH  17  19
ATOM     18  N   UNL     1       1.043   2.545  22.165  0.00  0.00    +0.000 N 
ATOM     19  C   UNL     1       1.913   3.048  21.239  0.00  0.00    +0.000 C 
ATOM     20  O   UNL     1       3.077   2.656  21.193  0.00  0.00    +0.000 OA
ATOM     21  H   UNL     1       1.366   1.750  22.703  0.00  0.00    +0.000 HD
ATOM     22  H   UNL     1       0.044   2.643  22.030  0.00  0.00    +0.000 HD
ENDBRANCH  17  19
ENDBRANCH  16  17
ENDBRANCH   1  16
TORSDOF 5
ENDMDL
MODEL 5
REMARK VINA RESULT:      -6.5      4.696      5.928
REMARK  Name = 
REMARK  5 active torsions:
REMARK  status: ('A' for Active; 'I' for Inactive)
REMARK    1  A    between atoms: C_2  and  C_4
REMARK    2  A    between atoms: C_4  and  S_5
REMARK    3  A    between atoms: S_5  and  C_6
REMARK    4  A    between atoms: C_9  and  S_10
REMARK    5  A    between atoms: S_10  and  N_13
REMARK                            x       y       z     vdW  Elec       q    Type
REMARK                         _______ _______ _______ _____ _____    ______ ____
ROOT
ATOM      1  C   UNL     1       1.396   9.520  19.057  0.00  0.00    +0.000 A 
ATOM      2  C   UNL     1       1.965   9.183  17.833  0.00  0.00    +0.000 A 
ATOM      3  C   UNL     1       2.555   7.927  17.683  0.00  0.00    +0.000 A 
ATOM      4  C   UNL     1       2.585   7.060  18.773  0.00  0.00    +0.000 A 
ATOM      5  C   UNL     1       1.972   7.454  19.947  0.00  0.00    +0.000 A 
ATOM      6  N   UNL     1       1.392   8.672  20.112  0.00  0.00    +0.000 NA
ENDROOT
BRANCH   4   7
ATOM      7  S   UNL     1       3.283   5.435  18.647  0.00  0.00    +0.000 S 
ATOM      8  O   UNL     1       3.875   5.125  19.926  0.00  0.00    +0.000 OA
ATOM      9  O   UNL     1       2.258   4.587  18.071  0.00  0.00    +0.000 OA
BRANCH   7  10
ATOM     10  N   UNL     1       4.544   5.602  17.491  0.00  0.00    +0.000 NA
ATOM     11  C   UNL     1       5.857   6.017  18.049  0.00  0.00    +0.000 C 
ATOM     12  C   UNL     1       6.897   6.256  16.959  0.00  0.00    +0.000 C 
ATOM     13  C   UNL     1       7.002   5.059  16.029  0.00  0.00    +0.000 C 
ATOM     14  C   UNL     1       5.644   4.814  15.391  0.00  0.00    +0.000 C 
ATOM     15  C   UNL     1       4.581   4.543  16.449  0.00  0.00    +0.000 C 
ENDBRANCH   7  10
ENDBRANCH   4   7
BRANCH   1  16
ATOM     16  S   UNL     1       0.684  11.125  19.345  0.00  0.00    +0.000 S 
BRANCH  16  17
ATOM     17  C   UNL     1      -1.087  10.718  19.206  0.00  0.00    +0.000 C 
BRANCH  17  19
ATOM     18  N   UNL     1      -1.734  12.090  17.283  0.00  0.00    +0.000 N 
ATOM     19  C   UNL     1      -1.531  10.824  17.759  0.00  0.00    +0.000 C 
ATOM     20  O   UNL     1      -1.757   9.845  17.052  0.00  0.00    +0.000 OA
ATOM     21  H   UNL     1      -1.940  12.173  16.296  0.00  0.00    +0.000 HD
ATOM     22  H   UNL     1      -1.292  12.880  17.737  0.00  0.00    +0.000 HD
ENDBRANCH  17  19
ENDBRANCH  16  17
ENDBRANCH   1  16
TORSDOF 5
ENDMDL
MODEL 6
REMARK VINA RESULT:      -6.5      2.692      3.447
REMARK  Name = 
REMARK  5 active torsions:
REMARK  status: ('A' for Active; 'I' for Inactive)
REMARK    1  A    between atoms: C_2  and  C_4
REMARK    2  A    between atoms: C_4  and  S_5
REMARK    3  A    between atoms: S_5  and  C_6
REMARK    4  A    between atoms: C_9  and  S_10
REMARK    5  A    between atoms: S_10  and  N_13
REMARK                            x       y       z     vdW  Elec       q    Type
REMARK                         _______ _______ _______ _____ _____    ______ ____
ROOT
ATOM      1  C   UNL     1       2.067   3.976  18.152  0.00  0.00    +0.000 A 
ATOM      2  C   UNL     1       2.361   5.333  18.226  0.00  0.00    +0.000 A 
ATOM      3  C   UNL     1       3.430   5.837  17.483  0.00  0.00    +0.000 A 
ATOM      4  C   UNL     1       4.191   4.960  16.714  0.00  0.00    +0.000 A 
ATOM      5  C   UNL     1       3.819   3.630  16.667  0.00  0.00    +0.000 A 
ATOM      6  N   UNL     1       2.782   3.121  17.383  0.00  0.00    +0.000 NA
ENDROOT
BRANCH   4   7
ATOM      7  S   UNL     1       5.539   5.534  15.715  0.00  0.00    +0.000 S 
ATOM      8  O   UNL     1       5.920   4.444  14.848  0.00  0.00    +0.000 OA
ATOM      9  O   UNL     1       5.137   6.817  15.173  0.00  0.00    +0.000 OA
BRANCH   7  10
ATOM     10  N   UNL     1       6.814   5.806  16.836  0.00  0.00    +0.000 NA
ATOM     11  C   UNL     1       6.880   7.182  17.391  0.00  0.00    +0.000 C 
ATOM     12  C   UNL     1       8.098   7.385  18.286  0.00  0.00    +0.000 C 
ATOM     13  C   UNL     1       8.174   6.311  19.358  0.00  0.00    +0.000 C 
ATOM     14  C   UNL     1       8.260   4.951  18.686  0.00  0.00    +0.000 C 
ATOM     15  C   UNL     1       7.044   4.700  17.801  0.00  0.00    +0.000 C 
ENDBRANCH   7  10
ENDBRANCH   4   7
BRANCH   1  16
ATOM     16  S   UNL     1       0.763   3.247  19.119  0.00  0.00    +0.000 S 
BRANCH  16  17
ATOM     17  C   UNL     1       1.169   3.924  20.761  0.00  0.00    +0.000 C 
BRANCH  17  19
ATOM     18  N   UNL     1       3.144   2.565  21.259  0.00  0.00    +0.000 N 
ATOM     19  C   UNL     1       1.855   2.864  21.603  0.00  0.00    +0.000 C 
ATOM     20  O   UNL     1       1.290   2.255  22.508  0.00  0.00    +0.000 OA
ATOM     21  H   UNL     1       3.638   1.927  21.871  0.00  0.00    +0.000 HD
ATOM     22  H   UNL     1       3.696   3.230  20.732  0.00  0.00    +0.000 HD
ENDBRANCH  17  19
ENDBRANCH  16  17
ENDBRANCH   1  16
TORSDOF 5
ENDMDL
MODEL 7
REMARK VINA RESULT:      -6.5      4.278      5.058
REMARK  Name = 
REMARK  5 active torsions:
REMARK  status: ('A' for Active; 'I' for Inactive)
REMARK    1  A    between atoms: C_2  and  C_4
REMARK    2  A    between atoms: C_4  and  S_5
REMARK    3  A    between atoms: S_5  and  C_6
REMARK    4  A    between atoms: C_9  and  S_10
REMARK    5  A    between atoms: S_10  and  N_13
REMARK                            x       y       z     vdW  Elec       q    Type
REMARK                         _______ _______ _______ _____ _____    ______ ____
ROOT
ATOM      1  C   UNL     1       1.539   8.317  19.847  0.00  0.00    +0.000 A 
ATOM      2  C   UNL     1       2.085   8.319  18.569  0.00  0.00    +0.000 A 
ATOM      3  C   UNL     1       2.709   7.163  18.095  0.00  0.00    +0.000 A 
ATOM      4  C   UNL     1       2.792   6.051  18.929  0.00  0.00    +0.000 A 
ATOM      5  C   UNL     1       2.199   6.115  20.175  0.00  0.00    +0.000 A 
ATOM      6  N   UNL     1       1.588   7.230  20.654  0.00  0.00    +0.000 NA
ENDROOT
BRANCH   4   7
ATOM      7  S   UNL     1       3.534   4.537  18.383  0.00  0.00    +0.000 S 
ATOM      8  O   UNL     1       4.185   3.944  19.527  0.00  0.00    +0.000 OA
ATOM      9  O   UNL     1       2.514   3.816  17.647  0.00  0.00    +0.000 OA
BRANCH   7  10
ATOM     10  N   UNL     1       4.744   5.032  17.268  0.00  0.00    +0.000 NA
ATOM     11  C   UNL     1       6.034   5.443  17.880  0.00  0.00    +0.000 C 
ATOM     12  C   UNL     1       7.019   5.977  16.847  0.00  0.00    +0.000 C 
ATOM     13  C   UNL     1       7.195   4.997  15.699  0.00  0.00    +0.000 C 
ATOM     14  C   UNL     1       5.845   4.764  15.041  0.00  0.00    +0.000 C 
ATOM     15  C   UNL     1       4.839   4.203  16.039  0.00  0.00    +0.000 C 
ENDBRANCH   7  10
ENDBRANCH   4   7
BRANCH   1  16
ATOM     16  S   UNL     1       0.788   9.771  20.546  0.00  0.00    +0.000 S 
BRANCH  16  17
ATOM     17  C   UNL     1      -0.331   9.000  21.760  0.00  0.00    +0.000 C 
BRANCH  17  19
ATOM     18  N   UNL     1      -1.260  10.780  23.161  0.00  0.00    +0.000 N 
ATOM     19  C   UNL     1      -0.319   9.795  23.052  0.00  0.00    +0.000 C 
ATOM     20  O   UNL     1       0.512   9.621  23.940  0.00  0.00    +0.000 OA
ATOM     21  H   UNL     1      -1.318  11.253  24.055  0.00  0.00    +0.000 HD
ATOM     22  H   UNL     1      -2.099  10.746  22.594  0.00  0.00    +0.000 HD
ENDBRANCH  17  19
ENDBRANCH  16  17
ENDBRANCH   1  16
TORSDOF 5
ENDMDL
MODEL 8
REMARK VINA RESULT:      -6.5      2.749      3.673
REMARK  Name = 
REMARK  5 active torsions:
REMARK  status: ('A' for Active; 'I' for Inactive)
REMARK    1  A    between atoms: C_2  and  C_4
REMARK    2  A    between atoms: C_4  and  S_5
REMARK    3  A    between atoms: S_5  and  C_6
REMARK    4  A    between atoms: C_9  and  S_10
REMARK    5  A    between atoms: S_10  and  N_13
REMARK                            x       y       z     vdW  Elec       q    Type
REMARK                         _______ _______ _______ _____ _____    ______ ____
ROOT
ATOM      1  C   UNL     1       2.453   3.346  18.135  0.00  0.00    +0.000 A 
ATOM      2  C   UNL     1       3.375   2.577  17.433  0.00  0.00    +0.000 A 
ATOM      3  C   UNL     1       4.350   3.218  16.667  0.00  0.00    +0.000 A 
ATOM      4  C   UNL     1       4.352   4.609  16.604  0.00  0.00    +0.000 A 
ATOM      5  C   UNL     1       3.424   5.305  17.354  0.00  0.00    +0.000 A 
ATOM      6  N   UNL     1       2.467   4.699  18.105  0.00  0.00    +0.000 NA
ENDROOT
BRANCH   4   7
ATOM      7  S   UNL     1       5.583   5.494  15.684  0.00  0.00    +0.000 S 
ATOM      8  O   UNL     1       6.093   4.593  14.679  0.00  0.00    +0.000 OA
ATOM      9  O   UNL     1       4.993   6.766  15.319  0.00  0.00    +0.000 OA
BRANCH   7  10
ATOM     10  N   UNL     1       6.833   5.796  16.825  0.00  0.00    +0.000 NA
ATOM     11  C   UNL     1       6.892   7.188  17.340  0.00  0.00    +0.000 C 
ATOM     12  C   UNL     1       8.089   7.414  18.256  0.00  0.00    +0.000 C 
ATOM     13  C   UNL     1       8.138   6.373  19.361  0.00  0.00    +0.000 C 
ATOM     14  C   UNL     1       8.233   4.993  18.732  0.00  0.00    +0.000 C 
ATOM     15  C   UNL     1       7.037   4.718  17.828  0.00  0.00    +0.000 C 
ENDBRANCH   7  10
ENDBRANCH   4   7
BRANCH   1  16
ATOM     16  S   UNL     1       1.141   2.601  19.079  0.00  0.00    +0.000 S 
BRANCH  16  17
ATOM     17  C   UNL     1       0.801   3.943  20.265  0.00  0.00    +0.000 C 
BRANCH  17  19
ATOM     18  N   UNL     1       2.673   5.161  21.270  0.00  0.00    +0.000 N 
ATOM     19  C   UNL     1       1.916   4.022  21.291  0.00  0.00    +0.000 C 
ATOM     20  O   UNL     1       2.182   3.108  22.067  0.00  0.00    +0.000 OA
ATOM     21  H   UNL     1       3.358   5.262  22.008  0.00  0.00    +0.000 HD
ATOM     22  H   UNL     1       2.303   6.008  20.855  0.00  0.00    +0.000 HD
ENDBRANCH  17  19
ENDBRANCH  16  17
ENDBRANCH   1  16
TORSDOF 5
ENDMDL
MODEL 9
REMARK VINA RESULT:      -6.4      1.247      1.732
REMARK  Name = 
REMARK  5 active torsions:
REMARK  status: ('A' for Active; 'I' for Inactive)
REMARK    1  A    between atoms: C_2  and  C_4
REMARK    2  A    between atoms: C_4  and  S_5
REMARK    3  A    between atoms: S_5  and  C_6
REMARK    4  A    between atoms: C_9  and  S_10
REMARK    5  A    between atoms: S_10  and  N_13
REMARK                            x       y       z     vdW  Elec       q    Type
REMARK                         _______ _______ _______ _____ _____    ______ ____
ROOT
ATOM      1  C   UNL     1       3.317   4.885  18.854  0.00  0.00    +0.000 A 
ATOM      2  C   UNL     1       3.424   5.860  17.868  0.00  0.00    +0.000 A 
ATOM      3  C   UNL     1       4.610   5.960  17.139  0.00  0.00    +0.000 A 
ATOM      4  C   UNL     1       5.664   5.101  17.442  0.00  0.00    +0.000 A 
ATOM      5  C   UNL     1       5.471   4.138  18.414  0.00  0.00    +0.000 A 
ATOM      6  N   UNL     1       4.324   4.025  19.134  0.00  0.00    +0.000 NA
ENDROOT
BRANCH   4   7
ATOM      7  S   UNL     1       7.185   5.144  16.534  0.00  0.00    +0.000 S 
ATOM      8  O   UNL     1       7.504   6.533  16.302  0.00  0.00    +0.000 OA
ATOM      9  O   UNL     1       8.109   4.270  17.230  0.00  0.00    +0.000 OA
BRANCH   7  10
ATOM     10  N   UNL     1       6.802   4.417  15.024  0.00  0.00    +0.000 NA
ATOM     11  C   UNL     1       5.370   4.066  14.841  0.00  0.00    +0.000 C 
ATOM     12  C   UNL     1       5.121   3.324  13.532  0.00  0.00    +0.000 C 
ATOM     13  C   UNL     1       5.698   4.087  12.351  0.00  0.00    +0.000 C 
ATOM     14  C   UNL     1       7.194   4.258  12.561  0.00  0.00    +0.000 C 
ATOM     15  C   UNL     1       7.482   5.021  13.849  0.00  0.00    +0.000 C 
ENDBRANCH   7  10
ENDBRANCH   4   7
BRANCH   1  16
ATOM     16  S   UNL     1       1.863   4.738  19.868  0.00  0.00    +0.000 S 
BRANCH  16  17
ATOM     17  C   UNL     1       1.843   2.935  20.137  0.00  0.00    +0.000 C 
BRANCH  17  19
ATOM     18  N   UNL     1       2.370   1.589  18.161  0.00  0.00    +0.000 N 
ATOM     19  C   UNL     1       1.393   2.228  18.872  0.00  0.00    +0.000 C 
ATOM     20  O   UNL     1       0.237   2.261  18.459  0.00  0.00    +0.000 OA
ATOM     21  H   UNL     1       2.065   1.039  17.368  0.00  0.00    +0.000 HD
ATOM     22  H   UNL     1       3.232   1.314  18.616  0.00  0.00    +0.000 HD
ENDBRANCH  17  19
ENDBRANCH  16  17
ENDBRANCH   1  16
TORSDOF 5
ENDMDL
