MODEL 1
REMARK VINA RESULT:      -7.6      0.000      0.000
REMARK  Name = 
REMARK  9 active torsions:
REMARK  status: ('A' for Active; 'I' for Inactive)
REMARK    1  A    between atoms: C_1  and  C_2
REMARK    2  A    between atoms: C_4  and  O_5
REMARK    3  A    between atoms: O_5  and  C_6
REMARK    4  A    between atoms: C_6  and  C_7
REMARK    5  A    between atoms: C_6  and  C_14
REMARK    6  A    between atoms: C_7  and  C_8
REMARK    7  A    between atoms: C_14  and  O_16
REMARK    8  A    between atoms: C_18  and  C_19
REMARK    9  A    between atoms: C_20  and  C_21
REMARK                            x       y       z     vdW  Elec       q    Type
REMARK                         _______ _______ _______ _____ _____    ______ ____
ROOT
ATOM      1  C   UNL     1      -0.134   8.927  22.019  0.00  0.00    +0.000 C 
ATOM      2  C   UNL     1       0.782   8.363  20.959  0.00  0.00    +0.000 A 
ATOM      3  C   UNL     1       1.305   7.083  21.242  0.00  0.00    +0.000 A 
ATOM      4  C   UNL     1       2.018   6.382  20.285  0.00  0.00    +0.000 A 
ATOM      5  C   UNL     1       2.397   7.025  19.124  0.00  0.00    +0.000 A 
ATOM      6  C   UNL     1       1.973   8.340  18.834  0.00  0.00    +0.000 A 
ATOM      7  C   UNL     1       2.458   8.888  17.515  0.00  0.00    +0.000 C 
ATOM      8  C   UNL     1       1.093   9.027  19.728  0.00  0.00    +0.000 A 
ENDROOT
BRANCH   8   9
ATOM      9  C   UNL     1       0.484  10.353  19.367  0.00  0.00    +0.000 A 
ATOM     10  C   UNL     1       1.117  11.570  19.690  0.00  0.00    +0.000 A 
ATOM     11  C   UNL     1       0.561  12.814  19.366  0.00  0.00    +0.000 A 
ATOM     12  C   UNL     1      -0.610  12.879  18.626  0.00  0.00    +0.000 A 
ATOM     13  C   UNL     1      -1.243  11.701  18.251  0.00  0.00    +0.000 A 
ATOM     14  C   UNL     1      -0.726  10.462  18.656  0.00  0.00    +0.000 A 
ENDBRANCH   8   9
BRANCH   4  15
ATOM     15  O   UNL     1       2.344   5.061  20.347  0.00  0.00    +0.000 OA
BRANCH  15  16
ATOM     16  C   UNL     1       2.143   4.268  19.161  0.00  0.00    +0.000 C 
BRANCH  16  17
ATOM     17  C   UNL     1       1.118   3.195  19.519  0.00  0.00    +0.000 C 
ATOM     18  O   UNL     1       0.657   2.389  18.717  0.00  0.00    +0.000 OA
BRANCH  17  19
ATOM     19  O   UNL     1       0.734   3.224  20.819  0.00  0.00    +0.000 OA
ATOM     20  H   UNL     1       0.568   2.304  21.127  0.00  0.00    +0.000 HD
ENDBRANCH  17  19
ENDBRANCH  16  17
BRANCH  16  21
ATOM     21  C   UNL     1       3.405   3.615  18.559  0.00  0.00    +0.000 C 
BRANCH  21  22
ATOM     22  C   UNL     1       4.515   4.529  18.099  0.00  0.00    +0.000 A 
ATOM     23  C   UNL     1       4.490   5.085  16.813  0.00  0.00    +0.000 A 
ATOM     24  C   UNL     1       5.459   6.006  16.414  0.00  0.00    +0.000 A 
ATOM     25  C   UNL     1       6.476   6.374  17.289  0.00  0.00    +0.000 A 
ATOM     26  C   UNL     1       6.531   5.813  18.563  0.00  0.00    +0.000 A 
ATOM     27  C   UNL     1       5.553   4.899  18.967  0.00  0.00    +0.000 A 
ENDBRANCH  21  22
ENDBRANCH  16  21
ENDBRANCH  15  16
ENDBRANCH   4  15
TORSDOF 7
ENDMDL
MODEL 2
REMARK VINA RESULT:      -7.5      1.152      1.373
REMARK  Name = 
REMARK  9 active torsions:
REMARK  status: ('A' for Active; 'I' for Inactive)
REMARK    1  A    between atoms: C_1  and  C_2
REMARK    2  A    between atoms: C_4  and  O_5
REMARK    3  A    between atoms: O_5  and  C_6
REMARK    4  A    between atoms: C_6  and  C_7
REMARK    5  A    between atoms: C_6  and  C_14
REMARK    6  A    between atoms: C_7  and  C_8
REMARK    7  A    between atoms: C_14  and  O_16
REMARK    8  A    between atoms: C_18  and  C_19
REMARK    9  A    between atoms: C_20  and  C_21
REMARK                            x       y       z     vdW  Elec       q    Type
REMARK                         _______ _______ _______ _____ _____    ______ ____
ROOT
ATOM      1  C   UNL     1      -0.136   8.682  22.198  0.00  0.00    +0.000 C 
ATOM      2  C   UNL     1       0.749   8.363  21.016  0.00  0.00    +0.000 A 
ATOM      3  C   UNL     1       1.370   7.096  21.061  0.00  0.00    +0.000 A 
ATOM      4  C   UNL     1       2.066   6.609  19.969  0.00  0.00    +0.000 A 
ATOM      5  C   UNL     1       2.331   7.454  18.910  0.00  0.00    +0.000 A 
ATOM      6  C   UNL     1       1.806   8.764  18.859  0.00  0.00    +0.000 A 
ATOM      7  C   UNL     1       2.172   9.547  17.623  0.00  0.00    +0.000 C 
ATOM      8  C   UNL     1       0.940   9.234  19.895  0.00  0.00    +0.000 A 
ENDROOT
BRANCH   8   9
ATOM      9  C   UNL     1       0.225  10.551  19.785  0.00  0.00    +0.000 A 
ATOM     10  C   UNL     1       0.745  11.725  20.367  0.00  0.00    +0.000 A 
ATOM     11  C   UNL     1       0.089  12.960  20.279  0.00  0.00    +0.000 A 
ATOM     12  C   UNL     1      -1.069  13.078  19.525  0.00  0.00    +0.000 A 
ATOM     13  C   UNL     1      -1.591  11.954  18.899  0.00  0.00    +0.000 A 
ATOM     14  C   UNL     1      -0.976  10.704  19.067  0.00  0.00    +0.000 A 
ENDBRANCH   8   9
BRANCH   4  15
ATOM     15  O   UNL     1       2.480   5.323  19.799  0.00  0.00    +0.000 OA
BRANCH  15  16
ATOM     16  C   UNL     1       3.130   4.989  18.557  0.00  0.00    +0.000 C 
BRANCH  16  17
ATOM     17  C   UNL     1       2.235   3.974  17.852  0.00  0.00    +0.000 C 
ATOM     18  O   UNL     1       1.123   4.232  17.402  0.00  0.00    +0.000 OA
BRANCH  17  19
ATOM     19  O   UNL     1       2.773   2.731  17.783  0.00  0.00    +0.000 OA
ATOM     20  H   UNL     1       3.448   2.631  18.493  0.00  0.00    +0.000 HD
ENDBRANCH  17  19
ENDBRANCH  16  17
BRANCH  16  21
ATOM     21  C   UNL     1       4.567   4.439  18.670  0.00  0.00    +0.000 C 
BRANCH  21  22
ATOM     22  C   UNL     1       5.705   5.385  18.368  0.00  0.00    +0.000 A 
ATOM     23  C   UNL     1       5.572   6.361  17.371  0.00  0.00    +0.000 A 
ATOM     24  C   UNL     1       6.580   7.300  17.151  0.00  0.00    +0.000 A 
ATOM     25  C   UNL     1       7.742   7.270  17.916  0.00  0.00    +0.000 A 
ATOM     26  C   UNL     1       7.902   6.292  18.895  0.00  0.00    +0.000 A 
ATOM     27  C   UNL     1       6.888   5.357  19.123  0.00  0.00    +0.000 A 
ENDBRANCH  21  22
ENDBRANCH  16  21
ENDBRANCH  15  16
ENDBRANCH   4  15
TORSDOF 7
ENDMDL
MODEL 3
REMARK VINA RESULT:      -7.5      0.695      1.271
REMARK  Name = 
REMARK  9 active torsions:
REMARK  status: ('A' for Active; 'I' for Inactive)
REMARK    1  A    between atoms: C_1  and  C_2
REMARK    2  A    between atoms: C_4  and  O_5
REMARK    3  A    between atoms: O_5  and  C_6
REMARK    4  A    between atoms: C_6  and  C_7
REMARK    5  A    between atoms: C_6  and  C_14
REMARK    6  A    between atoms: C_7  and  C_8
REMARK    7  A    between atoms: C_14  and  O_16
REMARK    8  A    between atoms: C_18  and  C_19
REMARK    9  A    between atoms: C_20  and  C_21
REMARK                            x       y       z     vdW  Elec       q    Type
REMARK                         _______ _______ _______ _____ _____    ______ ____
ROOT
ATOM      1  C   UNL     1      -0.257   9.502  22.067  0.00  0.00    +0.000 C 
ATOM      2  C   UNL     1       0.626   8.817  21.050  0.00  0.00    +0.000 A 
ATOM      3  C   UNL     1       1.093   7.540  21.429  0.00  0.00    +0.000 A 
ATOM      4  C   UNL     1       1.765   6.735  20.527  0.00  0.00    +0.000 A 
ATOM      5  C   UNL     1       2.165   7.269  19.318  0.00  0.00    +0.000 A 
ATOM      6  C   UNL     1       1.799   8.576  18.929  0.00  0.00    +0.000 A 
ATOM      7  C   UNL     1       2.298   8.997  17.569  0.00  0.00    +0.000 C 
ATOM      8  C   UNL     1       0.957   9.368  19.770  0.00  0.00    +0.000 A 
ENDROOT
BRANCH   8   9
ATOM      9  C   UNL     1       0.406  10.689  19.310  0.00  0.00    +0.000 A 
ATOM     10  C   UNL     1      -0.844  10.784  18.664  0.00  0.00    +0.000 A 
ATOM     11  C   UNL     1      -1.370  12.005  18.224  0.00  0.00    +0.000 A 
ATOM     12  C   UNL     1      -0.699  13.188  18.497  0.00  0.00    +0.000 A 
ATOM     13  C   UNL     1       0.515  13.142  19.170  0.00  0.00    +0.000 A 
ATOM     14  C   UNL     1       1.076  11.908  19.528  0.00  0.00    +0.000 A 
ENDBRANCH   8   9
BRANCH   4  15
ATOM     15  O   UNL     1       2.031   5.410  20.690  0.00  0.00    +0.000 OA
BRANCH  15  16
ATOM     16  C   UNL     1       2.187   4.609  19.501  0.00  0.00    +0.000 C 
BRANCH  16  17
ATOM     17  C   UNL     1       1.184   3.463  19.609  0.00  0.00    +0.000 C 
ATOM     18  O   UNL     1       0.779   2.811  18.653  0.00  0.00    +0.000 OA
BRANCH  17  19
ATOM     19  O   UNL     1       0.752   3.239  20.875  0.00  0.00    +0.000 OA
ATOM     20  H   UNL     1      -0.010   2.617  20.851  0.00  0.00    +0.000 HD
ENDBRANCH  17  19
ENDBRANCH  16  17
BRANCH  16  21
ATOM     21  C   UNL     1       3.601   4.051  19.238  0.00  0.00    +0.000 C 
BRANCH  21  22
ATOM     22  C   UNL     1       4.355   4.588  18.045  0.00  0.00    +0.000 A 
ATOM     23  C   UNL     1       4.511   3.806  16.892  0.00  0.00    +0.000 A 
ATOM     24  C   UNL     1       5.121   4.328  15.751  0.00  0.00    +0.000 A 
ATOM     25  C   UNL     1       5.596   5.636  15.749  0.00  0.00    +0.000 A 
ATOM     26  C   UNL     1       5.472   6.420  16.894  0.00  0.00    +0.000 A 
ATOM     27  C   UNL     1       4.851   5.901  18.034  0.00  0.00    +0.000 A 
ENDBRANCH  21  22
ENDBRANCH  16  21
ENDBRANCH  15  16
ENDBRANCH   4  15
TORSDOF 7
ENDMDL
MODEL 4
REMARK VINA RESULT:      -7.5      0.527      1.073
REMARK  Name = 
REMARK  9 active torsions:
REMARK  status: ('A' for Active; 'I' for Inactive)
REMARK    1  A    between atoms: C_1  and  C_2
REMARK    2  A    between atoms: C_4  and  O_5
REMARK    3  A    between atoms: O_5  and  C_6
REMARK    4  A    between atoms: C_6  and  C_7
REMARK    5  A    between atoms: C_6  and  C_14
REMARK    6  A    between atoms: C_7  and  C_8
REMARK    7  A    between atoms: C_14  and  O_16
REMARK    8  A    between atoms: C_18  and  C_19
REMARK    9  A    between atoms: C_20  and  C_21
REMARK                            x       y       z     vdW  Elec       q    Type
REMARK                         _______ _______ _______ _____ _____    ______ ____
ROOT
ATOM      1  C   UNL     1      -0.088   8.693  21.949  0.00  0.00    +0.000 C 
ATOM      2  C   UNL     1       0.853   8.145  20.902  0.00  0.00    +0.000 A 
ATOM      3  C   UNL     1       1.379   6.866  21.185  0.00  0.00    +0.000 A 
ATOM      4  C   UNL     1       2.114   6.177  20.236  0.00  0.00    +0.000 A 
ATOM      5  C   UNL     1       2.512   6.832  19.088  0.00  0.00    +0.000 A 
ATOM      6  C   UNL     1       2.084   8.147  18.800  0.00  0.00    +0.000 A 
ATOM      7  C   UNL     1       2.591   8.708  17.495  0.00  0.00    +0.000 C 
ATOM      8  C   UNL     1       1.183   8.820  19.682  0.00  0.00    +0.000 A 
ENDROOT
BRANCH   8   9
ATOM      9  C   UNL     1       0.571  10.145  19.320  0.00  0.00    +0.000 A 
ATOM     10  C   UNL     1       1.206  11.363  19.637  0.00  0.00    +0.000 A 
ATOM     11  C   UNL     1       0.648  12.606  19.312  0.00  0.00    +0.000 A 
ATOM     12  C   UNL     1      -0.527  12.669  18.577  0.00  0.00    +0.000 A 
ATOM     13  C   UNL     1      -1.161  11.490  18.208  0.00  0.00    +0.000 A 
ATOM     14  C   UNL     1      -0.642  10.252  18.614  0.00  0.00    +0.000 A 
ENDBRANCH   8   9
BRANCH   4  15
ATOM     15  O   UNL     1       2.448   4.858  20.294  0.00  0.00    +0.000 OA
BRANCH  15  16
ATOM     16  C   UNL     1       2.127   4.038  19.153  0.00  0.00    +0.000 C 
BRANCH  16  17
ATOM     17  C   UNL     1       0.990   3.113  19.583  0.00  0.00    +0.000 C 
ATOM     18  O   UNL     1       0.330   2.429  18.810  0.00  0.00    +0.000 OA
BRANCH  17  19
ATOM     19  O   UNL     1       0.754   3.130  20.919  0.00  0.00    +0.000 OA
ATOM     20  H   UNL     1       1.565   2.837  21.394  0.00  0.00    +0.000 HD
ENDBRANCH  17  19
ENDBRANCH  16  17
BRANCH  16  21
ATOM     21  C   UNL     1       3.287   3.211  18.562  0.00  0.00    +0.000 C 
BRANCH  21  22
ATOM     22  C   UNL     1       4.425   3.964  17.914  0.00  0.00    +0.000 A 
ATOM     23  C   UNL     1       5.486   4.452  18.688  0.00  0.00    +0.000 A 
ATOM     24  C   UNL     1       6.587   5.063  18.087  0.00  0.00    +0.000 A 
ATOM     25  C   UNL     1       6.638   5.207  16.704  0.00  0.00    +0.000 A 
ATOM     26  C   UNL     1       5.581   4.749  15.920  0.00  0.00    +0.000 A 
ATOM     27  C   UNL     1       4.482   4.127  16.521  0.00  0.00    +0.000 A 
ENDBRANCH  21  22
ENDBRANCH  16  21
ENDBRANCH  15  16
ENDBRANCH   4  15
TORSDOF 7
ENDMDL
MODEL 5
REMARK VINA RESULT:      -7.4      0.822      1.411
REMARK  Name = 
REMARK  9 active torsions:
REMARK  status: ('A' for Active; 'I' for Inactive)
REMARK    1  A    between atoms: C_1  and  C_2
REMARK    2  A    between atoms: C_4  and  O_5
REMARK    3  A    between atoms: O_5  and  C_6
REMARK    4  A    between atoms: C_6  and  C_7
REMARK    5  A    between atoms: C_6  and  C_14
REMARK    6  A    between atoms: C_7  and  C_8
REMARK    7  A    between atoms: C_14  and  O_16
REMARK    8  A    between atoms: C_18  and  C_19
REMARK    9  A    between atoms: C_20  and  C_21
REMARK                            x       y       z     vdW  Elec       q    Type
REMARK                         _______ _______ _______ _____ _____    ______ ____
ROOT
ATOM      1  C   UNL     1      -0.131   8.843  22.294  0.00  0.00    +0.000 C 
ATOM      2  C   UNL     1       0.735   8.562  21.089  0.00  0.00    +0.000 A 
ATOM      3  C   UNL     1       1.429   7.334  21.127  0.00  0.00    +0.000 A 
ATOM      4  C   UNL     1       2.119   6.877  20.018  0.00  0.00    +0.000 A 
ATOM      5  C   UNL     1       2.304   7.724  18.944  0.00  0.00    +0.000 A 
ATOM      6  C   UNL     1       1.703   9.001  18.897  0.00  0.00    +0.000 A 
ATOM      7  C   UNL     1       1.987   9.791  17.644  0.00  0.00    +0.000 C 
ATOM      8  C   UNL     1       0.843   9.431  19.955  0.00  0.00    +0.000 A 
ENDROOT
BRANCH   8   9
ATOM      9  C   UNL     1       0.050  10.704  19.854  0.00  0.00    +0.000 A 
ATOM     10  C   UNL     1      -1.233  10.733  19.270  0.00  0.00    +0.000 A 
ATOM     11  C   UNL     1      -1.982  11.911  19.163  0.00  0.00    +0.000 A 
ATOM     12  C   UNL     1      -1.507  13.089  19.722  0.00  0.00    +0.000 A 
ATOM     13  C   UNL     1      -0.265  13.094  20.344  0.00  0.00    +0.000 A 
ATOM     14  C   UNL     1       0.516  11.930  20.368  0.00  0.00    +0.000 A 
ENDBRANCH   8   9
BRANCH   4  15
ATOM     15  O   UNL     1       2.601   5.614  19.848  0.00  0.00    +0.000 OA
BRANCH  15  16
ATOM     16  C   UNL     1       2.210   4.906  18.655  0.00  0.00    +0.000 C 
BRANCH  16  17
ATOM     17  C   UNL     1       1.258   3.796  19.097  0.00  0.00    +0.000 C 
ATOM     18  O   UNL     1       0.768   3.716  20.218  0.00  0.00    +0.000 OA
BRANCH  17  19
ATOM     19  O   UNL     1       1.015   2.875  18.132  0.00  0.00    +0.000 OA
ATOM     20  H   UNL     1       1.837   2.362  17.960  0.00  0.00    +0.000 HD
ENDBRANCH  17  19
ENDBRANCH  16  17
BRANCH  16  21
ATOM     21  C   UNL     1       3.357   4.314  17.809  0.00  0.00    +0.000 C 
BRANCH  21  22
ATOM     22  C   UNL     1       4.670   5.059  17.792  0.00  0.00    +0.000 A 
ATOM     23  C   UNL     1       4.857   6.152  16.936  0.00  0.00    +0.000 A 
ATOM     24  C   UNL     1       6.030   6.905  16.983  0.00  0.00    +0.000 A 
ATOM     25  C   UNL     1       7.041   6.568  17.877  0.00  0.00    +0.000 A 
ATOM     26  C   UNL     1       6.884   5.470  18.719  0.00  0.00    +0.000 A 
ATOM     27  C   UNL     1       5.703   4.722  18.681  0.00  0.00    +0.000 A 
ENDBRANCH  21  22
ENDBRANCH  16  21
ENDBRANCH  15  16
ENDBRANCH   4  15
TORSDOF 7
ENDMDL
MODEL 6
REMARK VINA RESULT:      -7.4      0.816      2.408
REMARK  Name = 
REMARK  9 active torsions:
REMARK  status: ('A' for Active; 'I' for Inactive)
REMARK    1  A    between atoms: C_1  and  C_2
REMARK    2  A    between atoms: C_4  and  O_5
REMARK    3  A    between atoms: O_5  and  C_6
REMARK    4  A    between atoms: C_6  and  C_7
REMARK    5  A    between atoms: C_6  and  C_14
REMARK    6  A    between atoms: C_7  and  C_8
REMARK    7  A    between atoms: C_14  and  O_16
REMARK    8  A    between atoms: C_18  and  C_19
REMARK    9  A    between atoms: C_20  and  C_21
REMARK                            x       y       z     vdW  Elec       q    Type
REMARK                         _______ _______ _______ _____ _____    ______ ____
ROOT
ATOM      1  C   UNL     1       2.088   9.562  17.685  0.00  0.00    +0.000 C 
ATOM      2  C   UNL     1       1.664   8.875  18.962  0.00  0.00    +0.000 A 
ATOM      3  C   UNL     1       2.161   7.565  19.129  0.00  0.00    +0.000 A 
ATOM      4  C   UNL     1       1.992   6.890  20.324  0.00  0.00    +0.000 A 
ATOM      5  C   UNL     1       1.150   7.419  21.282  0.00  0.00    +0.000 A 
ATOM      6  C   UNL     1       0.555   8.690  21.124  0.00  0.00    +0.000 A 
ATOM      7  C   UNL     1      -0.318   9.130  22.272  0.00  0.00    +0.000 C 
ATOM      8  C   UNL     1       0.851   9.485  19.973  0.00  0.00    +0.000 A 
ENDROOT
BRANCH   8   9
ATOM      9  C   UNL     1       0.378  10.907  19.857  0.00  0.00    +0.000 A 
ATOM     10  C   UNL     1      -0.844  11.231  19.233  0.00  0.00    +0.000 A 
ATOM     11  C   UNL     1      -1.297  12.551  19.111  0.00  0.00    +0.000 A 
ATOM     12  C   UNL     1      -0.581  13.587  19.693  0.00  0.00    +0.000 A 
ATOM     13  C   UNL     1       0.607  13.305  20.355  0.00  0.00    +0.000 A 
ATOM     14  C   UNL     1       1.097  11.992  20.395  0.00  0.00    +0.000 A 
ENDBRANCH   8   9
BRANCH   4  15
ATOM     15  O   UNL     1       2.637   5.747  20.690  0.00  0.00    +0.000 OA
BRANCH  15  16
ATOM     16  C   UNL     1       2.326   4.543  19.961  0.00  0.00    +0.000 C 
BRANCH  16  17
ATOM     17  C   UNL     1       1.703   3.573  20.963  0.00  0.00    +0.000 C 
ATOM     18  O   UNL     1       2.210   3.276  22.039  0.00  0.00    +0.000 OA
BRANCH  17  19
ATOM     19  O   UNL     1       0.528   3.040  20.543  0.00  0.00    +0.000 OA
ATOM     20  H   UNL     1       0.437   3.183  19.573  0.00  0.00    +0.000 HD
ENDBRANCH  17  19
ENDBRANCH  16  17
BRANCH  16  21
ATOM     21  C   UNL     1       3.505   3.866  19.232  0.00  0.00    +0.000 C 
BRANCH  21  22
ATOM     22  C   UNL     1       4.491   4.759  18.518  0.00  0.00    +0.000 A 
ATOM     23  C   UNL     1       5.709   5.100  19.121  0.00  0.00    +0.000 A 
ATOM     24  C   UNL     1       6.666   5.843  18.430  0.00  0.00    +0.000 A 
ATOM     25  C   UNL     1       6.416   6.268  17.130  0.00  0.00    +0.000 A 
ATOM     26  C   UNL     1       5.201   5.960  16.522  0.00  0.00    +0.000 A 
ATOM     27  C   UNL     1       4.246   5.205  17.210  0.00  0.00    +0.000 A 
ENDBRANCH  21  22
ENDBRANCH  16  21
ENDBRANCH  15  16
ENDBRANCH   4  15
TORSDOF 7
ENDMDL
MODEL 7
REMARK VINA RESULT:      -7.4      1.070      1.851
REMARK  Name = 
REMARK  9 active torsions:
REMARK  status: ('A' for Active; 'I' for Inactive)
REMARK    1  A    between atoms: C_1  and  C_2
REMARK    2  A    between atoms: C_4  and  O_5
REMARK    3  A    between atoms: O_5  and  C_6
REMARK    4  A    between atoms: C_6  and  C_7
REMARK    5  A    between atoms: C_6  and  C_14
REMARK    6  A    between atoms: C_7  and  C_8
REMARK    7  A    between atoms: C_14  and  O_16
REMARK    8  A    between atoms: C_18  and  C_19
REMARK    9  A    between atoms: C_20  and  C_21
REMARK                            x       y       z     vdW  Elec       q    Type
REMARK                         _______ _______ _______ _____ _____    ______ ____
ROOT
ATOM      1  C   UNL     1       0.142   9.090  22.468  0.00  0.00    +0.000 C 
ATOM      2  C   UNL     1       0.893   8.751  21.202  0.00  0.00    +0.000 A 
ATOM      3  C   UNL     1       1.580   7.518  21.228  0.00  0.00    +0.000 A 
ATOM      4  C   UNL     1       2.163   7.008  20.081  0.00  0.00    +0.000 A 
ATOM      5  C   UNL     1       2.255   7.809  18.960  0.00  0.00    +0.000 A 
ATOM      6  C   UNL     1       1.660   9.089  18.914  0.00  0.00    +0.000 A 
ATOM      7  C   UNL     1       1.833   9.823  17.608  0.00  0.00    +0.000 C 
ATOM      8  C   UNL     1       0.902   9.571  20.027  0.00  0.00    +0.000 A 
ENDROOT
BRANCH   8   9
ATOM      9  C   UNL     1       0.112  10.847  19.945  0.00  0.00    +0.000 A 
ATOM     10  C   UNL     1      -1.214  10.867  19.468  0.00  0.00    +0.000 A 
ATOM     11  C   UNL     1      -1.962  12.047  19.380  0.00  0.00    +0.000 A 
ATOM     12  C   UNL     1      -1.436  13.240  19.854  0.00  0.00    +0.000 A 
ATOM     13  C   UNL     1      -0.147  13.255  20.372  0.00  0.00    +0.000 A 
ATOM     14  C   UNL     1       0.626  12.086  20.374  0.00  0.00    +0.000 A 
ENDBRANCH   8   9
BRANCH   4  15
ATOM     15  O   UNL     1       2.619   5.735  19.921  0.00  0.00    +0.000 OA
BRANCH  15  16
ATOM     16  C   UNL     1       2.658   5.203  18.582  0.00  0.00    +0.000 C 
BRANCH  16  17
ATOM     17  C   UNL     1       1.515   4.196  18.477  0.00  0.00    +0.000 C 
ATOM     18  O   UNL     1       1.068   3.562  19.427  0.00  0.00    +0.000 OA
BRANCH  17  19
ATOM     19  O   UNL     1       1.042   4.042  17.215  0.00  0.00    +0.000 OA
ATOM     20  H   UNL     1       0.310   4.683  17.064  0.00  0.00    +0.000 HD
ENDBRANCH  17  19
ENDBRANCH  16  17
BRANCH  16  21
ATOM     21  C   UNL     1       3.985   4.546  18.150  0.00  0.00    +0.000 C 
BRANCH  21  22
ATOM     22  C   UNL     1       5.232   5.397  18.183  0.00  0.00    +0.000 A 
ATOM     23  C   UNL     1       6.270   5.102  19.077  0.00  0.00    +0.000 A 
ATOM     24  C   UNL     1       7.464   5.823  19.048  0.00  0.00    +0.000 A 
ATOM     25  C   UNL     1       7.634   6.858  18.135  0.00  0.00    +0.000 A 
ATOM     26  C   UNL     1       6.603   7.182  17.255  0.00  0.00    +0.000 A 
ATOM     27  C   UNL     1       5.411   6.453  17.276  0.00  0.00    +0.000 A 
ENDBRANCH  21  22
ENDBRANCH  16  21
ENDBRANCH  15  16
ENDBRANCH   4  15
TORSDOF 7
ENDMDL
MODEL 8
REMARK VINA RESULT:      -7.4      0.969      1.178
REMARK  Name = 
REMARK  9 active torsions:
REMARK  status: ('A' for Active; 'I' for Inactive)
REMARK    1  A    between atoms: C_1  and  C_2
REMARK    2  A    between atoms: C_4  and  O_5
REMARK    3  A    between atoms: O_5  and  C_6
REMARK    4  A    between atoms: C_6  and  C_7
REMARK    5  A    between atoms: C_6  and  C_14
REMARK    6  A    between atoms: C_7  and  C_8
REMARK    7  A    between atoms: C_14  and  O_16
REMARK    8  A    between atoms: C_18  and  C_19
REMARK    9  A    between atoms: C_20  and  C_21
REMARK                            x       y       z     vdW  Elec       q    Type
REMARK                         _______ _______ _______ _____ _____    ______ ____
ROOT
ATOM      1  C   UNL     1      -0.187   9.008  22.073  0.00  0.00    +0.000 C 
ATOM      2  C   UNL     1       0.721   8.514  20.971  0.00  0.00    +0.000 A 
ATOM      3  C   UNL     1       1.296   7.244  21.196  0.00  0.00    +0.000 A 
ATOM      4  C   UNL     1       2.007   6.602  20.198  0.00  0.00    +0.000 A 
ATOM      5  C   UNL     1       2.334   7.298  19.051  0.00  0.00    +0.000 A 
ATOM      6  C   UNL     1       1.857   8.606  18.818  0.00  0.00    +0.000 A 
ATOM      7  C   UNL     1       2.288   9.215  17.507  0.00  0.00    +0.000 C 
ATOM      8  C   UNL     1       0.977   9.230  19.757  0.00  0.00    +0.000 A 
ENDROOT
BRANCH   8   9
ATOM      9  C   UNL     1       0.313  10.545  19.458  0.00  0.00    +0.000 A 
ATOM     10  C   UNL     1       0.900  11.771  19.829  0.00  0.00    +0.000 A 
ATOM     11  C   UNL     1       0.292  13.004  19.564  0.00  0.00    +0.000 A 
ATOM     12  C   UNL     1      -0.887  13.055  18.834  0.00  0.00    +0.000 A 
ATOM     13  C   UNL     1      -1.476  11.870  18.412  0.00  0.00    +0.000 A 
ATOM     14  C   UNL     1      -0.906  10.636  18.760  0.00  0.00    +0.000 A 
ENDBRANCH   8   9
BRANCH   4  15
ATOM     15  O   UNL     1       2.381   5.292  20.205  0.00  0.00    +0.000 OA
BRANCH  15  16
ATOM     16  C   UNL     1       2.836   4.721  18.963  0.00  0.00    +0.000 C 
BRANCH  16  17
ATOM     17  C   UNL     1       1.750   3.753  18.501  0.00  0.00    +0.000 C 
ATOM     18  O   UNL     1       1.496   2.689  19.054  0.00  0.00    +0.000 OA
BRANCH  17  19
ATOM     19  O   UNL     1       1.091   4.168  17.390  0.00  0.00    +0.000 OA
ATOM     20  H   UNL     1       1.519   3.777  16.595  0.00  0.00    +0.000 HD
ENDBRANCH  17  19
ENDBRANCH  16  17
BRANCH  16  21
ATOM     21  C   UNL     1       4.201   4.004  19.006  0.00  0.00    +0.000 C 
BRANCH  21  22
ATOM     22  C   UNL     1       5.122   4.179  17.822  0.00  0.00    +0.000 A 
ATOM     23  C   UNL     1       4.630   4.064  16.515  0.00  0.00    +0.000 A 
ATOM     24  C   UNL     1       5.451   4.320  15.417  0.00  0.00    +0.000 A 
ATOM     25  C   UNL     1       6.781   4.681  15.607  0.00  0.00    +0.000 A 
ATOM     26  C   UNL     1       7.295   4.776  16.899  0.00  0.00    +0.000 A 
ATOM     27  C   UNL     1       6.469   4.531  18.000  0.00  0.00    +0.000 A 
ENDBRANCH  21  22
ENDBRANCH  16  21
ENDBRANCH  15  16
ENDBRANCH   4  15
TORSDOF 7
ENDMDL
MODEL 9
REMARK VINA RESULT:      -7.4      0.910      1.273
REMARK  Name = 
REMARK  9 active torsions:
REMARK  status: ('A' for Active; 'I' for Inactive)
REMARK    1  A    between atoms: C_1  and  C_2
REMARK    2  A    between atoms: C_4  and  O_5
REMARK    3  A    between atoms: O_5  and  C_6
REMARK    4  A    between atoms: C_6  and  C_7
REMARK    5  A    between atoms: C_6  and  C_14
REMARK    6  A    between atoms: C_7  and  C_8
REMARK    7  A    between atoms: C_14  and  O_16
REMARK    8  A    between atoms: C_18  and  C_19
REMARK    9  A    between atoms: C_20  and  C_21
REMARK                            x       y       z     vdW  Elec       q    Type
REMARK                         _______ _______ _______ _____ _____    ______ ____
ROOT
ATOM      1  C   UNL     1      -0.386   8.760  22.282  0.00  0.00    +0.000 C 
ATOM      2  C   UNL     1       0.556   8.535  21.123  0.00  0.00    +0.000 A 
ATOM      3  C   UNL     1       1.310   7.344  21.190  0.00  0.00    +0.000 A 
ATOM      4  C   UNL     1       2.080   6.932  20.117  0.00  0.00    +0.000 A 
ATOM      5  C   UNL     1       2.276   7.797  19.058  0.00  0.00    +0.000 A 
ATOM      6  C   UNL     1       1.612   9.041  18.987  0.00  0.00    +0.000 A 
ATOM      7  C   UNL     1       1.919   9.855  17.754  0.00  0.00    +0.000 C 
ATOM      8  C   UNL     1       0.676   9.417  20.000  0.00  0.00    +0.000 A 
ENDROOT
BRANCH   8   9
ATOM      9  C   UNL     1      -0.176  10.648  19.865  0.00  0.00    +0.000 A 
ATOM     10  C   UNL     1       0.182  11.866  20.480  0.00  0.00    +0.000 A 
ATOM     11  C   UNL     1      -0.603  13.020  20.369  0.00  0.00    +0.000 A 
ATOM     12  C   UNL     1      -1.731  13.018  19.562  0.00  0.00    +0.000 A 
ATOM     13  C   UNL     1      -2.094  11.850  18.904  0.00  0.00    +0.000 A 
ATOM     14  C   UNL     1      -1.352  10.675  19.092  0.00  0.00    +0.000 A 
ENDBRANCH   8   9
BRANCH   4  15
ATOM     15  O   UNL     1       2.636   5.698  19.965  0.00  0.00    +0.000 OA
BRANCH  15  16
ATOM     16  C   UNL     1       2.154   4.877  18.882  0.00  0.00    +0.000 C 
BRANCH  16  17
ATOM     17  C   UNL     1       1.607   3.599  19.512  0.00  0.00    +0.000 C 
ATOM     18  O   UNL     1       2.104   2.488  19.358  0.00  0.00    +0.000 OA
BRANCH  17  19
ATOM     19  O   UNL     1       0.488   3.795  20.253  0.00  0.00    +0.000 OA
ATOM     20  H   UNL     1       0.514   3.204  21.040  0.00  0.00    +0.000 HD
ENDBRANCH  17  19
ENDBRANCH  16  17
BRANCH  16  21
ATOM     21  C   UNL     1       3.180   4.529  17.785  0.00  0.00    +0.000 C 
BRANCH  21  22
ATOM     22  C   UNL     1       4.522   5.220  17.836  0.00  0.00    +0.000 A 
ATOM     23  C   UNL     1       5.528   4.757  18.695  0.00  0.00    +0.000 A 
ATOM     24  C   UNL     1       6.801   5.328  18.679  0.00  0.00    +0.000 A 
ATOM     25  C   UNL     1       7.084   6.379  17.813  0.00  0.00    +0.000 A 
ATOM     26  C   UNL     1       6.090   6.870  16.969  0.00  0.00    +0.000 A 
ATOM     27  C   UNL     1       4.817   6.290  16.977  0.00  0.00    +0.000 A 
ENDBRANCH  21  22
ENDBRANCH  16  21
ENDBRANCH  15  16
ENDBRANCH   4  15
TORSDOF 7
ENDMDL
