MODEL 1
REMARK VINA RESULT:      -7.9      0.000      0.000
REMARK  Name = 
REMARK  0 active torsions:
REMARK  status: ('A' for Active; 'I' for Inactive)
REMARK                            x       y       z     vdW  Elec       q    Type
REMARK                         _______ _______ _______ _____ _____    ______ ____
ROOT
ATOM      1  C   UNL     1       5.829   4.951  16.917  0.00  0.00    +0.000 A 
ATOM      2  C   UNL     1       5.805   4.434  18.207  0.00  0.00    +0.000 A 
ATOM      3  C   UNL     1       4.799   4.818  19.089  0.00  0.00    +0.000 A 
ATOM      4  C   UNL     1       3.920   5.835  18.771  0.00  0.00    +0.000 A 
ATOM      5  N   UNL     1       3.081   6.232  19.731  0.00  0.00    +0.000 NA
ATOM      6  C   UNL     1       2.401   7.341  19.454  0.00  0.00    +0.000 A 
ATOM      7  C   UNL     1       2.462   8.092  18.276  0.00  0.00    +0.000 A 
ATOM      8  C   UNL     1       3.256   7.625  17.248  0.00  0.00    +0.000 A 
ATOM      9  C   UNL     1       4.019   6.462  17.493  0.00  0.00    +0.000 A 
ATOM     10  C   UNL     1       4.924   5.948  16.549  0.00  0.00    +0.000 A 
ATOM     11  C   UNL     1       1.627   9.358  18.421  0.00  0.00    +0.000 C 
ATOM     12  N   UNL     1       1.127   9.187  19.777  0.00  0.00    +0.000 N 
ATOM     13  C   UNL     1       1.567   8.040  20.380  0.00  0.00    +0.000 A 
ATOM     14  N   UNL     1       1.145   7.931  21.611  0.00  0.00    +0.000 NA
ATOM     15  C   UNL     1       0.407   9.080  21.808  0.00  0.00    +0.000 A 
ATOM     16  C   UNL     1      -0.279   9.484  22.961  0.00  0.00    +0.000 A 
ATOM     17  C   UNL     1      -0.971  10.697  22.935  0.00  0.00    +0.000 A 
ATOM     18  C   UNL     1      -0.985  11.487  21.783  0.00  0.00    +0.000 A 
ATOM     19  C   UNL     1      -0.307  11.107  20.616  0.00  0.00    +0.000 A 
ATOM     20  C   UNL     1       0.379   9.892  20.660  0.00  0.00    +0.000 A 
ENDROOT
TORSDOF 0
ENDMDL
MODEL 2
REMARK VINA RESULT:      -7.7      4.790      6.072
REMARK  Name = 
REMARK  0 active torsions:
REMARK  status: ('A' for Active; 'I' for Inactive)
REMARK                            x       y       z     vdW  Elec       q    Type
REMARK                         _______ _______ _______ _____ _____    ______ ____
ROOT
ATOM      1  C   UNL     1       7.838   4.744  12.598  0.00  0.00    +0.000 A 
ATOM      2  C   UNL     1       6.878   3.828  12.184  0.00  0.00    +0.000 A 
ATOM      3  C   UNL     1       5.724   3.644  12.941  0.00  0.00    +0.000 A 
ATOM      4  C   UNL     1       5.586   4.226  14.186  0.00  0.00    +0.000 A 
ATOM      5  N   UNL     1       4.510   3.883  14.899  0.00  0.00    +0.000 NA
ATOM      6  C   UNL     1       4.522   4.300  16.162  0.00  0.00    +0.000 A 
ATOM      7  C   UNL     1       5.513   5.065  16.785  0.00  0.00    +0.000 A 
ATOM      8  C   UNL     1       6.575   5.501  16.019  0.00  0.00    +0.000 A 
ATOM      9  C   UNL     1       6.627   5.070  14.675  0.00  0.00    +0.000 A 
ATOM     10  C   UNL     1       7.705   5.385  13.830  0.00  0.00    +0.000 A 
ATOM     11  C   UNL     1       5.202   5.209  18.270  0.00  0.00    +0.000 C 
ATOM     12  N   UNL     1       3.961   4.455  18.352  0.00  0.00    +0.000 N 
ATOM     13  C   UNL     1       3.564   3.925  17.154  0.00  0.00    +0.000 A 
ATOM     14  N   UNL     1       2.474   3.214  17.260  0.00  0.00    +0.000 NA
ATOM     15  C   UNL     1       2.167   3.282  18.603  0.00  0.00    +0.000 A 
ATOM     16  C   UNL     1       1.089   2.694  19.279  0.00  0.00    +0.000 A 
ATOM     17  C   UNL     1       0.971   2.901  20.655  0.00  0.00    +0.000 A 
ATOM     18  C   UNL     1       1.903   3.682  21.343  0.00  0.00    +0.000 A 
ATOM     19  C   UNL     1       2.991   4.281  20.692  0.00  0.00    +0.000 A 
ATOM     20  C   UNL     1       3.094   4.064  19.317  0.00  0.00    +0.000 A 
ENDROOT
TORSDOF 0
ENDMDL
MODEL 3
REMARK VINA RESULT:      -7.5      1.263      6.681
REMARK  Name = 
REMARK  0 active torsions:
REMARK  status: ('A' for Active; 'I' for Inactive)
REMARK                            x       y       z     vdW  Elec       q    Type
REMARK                         _______ _______ _______ _____ _____    ______ ____
ROOT
ATOM      1  C   UNL     1      -1.014  11.715  22.044  0.00  0.00    +0.000 A 
ATOM      2  C   UNL     1      -1.117  10.707  22.997  0.00  0.00    +0.000 A 
ATOM      3  C   UNL     1      -0.325   9.568  22.888  0.00  0.00    +0.000 A 
ATOM      4  C   UNL     1       0.441   9.334  21.763  0.00  0.00    +0.000 A 
ATOM      5  N   UNL     1       1.057   8.153  21.683  0.00  0.00    +0.000 NA
ATOM      6  C   UNL     1       1.607   7.888  20.502  0.00  0.00    +0.000 A 
ATOM      7  C   UNL     1       1.624   8.720  19.378  0.00  0.00    +0.000 A 
ATOM      8  C   UNL     1       1.072   9.979  19.493  0.00  0.00    +0.000 A 
ATOM      9  C   UNL     1       0.453  10.308  20.719  0.00  0.00    +0.000 A 
ATOM     10  C   UNL     1      -0.213  11.530  20.917  0.00  0.00    +0.000 A 
ATOM     11  C   UNL     1       2.240   7.983  18.195  0.00  0.00    +0.000 C 
ATOM     12  N   UNL     1       2.542   6.702  18.813  0.00  0.00    +0.000 N 
ATOM     13  C   UNL     1       2.181   6.633  20.131  0.00  0.00    +0.000 A 
ATOM     14  N   UNL     1       2.418   5.460  20.653  0.00  0.00    +0.000 NA
ATOM     15  C   UNL     1       2.948   4.735  19.605  0.00  0.00    +0.000 A 
ATOM     16  C   UNL     1       3.383   3.403  19.602  0.00  0.00    +0.000 A 
ATOM     17  C   UNL     1       3.893   2.870  18.416  0.00  0.00    +0.000 A 
ATOM     18  C   UNL     1       3.973   3.649  17.259  0.00  0.00    +0.000 A 
ATOM     19  C   UNL     1       3.544   4.984  17.234  0.00  0.00    +0.000 A 
ATOM     20  C   UNL     1       3.038   5.501  18.428  0.00  0.00    +0.000 A 
ENDROOT
TORSDOF 0
ENDMDL
MODEL 4
REMARK VINA RESULT:      -7.5      4.618      8.342
REMARK  Name = 
REMARK  0 active torsions:
REMARK  status: ('A' for Active; 'I' for Inactive)
REMARK                            x       y       z     vdW  Elec       q    Type
REMARK                         _______ _______ _______ _____ _____    ______ ____
ROOT
ATOM      1  C   UNL     1       1.425   4.288  20.825  0.00  0.00    +0.000 A 
ATOM      2  C   UNL     1       0.847   3.455  19.874  0.00  0.00    +0.000 A 
ATOM      3  C   UNL     1       1.576   3.076  18.750  0.00  0.00    +0.000 A 
ATOM      4  C   UNL     1       2.803   3.644  18.469  0.00  0.00    +0.000 A 
ATOM      5  N   UNL     1       3.365   3.325  17.300  0.00  0.00    +0.000 NA
ATOM      6  C   UNL     1       4.434   4.047  16.980  0.00  0.00    +0.000 A 
ATOM      7  C   UNL     1       5.024   5.060  17.743  0.00  0.00    +0.000 A 
ATOM      8  C   UNL     1       4.500   5.320  18.993  0.00  0.00    +0.000 A 
ATOM      9  C   UNL     1       3.349   4.599  19.378  0.00  0.00    +0.000 A 
ATOM     10  C   UNL     1       2.685   4.843  20.592  0.00  0.00    +0.000 A 
ATOM     11  C   UNL     1       6.146   5.721  16.952  0.00  0.00    +0.000 C 
ATOM     12  N   UNL     1       6.084   4.953  15.718  0.00  0.00    +0.000 N 
ATOM     13  C   UNL     1       5.106   3.996  15.720  0.00  0.00    +0.000 A 
ATOM     14  N   UNL     1       5.037   3.351  14.586  0.00  0.00    +0.000 NA
ATOM     15  C   UNL     1       6.018   3.940  13.814  0.00  0.00    +0.000 A 
ATOM     16  C   UNL     1       6.384   3.637  12.496  0.00  0.00    +0.000 A 
ATOM     17  C   UNL     1       7.418   4.367  11.906  0.00  0.00    +0.000 A 
ATOM     18  C   UNL     1       8.079   5.373  12.616  0.00  0.00    +0.000 A 
ATOM     19  C   UNL     1       7.732   5.697  13.935  0.00  0.00    +0.000 A 
ATOM     20  C   UNL     1       6.697   4.958  14.509  0.00  0.00    +0.000 A 
ENDROOT
TORSDOF 0
ENDMDL
MODEL 5
REMARK VINA RESULT:      -7.3      1.446      2.827
REMARK  Name = 
REMARK  0 active torsions:
REMARK  status: ('A' for Active; 'I' for Inactive)
REMARK                            x       y       z     vdW  Elec       q    Type
REMARK                         _______ _______ _______ _____ _____    ______ ____
ROOT
ATOM      1  C   UNL     1       5.959   3.739  15.752  0.00  0.00    +0.000 A 
ATOM      2  C   UNL     1       5.857   4.775  14.830  0.00  0.00    +0.000 A 
ATOM      3  C   UNL     1       5.330   6.003  15.223  0.00  0.00    +0.000 A 
ATOM      4  C   UNL     1       4.747   6.166  16.464  0.00  0.00    +0.000 A 
ATOM      5  N   UNL     1       4.143   7.333  16.701  0.00  0.00    +0.000 NA
ATOM      6  C   UNL     1       3.422   7.371  17.817  0.00  0.00    +0.000 A 
ATOM      7  C   UNL     1       3.263   6.343  18.751  0.00  0.00    +0.000 A 
ATOM      8  C   UNL     1       3.966   5.172  18.554  0.00  0.00    +0.000 A 
ATOM      9  C   UNL     1       4.733   5.065  17.373  0.00  0.00    +0.000 A 
ATOM     10  C   UNL     1       5.420   3.888  17.030  0.00  0.00    +0.000 A 
ATOM     11  C   UNL     1       2.250   6.754  19.812  0.00  0.00    +0.000 C 
ATOM     12  N   UNL     1       1.907   8.088  19.343  0.00  0.00    +0.000 N 
ATOM     13  C   UNL     1       2.566   8.450  18.200  0.00  0.00    +0.000 A 
ATOM     14  N   UNL     1       2.208   9.631  17.770  0.00  0.00    +0.000 NA
ATOM     15  C   UNL     1       1.257  10.037  18.684  0.00  0.00    +0.000 A 
ATOM     16  C   UNL     1       0.533  11.237  18.707  0.00  0.00    +0.000 A 
ATOM     17  C   UNL     1      -0.386  11.441  19.738  0.00  0.00    +0.000 A 
ATOM     18  C   UNL     1      -0.577  10.473  20.729  0.00  0.00    +0.000 A 
ATOM     19  C   UNL     1       0.134   9.265  20.728  0.00  0.00    +0.000 A 
ATOM     20  C   UNL     1       1.049   9.077  19.691  0.00  0.00    +0.000 A 
ENDROOT
TORSDOF 0
ENDMDL
MODEL 6
REMARK VINA RESULT:      -7.3      1.198      7.074
REMARK  Name = 
REMARK  0 active torsions:
REMARK  status: ('A' for Active; 'I' for Inactive)
REMARK                            x       y       z     vdW  Elec       q    Type
REMARK                         _______ _______ _______ _____ _____    ______ ____
ROOT
ATOM      1  C   UNL     1      -0.422  10.332  22.452  0.00  0.00    +0.000 A 
ATOM      2  C   UNL     1       0.006  11.208  21.462  0.00  0.00    +0.000 A 
ATOM      3  C   UNL     1       0.608  10.711  20.309  0.00  0.00    +0.000 A 
ATOM      4  C   UNL     1       0.946   9.377  20.198  0.00  0.00    +0.000 A 
ATOM      5  N   UNL     1       1.646   9.017  19.119  0.00  0.00    +0.000 NA
ATOM      6  C   UNL     1       2.126   7.777  19.154  0.00  0.00    +0.000 A 
ATOM      7  C   UNL     1       1.949   6.835  20.172  0.00  0.00    +0.000 A 
ATOM      8  C   UNL     1       1.144   7.177  21.240  0.00  0.00    +0.000 A 
ATOM      9  C   UNL     1       0.624   8.490  21.268  0.00  0.00    +0.000 A 
ATOM     10  C   UNL     1      -0.137   8.969  22.348  0.00  0.00    +0.000 A 
ATOM     11  C   UNL     1       2.775   5.589  19.878  0.00  0.00    +0.000 C 
ATOM     12  N   UNL     1       3.387   5.973  18.615  0.00  0.00    +0.000 N 
ATOM     13  C   UNL     1       3.028   7.224  18.193  0.00  0.00    +0.000 A 
ATOM     14  N   UNL     1       3.625   7.567  17.083  0.00  0.00    +0.000 NA
ATOM     15  C   UNL     1       4.420   6.478  16.789  0.00  0.00    +0.000 A 
ATOM     16  C   UNL     1       5.284   6.302  15.700  0.00  0.00    +0.000 A 
ATOM     17  C   UNL     1       5.996   5.105  15.599  0.00  0.00    +0.000 A 
ATOM     18  C   UNL     1       5.847   4.102  16.560  0.00  0.00    +0.000 A 
ATOM     19  C   UNL     1       4.991   4.252  17.660  0.00  0.00    +0.000 A 
ATOM     20  C   UNL     1       4.286   5.454  17.745  0.00  0.00    +0.000 A 
ENDROOT
TORSDOF 0
ENDMDL
MODEL 7
REMARK VINA RESULT:      -7.2      1.622      6.513
REMARK  Name = 
REMARK  0 active torsions:
REMARK  status: ('A' for Active; 'I' for Inactive)
REMARK                            x       y       z     vdW  Elec       q    Type
REMARK                         _______ _______ _______ _____ _____    ______ ____
ROOT
ATOM      1  C   UNL     1      -0.156  12.036  19.815  0.00  0.00    +0.000 A 
ATOM      2  C   UNL     1      -0.554  11.329  20.945  0.00  0.00    +0.000 A 
ATOM      3  C   UNL     1       0.037  10.103  21.238  0.00  0.00    +0.000 A 
ATOM      4  C   UNL     1       0.888   9.488  20.341  0.00  0.00    +0.000 A 
ATOM      5  N   UNL     1       1.295   8.252  20.643  0.00  0.00    +0.000 NA
ATOM      6  C   UNL     1       1.939   7.622  19.665  0.00  0.00    +0.000 A 
ATOM      7  C   UNL     1       2.243   8.128  18.397  0.00  0.00    +0.000 A 
ATOM      8  C   UNL     1       1.908   9.438  18.123  0.00  0.00    +0.000 A 
ATOM      9  C   UNL     1       1.203  10.151  19.118  0.00  0.00    +0.000 A 
ATOM     10  C   UNL     1       0.739  11.461  18.912  0.00  0.00    +0.000 A 
ATOM     11  C   UNL     1       2.869   7.037  17.538  0.00  0.00    +0.000 C 
ATOM     12  N   UNL     1       2.863   5.927  18.478  0.00  0.00    +0.000 N 
ATOM     13  C   UNL     1       2.329   6.248  19.697  0.00  0.00    +0.000 A 
ATOM     14  N   UNL     1       2.290   5.226  20.509  0.00  0.00    +0.000 NA
ATOM     15  C   UNL     1       2.817   4.193  19.761  0.00  0.00    +0.000 A 
ATOM     16  C   UNL     1       3.011   2.858  20.140  0.00  0.00    +0.000 A 
ATOM     17  C   UNL     1       3.569   1.975  19.213  0.00  0.00    +0.000 A 
ATOM     18  C   UNL     1       3.931   2.414  17.936  0.00  0.00    +0.000 A 
ATOM     19  C   UNL     1       3.746   3.743  17.531  0.00  0.00    +0.000 A 
ATOM     20  C   UNL     1       3.188   4.612  18.471  0.00  0.00    +0.000 A 
ENDROOT
TORSDOF 0
ENDMDL
MODEL 8
REMARK VINA RESULT:      -7.1      1.036      7.040
REMARK  Name = 
REMARK  0 active torsions:
REMARK  status: ('A' for Active; 'I' for Inactive)
REMARK                            x       y       z     vdW  Elec       q    Type
REMARK                         _______ _______ _______ _____ _____    ______ ____
ROOT
ATOM      1  C   UNL     1      -0.942  11.808  22.697  0.00  0.00    +0.000 A 
ATOM      2  C   UNL     1      -0.401  12.523  21.634  0.00  0.00    +0.000 A 
ATOM      3  C   UNL     1       0.180  11.843  20.567  0.00  0.00    +0.000 A 
ATOM      4  C   UNL     1       0.387  10.479  20.616  0.00  0.00    +0.000 A 
ATOM      5  N   UNL     1       1.076   9.933  19.611  0.00  0.00    +0.000 NA
ATOM      6  C   UNL     1       1.429   8.665  19.799  0.00  0.00    +0.000 A 
ATOM      7  C   UNL     1       1.130   7.866  20.907  0.00  0.00    +0.000 A 
ATOM      8  C   UNL     1       0.334   8.401  21.899  0.00  0.00    +0.000 A 
ATOM      9  C   UNL     1      -0.053   9.753  21.763  0.00  0.00    +0.000 A 
ATOM     10  C   UNL     1      -0.792  10.422  22.754  0.00  0.00    +0.000 A 
ATOM     11  C   UNL     1       1.835   6.521  20.783  0.00  0.00    +0.000 C 
ATOM     12  N   UNL     1       2.518   6.699  19.511  0.00  0.00    +0.000 N 
ATOM     13  C   UNL     1       2.298   7.924  18.941  0.00  0.00    +0.000 A 
ATOM     14  N   UNL     1       2.957   8.080  17.824  0.00  0.00    +0.000 NA
ATOM     15  C   UNL     1       3.647   6.893  17.682  0.00  0.00    +0.000 A 
ATOM     16  C   UNL     1       4.519   6.514  16.653  0.00  0.00    +0.000 A 
ATOM     17  C   UNL     1       5.111   5.250  16.712  0.00  0.00    +0.000 A 
ATOM     18  C   UNL     1       4.835   4.380  17.770  0.00  0.00    +0.000 A 
ATOM     19  C   UNL     1       3.968   4.735  18.813  0.00  0.00    +0.000 A 
ATOM     20  C   UNL     1       3.385   6.001  18.738  0.00  0.00    +0.000 A 
ENDROOT
TORSDOF 0
ENDMDL
MODEL 9
REMARK VINA RESULT:      -6.9      1.275      1.564
REMARK  Name = 
REMARK  0 active torsions:
REMARK  status: ('A' for Active; 'I' for Inactive)
REMARK                            x       y       z     vdW  Elec       q    Type
REMARK                         _______ _______ _______ _____ _____    ______ ____
ROOT
ATOM      1  C   UNL     1       4.309   3.308  18.579  0.00  0.00    +0.000 A 
ATOM      2  C   UNL     1       3.855   3.004  19.857  0.00  0.00    +0.000 A 
ATOM      3  C   UNL     1       2.924   3.834  20.476  0.00  0.00    +0.000 A 
ATOM      4  C   UNL     1       2.567   5.047  19.922  0.00  0.00    +0.000 A 
ATOM      5  N   UNL     1       1.778   5.839  20.652  0.00  0.00    +0.000 NA
ATOM      6  C   UNL     1       1.630   7.071  20.176  0.00  0.00    +0.000 A 
ATOM      7  C   UNL     1       2.184   7.591  19.003  0.00  0.00    +0.000 A 
ATOM      8  C   UNL     1       2.919   6.743  18.200  0.00  0.00    +0.000 A 
ATOM      9  C   UNL     1       3.129   5.426  18.666  0.00  0.00    +0.000 A 
ATOM     10  C   UNL     1       3.930   4.505  17.970  0.00  0.00    +0.000 A 
ATOM     11  C   UNL     1       1.876   9.080  18.896  0.00  0.00    +0.000 C 
ATOM     12  N   UNL     1       1.109   9.276  20.116  0.00  0.00    +0.000 N 
ATOM     13  C   UNL     1       0.965   8.136  20.859  0.00  0.00    +0.000 A 
ATOM     14  N   UNL     1       0.314   8.345  21.972  0.00  0.00    +0.000 NA
ATOM     15  C   UNL     1       0.039   9.697  21.943  0.00  0.00    +0.000 A 
ATOM     16  C   UNL     1      -0.643  10.465  22.895  0.00  0.00    +0.000 A 
ATOM     17  C   UNL     1      -0.810  11.831  22.656  0.00  0.00    +0.000 A 
ATOM     18  C   UNL     1      -0.313  12.418  21.489  0.00  0.00    +0.000 A 
ATOM     19  C   UNL     1       0.374  11.673  20.521  0.00  0.00    +0.000 A 
ATOM     20  C   UNL     1       0.532  10.310  20.776  0.00  0.00    +0.000 A 
ENDROOT
TORSDOF 0
ENDMDL
