MODEL 1
REMARK VINA RESULT:      -7.7      0.000      0.000
REMARK  Name = 
REMARK  6 active torsions:
REMARK  status: ('A' for Active; 'I' for Inactive)
REMARK    1  A    between atoms: O_1  and  C_2
REMARK    2  A    between atoms: C_3  and  O_4
REMARK    3  A    between atoms: C_8  and  N_9
REMARK    4  A    between atoms: N_14  and  C_15
REMARK    5  A    between atoms: C_15  and  C_16
REMARK    6  A    between atoms: C_15  and  C_22
REMARK                            x       y       z     vdW  Elec       q    Type
REMARK                         _______ _______ _______ _____ _____    ______ ____
ROOT
ATOM      1  N   UNL     1       2.644   7.221  18.958  0.00  0.00    +0.000 N 
ATOM      2  C   UNL     1       2.915   7.834  17.766  0.00  0.00    +0.000 A 
ATOM      3  N   UNL     1       2.302   8.996  17.654  0.00  0.00    +0.000 NA
ATOM      4  C   UNL     1       1.617   9.151  18.838  0.00  0.00    +0.000 A 
ATOM      5  C   UNL     1       0.780  10.181  19.326  0.00  0.00    +0.000 A 
ATOM      6  N   UNL     1       0.444  11.285  18.546  0.00  0.00    +0.000 N 
ATOM      7  N   UNL     1       0.259  10.028  20.570  0.00  0.00    +0.000 NA
ATOM      8  C   UNL     1       0.559   8.909  21.258  0.00  0.00    +0.000 A 
ATOM      9 CL   UNL     1      -0.151   8.783  22.810  0.00  0.00    +0.000 Cl
ATOM     10  N   UNL     1       1.327   7.865  20.898  0.00  0.00    +0.000 NA
ATOM     11  C   UNL     1       1.829   8.059  19.669  0.00  0.00    +0.000 A 
ATOM     12  H   UNL     1       0.982  11.331  17.688  0.00  0.00    +0.000 HD
ENDROOT
BRANCH   1  18
ATOM     13  C   UNL     1       2.072   4.786  19.296  0.00  0.00    +0.000 C 
ATOM     14  C   UNL     1       2.910   3.488  19.158  0.00  0.00    +0.000 C 
ATOM     15  C   UNL     1       4.147   3.907  18.415  0.00  0.00    +0.000 C 
ATOM     16  C   UNL     1       5.357   4.510  19.082  0.00  0.00    +0.000 C 
ATOM     17  C   UNL     1       4.281   5.401  18.518  0.00  0.00    +0.000 C 
ATOM     18  C   UNL     1       3.134   5.913  19.367  0.00  0.00    +0.000 C 
BRANCH  13  19
ATOM     19  O   UNL     1       1.267   4.768  20.473  0.00  0.00    +0.000 OA
ATOM     20  H   UNL     1       0.342   4.659  20.180  0.00  0.00    +0.000 HD
ENDBRANCH  13  19
BRANCH  14  21
ATOM     21  O   UNL     1       3.267   2.936  20.420  0.00  0.00    +0.000 OA
ATOM     22  H   UNL     1       3.809   3.592  20.893  0.00  0.00    +0.000 HD
ENDBRANCH  14  21
ENDBRANCH   1  18
BRANCH   6  23
ATOM     23  C   UNL     1       0.199  12.550  19.222  0.00  0.00    +0.000 C 
BRANCH  23  24
ATOM     24  C   UNL     1       1.134  13.672  18.772  0.00  0.00    +0.000 A 
ATOM     25  C   UNL     1       0.809  15.036  18.876  0.00  0.00    +0.000 A 
ATOM     26  C   UNL     1       1.727  16.023  18.502  0.00  0.00    +0.000 A 
ATOM     27  C   UNL     1       2.988  15.668  18.032  0.00  0.00    +0.000 A 
ATOM     28  C   UNL     1       3.336  14.324  17.937  0.00  0.00    +0.000 A 
ATOM     29  C   UNL     1       2.419  13.335  18.305  0.00  0.00    +0.000 A 
ENDBRANCH  23  24
BRANCH  23  30
ATOM     30  C   UNL     1      -1.231  12.980  18.947  0.00  0.00    +0.000 C 
ATOM     31  C   UNL     1      -2.376  11.991  18.928  0.00  0.00    +0.000 C 
ATOM     32  C   UNL     1      -2.245  12.952  20.073  0.00  0.00    +0.000 C 
ENDBRANCH  23  30
ENDBRANCH   6  23
TORSDOF 6
ENDMDL
MODEL 2
REMARK VINA RESULT:      -7.1      0.801      1.232
REMARK  Name = 
REMARK  6 active torsions:
REMARK  status: ('A' for Active; 'I' for Inactive)
REMARK    1  A    between atoms: O_1  and  C_2
REMARK    2  A    between atoms: C_3  and  O_4
REMARK    3  A    between atoms: C_8  and  N_9
REMARK    4  A    between atoms: N_14  and  C_15
REMARK    5  A    between atoms: C_15  and  C_16
REMARK    6  A    between atoms: C_15  and  C_22
REMARK                            x       y       z     vdW  Elec       q    Type
REMARK                         _______ _______ _______ _____ _____    ______ ____
ROOT
ATOM      1  N   UNL     1       2.268   7.785  19.082  0.00  0.00    +0.000 N 
ATOM      2  C   UNL     1       2.277   8.412  17.866  0.00  0.00    +0.000 A 
ATOM      3  N   UNL     1       1.609   9.548  17.889  0.00  0.00    +0.000 NA
ATOM      4  C   UNL     1       1.163   9.671  19.185  0.00  0.00    +0.000 A 
ATOM      5  C   UNL     1       0.397  10.665  19.838  0.00  0.00    +0.000 A 
ATOM      6  N   UNL     1      -0.127  11.757  19.150  0.00  0.00    +0.000 N 
ATOM      7  N   UNL     1       0.136  10.487  21.158  0.00  0.00    +0.000 NA
ATOM      8  C   UNL     1       0.606   9.380  21.761  0.00  0.00    +0.000 A 
ATOM      9 CL   UNL     1       0.218   9.220  23.421  0.00  0.00    +0.000 Cl
ATOM     10  N   UNL     1       1.330   8.369  21.247  0.00  0.00    +0.000 NA
ATOM     11  C   UNL     1       1.575   8.586  19.947  0.00  0.00    +0.000 A 
ATOM     12  H   UNL     1       0.231  11.828  18.205  0.00  0.00    +0.000 HD
ENDROOT
BRANCH   1  18
ATOM     13  C   UNL     1       1.877   5.315  19.423  0.00  0.00    +0.000 C 
ATOM     14  C   UNL     1       2.750   4.068  19.122  0.00  0.00    +0.000 C 
ATOM     15  C   UNL     1       3.841   4.571  18.220  0.00  0.00    +0.000 C 
ATOM     16  C   UNL     1       5.103   5.225  18.722  0.00  0.00    +0.000 C 
ATOM     17  C   UNL     1       3.913   6.068  18.349  0.00  0.00    +0.000 C 
ATOM     18  C   UNL     1       2.879   6.496  19.373  0.00  0.00    +0.000 C 
BRANCH  13  19
ATOM     19  O   UNL     1       1.257   5.224  20.703  0.00  0.00    +0.000 OA
ATOM     20  H   UNL     1       1.049   6.137  20.981  0.00  0.00    +0.000 HD
ENDBRANCH  13  19
BRANCH  14  21
ATOM     21  O   UNL     1       3.318   3.507  20.301  0.00  0.00    +0.000 OA
ATOM     22  H   UNL     1       2.614   3.036  20.780  0.00  0.00    +0.000 HD
ENDBRANCH  14  21
ENDBRANCH   1  18
BRANCH   6  23
ATOM     23  C   UNL     1      -0.284  13.009  19.875  0.00  0.00    +0.000 C 
BRANCH  23  24
ATOM     24  C   UNL     1       0.583  14.143  19.328  0.00  0.00    +0.000 A 
ATOM     25  C   UNL     1       1.902  13.959  18.880  0.00  0.00    +0.000 A 
ATOM     26  C   UNL     1       2.630  15.021  18.334  0.00  0.00    +0.000 A 
ATOM     27  C   UNL     1       2.050  16.281  18.213  0.00  0.00    +0.000 A 
ATOM     28  C   UNL     1       0.739  16.481  18.634  0.00  0.00    +0.000 A 
ATOM     29  C   UNL     1       0.011  15.422  19.185  0.00  0.00    +0.000 A 
ENDBRANCH  23  24
BRANCH  23  30
ATOM     30  C   UNL     1      -1.738  13.439  19.794  0.00  0.00    +0.000 C 
ATOM     31  C   UNL     1      -2.874  12.439  19.838  0.00  0.00    +0.000 C 
ATOM     32  C   UNL     1      -2.617  13.323  21.024  0.00  0.00    +0.000 C 
ENDBRANCH  23  30
ENDBRANCH   6  23
TORSDOF 6
ENDMDL
MODEL 3
REMARK VINA RESULT:      -6.8      1.195      1.560
REMARK  Name = 
REMARK  6 active torsions:
REMARK  status: ('A' for Active; 'I' for Inactive)
REMARK    1  A    between atoms: O_1  and  C_2
REMARK    2  A    between atoms: C_3  and  O_4
REMARK    3  A    between atoms: C_8  and  N_9
REMARK    4  A    between atoms: N_14  and  C_15
REMARK    5  A    between atoms: C_15  and  C_16
REMARK    6  A    between atoms: C_15  and  C_22
REMARK                            x       y       z     vdW  Elec       q    Type
REMARK                         _______ _______ _______ _____ _____    ______ ____
ROOT
ATOM      1  N   UNL     1       2.334   7.105  18.673  0.00  0.00    +0.000 N 
ATOM      2  C   UNL     1       2.779   7.758  17.557  0.00  0.00    +0.000 A 
ATOM      3  N   UNL     1       2.455   9.035  17.566  0.00  0.00    +0.000 NA
ATOM      4  C   UNL     1       1.785   9.222  18.755  0.00  0.00    +0.000 A 
ATOM      5  C   UNL     1       1.193  10.363  19.344  0.00  0.00    +0.000 A 
ATOM      6  N   UNL     1       1.147  11.590  18.686  0.00  0.00    +0.000 N 
ATOM      7  N   UNL     1       0.609  10.208  20.559  0.00  0.00    +0.000 NA
ATOM      8  C   UNL     1       0.618   8.985  21.124  0.00  0.00    +0.000 A 
ATOM      9 CL   UNL     1      -0.154   8.868  22.647  0.00  0.00    +0.000 Cl
ATOM     10  N   UNL     1       1.136   7.834  20.659  0.00  0.00    +0.000 NA
ATOM     11  C   UNL     1       1.711   8.031  19.463  0.00  0.00    +0.000 A 
ATOM     12  H   UNL     1       1.710  11.597  17.843  0.00  0.00    +0.000 HD
ENDROOT
BRANCH   1  18
ATOM     13  C   UNL     1       1.730   5.183  20.194  0.00  0.00    +0.000 C 
ATOM     14  C   UNL     1       1.530   3.667  19.933  0.00  0.00    +0.000 C 
ATOM     15  C   UNL     1       1.429   3.545  18.438  0.00  0.00    +0.000 C 
ATOM     16  C   UNL     1       2.625   3.455  17.526  0.00  0.00    +0.000 C 
ATOM     17  C   UNL     1       1.998   4.792  17.819  0.00  0.00    +0.000 C 
ATOM     18  C   UNL     1       2.494   5.683  18.942  0.00  0.00    +0.000 C 
BRANCH  13  19
ATOM     19  O   UNL     1       2.486   5.415  21.381  0.00  0.00    +0.000 OA
ATOM     20  H   UNL     1       1.857   5.723  22.061  0.00  0.00    +0.000 HD
ENDBRANCH  13  19
BRANCH  14  21
ATOM     21  O   UNL     1       2.622   2.886  20.408  0.00  0.00    +0.000 OA
ATOM     22  H   UNL     1       3.258   2.782  19.680  0.00  0.00    +0.000 HD
ENDBRANCH  14  21
ENDBRANCH   1  18
BRANCH   6  23
ATOM     23  C   UNL     1       1.179  12.800  19.493  0.00  0.00    +0.000 C 
BRANCH  23  24
ATOM     24  C   UNL     1       2.420  13.659  19.256  0.00  0.00    +0.000 A 
ATOM     25  C   UNL     1       2.782  14.162  17.994  0.00  0.00    +0.000 A 
ATOM     26  C   UNL     1       3.897  14.992  17.844  0.00  0.00    +0.000 A 
ATOM     27  C   UNL     1       4.663  15.346  18.952  0.00  0.00    +0.000 A 
ATOM     28  C   UNL     1       4.312  14.874  20.213  0.00  0.00    +0.000 A 
ATOM     29  C   UNL     1       3.201  14.040  20.364  0.00  0.00    +0.000 A 
ENDBRANCH  23  24
BRANCH  23  30
ATOM     30  C   UNL     1      -0.048  13.634  19.168  0.00  0.00    +0.000 C 
ATOM     31  C   UNL     1      -1.449  13.069  19.261  0.00  0.00    +0.000 C 
ATOM     32  C   UNL     1      -0.977  14.057  20.288  0.00  0.00    +0.000 C 
ENDBRANCH  23  30
ENDBRANCH   6  23
TORSDOF 6
ENDMDL
MODEL 4
REMARK VINA RESULT:      -6.7      0.851      2.988
REMARK  Name = 
REMARK  6 active torsions:
REMARK  status: ('A' for Active; 'I' for Inactive)
REMARK    1  A    between atoms: O_1  and  C_2
REMARK    2  A    between atoms: C_3  and  O_4
REMARK    3  A    between atoms: C_8  and  N_9
REMARK    4  A    between atoms: N_14  and  C_15
REMARK    5  A    between atoms: C_15  and  C_16
REMARK    6  A    between atoms: C_15  and  C_22
REMARK                            x       y       z     vdW  Elec       q    Type
REMARK                         _______ _______ _______ _____ _____    ______ ____
ROOT
ATOM      1  N   UNL     1       2.505   7.411  18.937  0.00  0.00    +0.000 N 
ATOM      2  C   UNL     1       2.697   7.945  17.692  0.00  0.00    +0.000 A 
ATOM      3  N   UNL     1       2.044   9.079  17.532  0.00  0.00    +0.000 NA
ATOM      4  C   UNL     1       1.414   9.299  18.736  0.00  0.00    +0.000 A 
ATOM      5  C   UNL     1       0.571  10.338  19.194  0.00  0.00    +0.000 A 
ATOM      6  N   UNL     1       0.163  11.374  18.357  0.00  0.00    +0.000 N 
ATOM      7  N   UNL     1       0.118  10.260  20.471  0.00  0.00    +0.000 NA
ATOM      8  C   UNL     1       0.485   9.201  21.218  0.00  0.00    +0.000 A 
ATOM      9 CL   UNL     1      -0.142   9.167  22.810  0.00  0.00    +0.000 Cl
ATOM     10  N   UNL     1       1.267   8.156  20.892  0.00  0.00    +0.000 NA
ATOM     11  C   UNL     1       1.701   8.275  19.629  0.00  0.00    +0.000 A 
ATOM     12  H   UNL     1       0.656  11.373  17.472  0.00  0.00    +0.000 HD
ENDROOT
BRANCH   1  18
ATOM     13  C   UNL     1       2.047   4.972  19.393  0.00  0.00    +0.000 C 
ATOM     14  C   UNL     1       2.945   3.709  19.320  0.00  0.00    +0.000 C 
ATOM     15  C   UNL     1       4.164   4.148  18.558  0.00  0.00    +0.000 C 
ATOM     16  C   UNL     1       5.341   4.840  19.196  0.00  0.00    +0.000 C 
ATOM     17  C   UNL     1       4.228   5.651  18.588  0.00  0.00    +0.000 C 
ATOM     18  C   UNL     1       3.055   6.149  19.410  0.00  0.00    +0.000 C 
BRANCH  13  19
ATOM     19  O   UNL     1       1.240   4.973  20.569  0.00  0.00    +0.000 OA
ATOM     20  H   UNL     1       0.883   5.876  20.665  0.00  0.00    +0.000 HD
ENDBRANCH  13  19
BRANCH  14  21
ATOM     21  O   UNL     1       3.324   3.237  20.608  0.00  0.00    +0.000 OA
ATOM     22  H   UNL     1       3.123   3.935  21.256  0.00  0.00    +0.000 HD
ENDBRANCH  14  21
ENDBRANCH   1  18
BRANCH   6  23
ATOM     23  C   UNL     1      -0.086  12.677  18.955  0.00  0.00    +0.000 C 
BRANCH  23  24
ATOM     24  C   UNL     1      -1.331  12.712  19.841  0.00  0.00    +0.000 A 
ATOM     25  C   UNL     1      -1.320  13.169  21.171  0.00  0.00    +0.000 A 
ATOM     26  C   UNL     1      -2.501  13.235  21.917  0.00  0.00    +0.000 A 
ATOM     27  C   UNL     1      -3.714  12.859  21.347  0.00  0.00    +0.000 A 
ATOM     28  C   UNL     1      -3.750  12.421  20.027  0.00  0.00    +0.000 A 
ATOM     29  C   UNL     1      -2.570  12.349  19.280  0.00  0.00    +0.000 A 
ENDBRANCH  23  24
BRANCH  23  30
ATOM     30  C   UNL     1       1.114  13.061  19.803  0.00  0.00    +0.000 C 
ATOM     31  C   UNL     1       2.492  13.242  19.205  0.00  0.00    +0.000 C 
ATOM     32  C   UNL     1       1.715  14.444  19.656  0.00  0.00    +0.000 C 
ENDBRANCH  23  30
ENDBRANCH   6  23
TORSDOF 6
ENDMDL
MODEL 5
REMARK VINA RESULT:      -6.7      1.156      1.885
REMARK  Name = 
REMARK  6 active torsions:
REMARK  status: ('A' for Active; 'I' for Inactive)
REMARK    1  A    between atoms: O_1  and  C_2
REMARK    2  A    between atoms: C_3  and  O_4
REMARK    3  A    between atoms: C_8  and  N_9
REMARK    4  A    between atoms: N_14  and  C_15
REMARK    5  A    between atoms: C_15  and  C_16
REMARK    6  A    between atoms: C_15  and  C_22
REMARK                            x       y       z     vdW  Elec       q    Type
REMARK                         _______ _______ _______ _____ _____    ______ ____
ROOT
ATOM      1  N   UNL     1       2.169   7.482  18.711  0.00  0.00    +0.000 N 
ATOM      2  C   UNL     1       2.421   8.107  17.520  0.00  0.00    +0.000 A 
ATOM      3  N   UNL     1       2.043   9.370  17.533  0.00  0.00    +0.000 NA
ATOM      4  C   UNL     1       1.541   9.577  18.798  0.00  0.00    +0.000 A 
ATOM      5  C   UNL     1       0.987  10.716  19.428  0.00  0.00    +0.000 A 
ATOM      6  N   UNL     1       0.793  11.912  18.742  0.00  0.00    +0.000 N 
ATOM      7  N   UNL     1       0.590  10.586  20.719  0.00  0.00    +0.000 NA
ATOM      8  C   UNL     1       0.736   9.388  21.318  0.00  0.00    +0.000 A 
ATOM      9 CL   UNL     1       0.195   9.302  22.939  0.00  0.00    +0.000 Cl
ATOM     10  N   UNL     1       1.235   8.241  20.823  0.00  0.00    +0.000 NA
ATOM     11  C   UNL     1       1.623   8.413  19.551  0.00  0.00    +0.000 A 
ATOM     12  H   UNL     1       1.229  11.909  17.827  0.00  0.00    +0.000 HD
ENDROOT
BRANCH   1  18
ATOM     13  C   UNL     1       3.905   5.774  19.373  0.00  0.00    +0.000 C 
ATOM     14  C   UNL     1       3.820   4.465  20.202  0.00  0.00    +0.000 C 
ATOM     15  C   UNL     1       2.484   4.532  20.888  0.00  0.00    +0.000 C 
ATOM     16  C   UNL     1       1.192   4.102  20.242  0.00  0.00    +0.000 C 
ATOM     17  C   UNL     1       1.630   5.541  20.170  0.00  0.00    +0.000 C 
ATOM     18  C   UNL     1       2.431   6.080  19.002  0.00  0.00    +0.000 C 
BRANCH  13  19
ATOM     19  O   UNL     1       4.702   5.602  18.203  0.00  0.00    +0.000 OA
ATOM     20  H   UNL     1       4.732   4.643  18.021  0.00  0.00    +0.000 HD
ENDBRANCH  13  19
BRANCH  14  21
ATOM     21  O   UNL     1       3.886   3.301  19.386  0.00  0.00    +0.000 OA
ATOM     22  H   UNL     1       3.561   2.547  19.909  0.00  0.00    +0.000 HD
ENDBRANCH  14  21
ENDBRANCH   1  18
BRANCH   6  23
ATOM     23  C   UNL     1       0.883  13.154  19.495  0.00  0.00    +0.000 C 
BRANCH  23  24
ATOM     24  C   UNL     1       1.882  14.151  18.907  0.00  0.00    +0.000 A 
ATOM     25  C   UNL     1       3.146  13.780  18.417  0.00  0.00    +0.000 A 
ATOM     26  C   UNL     1       3.997  14.726  17.836  0.00  0.00    +0.000 A 
ATOM     27  C   UNL     1       3.596  16.054  17.722  0.00  0.00    +0.000 A 
ATOM     28  C   UNL     1       2.342  16.440  18.185  0.00  0.00    +0.000 A 
ATOM     29  C   UNL     1       1.492  15.497  18.770  0.00  0.00    +0.000 A 
ENDBRANCH  23  24
BRANCH  23  30
ATOM     30  C   UNL     1      -0.486  13.809  19.520  0.00  0.00    +0.000 C 
ATOM     31  C   UNL     1      -1.748  13.018  19.789  0.00  0.00    +0.000 C 
ATOM     32  C   UNL     1      -1.218  13.950  20.839  0.00  0.00    +0.000 C 
ENDBRANCH  23  30
ENDBRANCH   6  23
TORSDOF 6
ENDMDL
MODEL 6
REMARK VINA RESULT:      -6.7      1.007      2.895
REMARK  Name = 
REMARK  6 active torsions:
REMARK  status: ('A' for Active; 'I' for Inactive)
REMARK    1  A    between atoms: O_1  and  C_2
REMARK    2  A    between atoms: C_3  and  O_4
REMARK    3  A    between atoms: C_8  and  N_9
REMARK    4  A    between atoms: N_14  and  C_15
REMARK    5  A    between atoms: C_15  and  C_16
REMARK    6  A    between atoms: C_15  and  C_22
REMARK                            x       y       z     vdW  Elec       q    Type
REMARK                         _______ _______ _______ _____ _____    ______ ____
ROOT
ATOM      1  N   UNL     1       2.506   7.347  18.943  0.00  0.00    +0.000 N 
ATOM      2  C   UNL     1       2.618   7.843  17.673  0.00  0.00    +0.000 A 
ATOM      3  N   UNL     1       2.018   9.010  17.543  0.00  0.00    +0.000 NA
ATOM      4  C   UNL     1       1.512   9.291  18.792  0.00  0.00    +0.000 A 
ATOM      5  C   UNL     1       0.774  10.387  19.296  0.00  0.00    +0.000 A 
ATOM      6  N   UNL     1       0.353  11.428  18.473  0.00  0.00    +0.000 N 
ATOM      7  N   UNL     1       0.432  10.360  20.609  0.00  0.00    +0.000 NA
ATOM      8  C   UNL     1       0.804   9.297  21.347  0.00  0.00    +0.000 A 
ATOM      9 CL   UNL     1       0.319   9.331  22.988  0.00  0.00    +0.000 Cl
ATOM     10  N   UNL     1       1.492   8.201  20.981  0.00  0.00    +0.000 NA
ATOM     11  C   UNL     1       1.818   8.269  19.681  0.00  0.00    +0.000 A 
ATOM     12  H   UNL     1       0.764  11.381  17.548  0.00  0.00    +0.000 HD
ENDROOT
BRANCH   1  18
ATOM     13  C   UNL     1       1.970   4.927  19.420  0.00  0.00    +0.000 C 
ATOM     14  C   UNL     1       2.815   3.630  19.315  0.00  0.00    +0.000 C 
ATOM     15  C   UNL     1       4.021   4.021  18.508  0.00  0.00    +0.000 C 
ATOM     16  C   UNL     1       5.247   4.666  19.100  0.00  0.00    +0.000 C 
ATOM     17  C   UNL     1       4.145   5.519  18.533  0.00  0.00    +0.000 C 
ATOM     18  C   UNL     1       3.024   6.064  19.397  0.00  0.00    +0.000 C 
BRANCH  13  19
ATOM     19  O   UNL     1       1.208   4.960  20.624  0.00  0.00    +0.000 OA
ATOM     20  H   UNL     1       1.258   4.066  21.014  0.00  0.00    +0.000 HD
ENDBRANCH  13  19
BRANCH  14  21
ATOM     21  O   UNL     1       3.223   3.143  20.589  0.00  0.00    +0.000 OA
ATOM     22  H   UNL     1       3.406   2.192  20.504  0.00  0.00    +0.000 HD
ENDBRANCH  14  21
ENDBRANCH   1  18
BRANCH   6  23
ATOM     23  C   UNL     1       0.232  12.755  19.058  0.00  0.00    +0.000 C 
BRANCH  23  24
ATOM     24  C   UNL     1      -0.723  12.811  20.250  0.00  0.00    +0.000 A 
ATOM     25  C   UNL     1      -2.091  12.499  20.159  0.00  0.00    +0.000 A 
ATOM     26  C   UNL     1      -2.908  12.510  21.294  0.00  0.00    +0.000 A 
ATOM     27  C   UNL     1      -2.371  12.818  22.542  0.00  0.00    +0.000 A 
ATOM     28  C   UNL     1      -1.016  13.112  22.657  0.00  0.00    +0.000 A 
ATOM     29  C   UNL     1      -0.199  13.107  21.523  0.00  0.00    +0.000 A 
ENDBRANCH  23  24
BRANCH  23  30
ATOM     30  C   UNL     1       1.604  13.208  19.525  0.00  0.00    +0.000 C 
ATOM     31  C   UNL     1       2.780  13.309  18.578  0.00  0.00    +0.000 C 
ATOM     32  C   UNL     1       2.129  14.561  19.088  0.00  0.00    +0.000 C 
ENDBRANCH  23  30
ENDBRANCH   6  23
TORSDOF 6
ENDMDL
MODEL 7
REMARK VINA RESULT:      -6.5      1.672      2.099
REMARK  Name = 
REMARK  6 active torsions:
REMARK  status: ('A' for Active; 'I' for Inactive)
REMARK    1  A    between atoms: O_1  and  C_2
REMARK    2  A    between atoms: C_3  and  O_4
REMARK    3  A    between atoms: C_8  and  N_9
REMARK    4  A    between atoms: N_14  and  C_15
REMARK    5  A    between atoms: C_15  and  C_16
REMARK    6  A    between atoms: C_15  and  C_22
REMARK                            x       y       z     vdW  Elec       q    Type
REMARK                         _______ _______ _______ _____ _____    ______ ____
ROOT
ATOM      1  N   UNL     1       1.809   8.438  18.998  0.00  0.00    +0.000 N 
ATOM      2  C   UNL     1       1.404   9.082  17.861  0.00  0.00    +0.000 A 
ATOM      3  N   UNL     1       0.510  10.018  18.112  0.00  0.00    +0.000 NA
ATOM      4  C   UNL     1       0.343   9.991  19.479  0.00  0.00    +0.000 A 
ATOM      5  C   UNL     1      -0.471  10.747  20.354  0.00  0.00    +0.000 A 
ATOM      6  N   UNL     1      -1.374  11.695  19.880  0.00  0.00    +0.000 N 
ATOM      7  N   UNL     1      -0.387  10.473  21.680  0.00  0.00    +0.000 NA
ATOM      8  C   UNL     1       0.451   9.499  22.082  0.00  0.00    +0.000 A 
ATOM      9 CL   UNL     1       0.485   9.202  23.768  0.00  0.00    +0.000 Cl
ATOM     10  N   UNL     1       1.260   8.712  21.350  0.00  0.00    +0.000 NA
ATOM     11  C   UNL     1       1.155   9.020  20.049  0.00  0.00    +0.000 A 
ATOM     12  H   UNL     1      -1.260  11.878  18.889  0.00  0.00    +0.000 HD
ENDROOT
BRANCH   1  18
ATOM     13  C   UNL     1       2.128   5.984  19.494  0.00  0.00    +0.000 C 
ATOM     14  C   UNL     1       3.083   4.914  18.900  0.00  0.00    +0.000 C 
ATOM     15  C   UNL     1       3.624   5.537  17.645  0.00  0.00    +0.000 C 
ATOM     16  C   UNL     1       4.804   6.475  17.621  0.00  0.00    +0.000 C 
ATOM     17  C   UNL     1       3.405   7.023  17.717  0.00  0.00    +0.000 C 
ATOM     18  C   UNL     1       2.753   7.332  19.051  0.00  0.00    +0.000 C 
BRANCH  13  19
ATOM     19  O   UNL     1       2.059   5.894  20.915  0.00  0.00    +0.000 OA
ATOM     20  H   UNL     1       2.906   6.235  21.260  0.00  0.00    +0.000 HD
ENDBRANCH  13  19
BRANCH  14  21
ATOM     21  O   UNL     1       4.153   4.594  19.782  0.00  0.00    +0.000 OA
ATOM     22  H   UNL     1       3.896   4.867  20.680  0.00  0.00    +0.000 HD
ENDBRANCH  14  21
ENDBRANCH   1  18
BRANCH   6  23
ATOM     23  C   UNL     1      -1.657  12.849  20.720  0.00  0.00    +0.000 C 
BRANCH  23  24
ATOM     24  C   UNL     1      -0.636  13.976  20.571  0.00  0.00    +0.000 A 
ATOM     25  C   UNL     1       0.199  14.405  21.618  0.00  0.00    +0.000 A 
ATOM     26  C   UNL     1       1.158  15.402  21.410  0.00  0.00    +0.000 A 
ATOM     27  C   UNL     1       1.310  15.978  20.152  0.00  0.00    +0.000 A 
ATOM     28  C   UNL     1       0.506  15.556  19.097  0.00  0.00    +0.000 A 
ATOM     29  C   UNL     1      -0.456  14.563  19.304  0.00  0.00    +0.000 A 
ENDBRANCH  23  24
BRANCH  23  30
ATOM     30  C   UNL     1      -3.026  13.394  20.353  0.00  0.00    +0.000 C 
ATOM     31  C   UNL     1      -4.157  12.491  19.911  0.00  0.00    +0.000 C 
ATOM     32  C   UNL     1      -4.203  13.126  21.269  0.00  0.00    +0.000 C 
ENDBRANCH  23  30
ENDBRANCH   6  23
TORSDOF 6
ENDMDL
MODEL 8
REMARK VINA RESULT:      -6.5      4.758      7.664
REMARK  Name = 
REMARK  6 active torsions:
REMARK  status: ('A' for Active; 'I' for Inactive)
REMARK    1  A    between atoms: O_1  and  C_2
REMARK    2  A    between atoms: C_3  and  O_4
REMARK    3  A    between atoms: C_8  and  N_9
REMARK    4  A    between atoms: N_14  and  C_15
REMARK    5  A    between atoms: C_15  and  C_16
REMARK    6  A    between atoms: C_15  and  C_22
REMARK                            x       y       z     vdW  Elec       q    Type
REMARK                         _______ _______ _______ _____ _____    ______ ____
ROOT
ATOM      1  N   UNL     1       1.711  13.904  19.240  0.00  0.00    +0.000 N 
ATOM      2  C   UNL     1       0.757  14.873  19.092  0.00  0.00    +0.000 A 
ATOM      3  N   UNL     1      -0.388  14.380  18.662  0.00  0.00    +0.000 NA
ATOM      4  C   UNL     1      -0.170  13.026  18.545  0.00  0.00    +0.000 A 
ATOM      5  C   UNL     1      -1.003  11.959  18.137  0.00  0.00    +0.000 A 
ATOM      6  N   UNL     1      -2.301  12.175  17.679  0.00  0.00    +0.000 N 
ATOM      7  N   UNL     1      -0.472  10.710  18.148  0.00  0.00    +0.000 NA
ATOM      8  C   UNL     1       0.810  10.562  18.533  0.00  0.00    +0.000 A 
ATOM      9 CL   UNL     1       1.411   8.960  18.502  0.00  0.00    +0.000 Cl
ATOM     10  N   UNL     1       1.696  11.493  18.929  0.00  0.00    +0.000 NA
ATOM     11  C   UNL     1       1.131  12.710  18.914  0.00  0.00    +0.000 A 
ATOM     12  H   UNL     1      -2.608  13.130  17.825  0.00  0.00    +0.000 HD
ENDROOT
BRANCH   1  18
ATOM     13  C   UNL     1       3.844  15.181  18.805  0.00  0.00    +0.000 C 
ATOM     14  C   UNL     1       4.967  15.691  19.748  0.00  0.00    +0.000 C 
ATOM     15  C   UNL     1       4.388  15.579  21.130  0.00  0.00    +0.000 C 
ATOM     16  C   UNL     1       4.406  14.309  21.941  0.00  0.00    +0.000 C 
ATOM     17  C   UNL     1       3.216  14.639  21.081  0.00  0.00    +0.000 C 
ATOM     18  C   UNL     1       3.087  14.131  19.658  0.00  0.00    +0.000 C 
BRANCH  13  19
ATOM     19  O   UNL     1       4.380  14.591  17.624  0.00  0.00    +0.000 OA
ATOM     20  H   UNL     1       5.339  14.485  17.772  0.00  0.00    +0.000 HD
ENDBRANCH  13  19
BRANCH  14  21
ATOM     21  O   UNL     1       6.151  14.907  19.654  0.00  0.00    +0.000 OA
ATOM     22  H   UNL     1       6.891  15.502  19.442  0.00  0.00    +0.000 HD
ENDBRANCH  14  21
ENDBRANCH   1  18
BRANCH   6  23
ATOM     23  C   UNL     1      -3.291  11.135  17.916  0.00  0.00    +0.000 C 
BRANCH  23  24
ATOM     24  C   UNL     1      -4.507  11.620  18.704  0.00  0.00    +0.000 A 
ATOM     25  C   UNL     1      -4.422  12.527  19.775  0.00  0.00    +0.000 A 
ATOM     26  C   UNL     1      -5.575  12.983  20.423  0.00  0.00    +0.000 A 
ATOM     27  C   UNL     1      -6.832  12.553  20.005  0.00  0.00    +0.000 A 
ATOM     28  C   UNL     1      -6.939  11.670  18.936  0.00  0.00    +0.000 A 
ATOM     29  C   UNL     1      -5.789  11.209  18.290  0.00  0.00    +0.000 A 
ENDBRANCH  23  24
BRANCH  23  30
ATOM     30  C   UNL     1      -3.770  10.605  16.576  0.00  0.00    +0.000 C 
ATOM     31  C   UNL     1      -3.038  10.906  15.287  0.00  0.00    +0.000 C 
ATOM     32  C   UNL     1      -2.969   9.527  15.874  0.00  0.00    +0.000 C 
ENDBRANCH  23  30
ENDBRANCH   6  23
TORSDOF 6
ENDMDL
MODEL 9
REMARK VINA RESULT:      -6.4      2.945      8.402
REMARK  Name = 
REMARK  6 active torsions:
REMARK  status: ('A' for Active; 'I' for Inactive)
REMARK    1  A    between atoms: O_1  and  C_2
REMARK    2  A    between atoms: C_3  and  O_4
REMARK    3  A    between atoms: C_8  and  N_9
REMARK    4  A    between atoms: N_14  and  C_15
REMARK    5  A    between atoms: C_15  and  C_16
REMARK    6  A    between atoms: C_15  and  C_22
REMARK                            x       y       z     vdW  Elec       q    Type
REMARK                         _______ _______ _______ _____ _____    ______ ____
ROOT
ATOM      1  N   UNL     1       1.464   8.958  18.973  0.00  0.00    +0.000 N 
ATOM      2  C   UNL     1       2.041   9.388  17.810  0.00  0.00    +0.000 A 
ATOM      3  N   UNL     1       2.959   8.549  17.371  0.00  0.00    +0.000 NA
ATOM      4  C   UNL     1       2.961   7.517  18.283  0.00  0.00    +0.000 A 
ATOM      5  C   UNL     1       3.713   6.323  18.367  0.00  0.00    +0.000 A 
ATOM      6  N   UNL     1       4.726   6.028  17.458  0.00  0.00    +0.000 N 
ATOM      7  N   UNL     1       3.455   5.493  19.410  0.00  0.00    +0.000 NA
ATOM      8  C   UNL     1       2.514   5.857  20.302  0.00  0.00    +0.000 A 
ATOM      9 CL   UNL     1       2.262   4.766  21.596  0.00  0.00    +0.000 Cl
ATOM     10  N   UNL     1       1.747   6.962  20.332  0.00  0.00    +0.000 NA
ATOM     11  C   UNL     1       2.025   7.750  19.282  0.00  0.00    +0.000 A 
ATOM     12  H   UNL     1       4.741   6.670  16.674  0.00  0.00    +0.000 HD
ENDROOT
BRANCH   1  18
ATOM     13  C   UNL     1       0.978  10.348  21.023  0.00  0.00    +0.000 C 
ATOM     14  C   UNL     1      -0.032  11.494  21.292  0.00  0.00    +0.000 C 
ATOM     15  C   UNL     1      -0.510  11.913  19.930  0.00  0.00    +0.000 C 
ATOM     16  C   UNL     1      -1.626  11.223  19.189  0.00  0.00    +0.000 C 
ATOM     17  C   UNL     1      -0.197  10.810  18.956  0.00  0.00    +0.000 C 
ATOM     18  C   UNL     1       0.449   9.677  19.729  0.00  0.00    +0.000 C 
BRANCH  13  19
ATOM     19  O   UNL     1       1.015   9.417  22.103  0.00  0.00    +0.000 OA
ATOM     20  H   UNL     1       0.815   9.921  22.915  0.00  0.00    +0.000 HD
ENDBRANCH  13  19
BRANCH  14  21
ATOM     21  O   UNL     1      -1.137  11.069  22.082  0.00  0.00    +0.000 OA
ATOM     22  H   UNL     1      -0.933  11.261  23.014  0.00  0.00    +0.000 HD
ENDBRANCH  14  21
ENDBRANCH   1  18
BRANCH   6  23
ATOM     23  C   UNL     1       4.983   4.629  17.151  0.00  0.00    +0.000 C 
BRANCH  23  24
ATOM     24  C   UNL     1       3.949   3.675  17.748  0.00  0.00    +0.000 A 
ATOM     25  C   UNL     1       2.653   3.517  17.228  0.00  0.00    +0.000 A 
ATOM     26  C   UNL     1       1.766   2.586  17.779  0.00  0.00    +0.000 A 
ATOM     27  C   UNL     1       2.162   1.787  18.848  0.00  0.00    +0.000 A 
ATOM     28  C   UNL     1       3.447   1.914  19.367  0.00  0.00    +0.000 A 
ATOM     29  C   UNL     1       4.333   2.848  18.822  0.00  0.00    +0.000 A 
ENDBRANCH  23  24
BRANCH  23  30
ATOM     30  C   UNL     1       4.980   4.453  15.643  0.00  0.00    +0.000 C 
ATOM     31  C   UNL     1       5.807   5.333  14.732  0.00  0.00    +0.000 C 
ATOM     32  C   UNL     1       6.215   3.907  14.956  0.00  0.00    +0.000 C 
ENDBRANCH  23  30
ENDBRANCH   6  23
TORSDOF 6
ENDMDL
