MODEL 1
REMARK VINA RESULT:      -6.9      0.000      0.000
REMARK  Name = 
REMARK  6 active torsions:
REMARK  status: ('A' for Active; 'I' for Inactive)
REMARK    1  A    between atoms: C_1  and  C_2
REMARK    2  A    between atoms: C_2  and  C_3
REMARK    3  A    between atoms: C_2  and  C_4
REMARK    4  A    between atoms: C_4  and  C_5
REMARK    5  A    between atoms: C_4  and  N_6
REMARK    6  A    between atoms: N_6  and  C_7
REMARK                            x       y       z     vdW  Elec       q    Type
REMARK                         _______ _______ _______ _____ _____    ______ ____
ROOT
ATOM      1  C   UNL     1       3.917   5.842  17.529  0.00  0.00    +0.000 A 
ATOM      2  C   UNL     1       3.591   7.197  17.522  0.00  0.00    +0.000 A 
ATOM      3  C   UNL     1       2.738   7.681  18.496  0.00  0.00    +0.000 A 
ATOM      4  N   UNL     1       2.208   6.928  19.476  0.00  0.00    +0.000 NA
ATOM      5  C   UNL     1       2.569   5.637  19.537  0.00  0.00    +0.000 A 
ATOM      6  C   UNL     1       2.003   4.852  20.528  0.00  0.00    +0.000 A 
ATOM      7  C   UNL     1       2.349   3.511  20.673  0.00  0.00    +0.000 A 
ATOM      8 CL   UNL     1       1.569   2.551  21.869  0.00  0.00    +0.000 Cl
ATOM      9  C   UNL     1       3.309   2.940  19.845  0.00  0.00    +0.000 A 
ATOM     10  C   UNL     1       3.867   3.704  18.825  0.00  0.00    +0.000 A 
ATOM     11  C   UNL     1       3.476   5.053  18.624  0.00  0.00    +0.000 A 
ENDROOT
BRANCH   1  12
ATOM     12  N   UNL     1       4.729   5.261  16.526  0.00  0.00    +0.000 N 
ATOM     13  H   UNL     1       4.770   4.259  16.708  0.00  0.00    +0.000 HD
BRANCH  12  14
ATOM     14  C   UNL     1       6.076   5.822  16.278  0.00  0.00    +0.000 C 
ATOM     15  C   UNL     1       6.905   4.893  15.375  0.00  0.00    +0.000 C 
BRANCH  14  17
ATOM     16  C   UNL     1       7.698   4.877  18.038  0.00  0.00    +0.000 C 
ATOM     17  C   UNL     1       6.829   6.068  17.620  0.00  0.00    +0.000 C 
ATOM     18  C   UNL     1       7.663   7.353  17.636  0.00  0.00    +0.000 C 
ENDBRANCH  14  17
ENDBRANCH  12  14
ENDBRANCH   1  12
TORSDOF 3
ENDMDL
MODEL 2
REMARK VINA RESULT:      -6.8      3.137      5.772
REMARK  Name = 
REMARK  6 active torsions:
REMARK  status: ('A' for Active; 'I' for Inactive)
REMARK    1  A    between atoms: C_1  and  C_2
REMARK    2  A    between atoms: C_2  and  C_3
REMARK    3  A    between atoms: C_2  and  C_4
REMARK    4  A    between atoms: C_4  and  C_5
REMARK    5  A    between atoms: C_4  and  N_6
REMARK    6  A    between atoms: N_6  and  C_7
REMARK                            x       y       z     vdW  Elec       q    Type
REMARK                         _______ _______ _______ _____ _____    ______ ____
ROOT
ATOM      1  C   UNL     1       5.402   4.534  18.365  0.00  0.00    +0.000 A 
ATOM      2  C   UNL     1       6.215   5.256  19.237  0.00  0.00    +0.000 A 
ATOM      3  C   UNL     1       7.353   5.861  18.737  0.00  0.00    +0.000 A 
ATOM      4  N   UNL     1       7.726   5.815  17.447  0.00  0.00    +0.000 NA
ATOM      5  C   UNL     1       6.916   5.183  16.583  0.00  0.00    +0.000 A 
ATOM      6  C   UNL     1       7.312   5.110  15.257  0.00  0.00    +0.000 A 
ATOM      7  C   UNL     1       6.511   4.496  14.298  0.00  0.00    +0.000 A 
ATOM      8 CL   UNL     1       7.072   4.361  12.676  0.00  0.00    +0.000 Cl
ATOM      9  C   UNL     1       5.270   3.976  14.647  0.00  0.00    +0.000 A 
ATOM     10  C   UNL     1       4.868   4.012  15.979  0.00  0.00    +0.000 A 
ATOM     11  C   UNL     1       5.702   4.577  16.978  0.00  0.00    +0.000 A 
ENDROOT
BRANCH   1  12
ATOM     12  N   UNL     1       4.258   3.832  18.816  0.00  0.00    +0.000 N 
ATOM     13  H   UNL     1       3.809   3.422  17.997  0.00  0.00    +0.000 HD
BRANCH  12  14
ATOM     14  C   UNL     1       3.280   4.531  19.677  0.00  0.00    +0.000 C 
ATOM     15  C   UNL     1       2.703   3.583  20.742  0.00  0.00    +0.000 C 
BRANCH  14  17
ATOM     16  C   UNL     1       2.487   6.493  18.213  0.00  0.00    +0.000 C 
ATOM     17  C   UNL     1       2.124   5.137  18.825  0.00  0.00    +0.000 C 
ATOM     18  C   UNL     1       1.601   4.196  17.734  0.00  0.00    +0.000 C 
ENDBRANCH  14  17
ENDBRANCH  12  14
ENDBRANCH   1  12
TORSDOF 3
ENDMDL
MODEL 3
REMARK VINA RESULT:      -6.8      3.226      5.767
REMARK  Name = 
REMARK  6 active torsions:
REMARK  status: ('A' for Active; 'I' for Inactive)
REMARK    1  A    between atoms: C_1  and  C_2
REMARK    2  A    between atoms: C_2  and  C_3
REMARK    3  A    between atoms: C_2  and  C_4
REMARK    4  A    between atoms: C_4  and  C_5
REMARK    5  A    between atoms: C_4  and  N_6
REMARK    6  A    between atoms: N_6  and  C_7
REMARK                            x       y       z     vdW  Elec       q    Type
REMARK                         _______ _______ _______ _____ _____    ______ ____
ROOT
ATOM      1  C   UNL     1       6.012   4.560  18.069  0.00  0.00    +0.000 A 
ATOM      2  C   UNL     1       6.614   5.628  18.732  0.00  0.00    +0.000 A 
ATOM      3  C   UNL     1       7.396   6.506  18.005  0.00  0.00    +0.000 A 
ATOM      4  N   UNL     1       7.605   6.410  16.680  0.00  0.00    +0.000 NA
ATOM      5  C   UNL     1       6.976   5.428  16.017  0.00  0.00    +0.000 A 
ATOM      6  C   UNL     1       7.211   5.309  14.657  0.00  0.00    +0.000 A 
ATOM      7  C   UNL     1       6.572   4.333  13.896  0.00  0.00    +0.000 A 
ATOM      8 CL   UNL     1       6.947   4.172  12.225  0.00  0.00    +0.000 Cl
ATOM      9  C   UNL     1       5.646   3.479  14.484  0.00  0.00    +0.000 A 
ATOM     10  C   UNL     1       5.418   3.563  15.854  0.00  0.00    +0.000 A 
ATOM     11  C   UNL     1       6.110   4.509  16.653  0.00  0.00    +0.000 A 
ENDROOT
BRANCH   1  12
ATOM     12  N   UNL     1       5.252   3.583  18.757  0.00  0.00    +0.000 N 
ATOM     13  H   UNL     1       5.129   2.792  18.126  0.00  0.00    +0.000 HD
BRANCH  12  14
ATOM     14  C   UNL     1       3.973   3.980  19.385  0.00  0.00    +0.000 C 
ATOM     15  C   UNL     1       3.258   2.764  19.999  0.00  0.00    +0.000 C 
BRANCH  14  17
ATOM     16  C   UNL     1       1.827   3.819  17.974  0.00  0.00    +0.000 C 
ATOM     17  C   UNL     1       3.040   4.677  18.349  0.00  0.00    +0.000 C 
ATOM     18  C   UNL     1       2.579   6.075  18.774  0.00  0.00    +0.000 C 
ENDBRANCH  14  17
ENDBRANCH  12  14
ENDBRANCH   1  12
TORSDOF 3
ENDMDL
MODEL 4
REMARK VINA RESULT:      -6.7      3.299      5.917
REMARK  Name = 
REMARK  6 active torsions:
REMARK  status: ('A' for Active; 'I' for Inactive)
REMARK    1  A    between atoms: C_1  and  C_2
REMARK    2  A    between atoms: C_2  and  C_3
REMARK    3  A    between atoms: C_2  and  C_4
REMARK    4  A    between atoms: C_4  and  C_5
REMARK    5  A    between atoms: C_4  and  N_6
REMARK    6  A    between atoms: N_6  and  C_7
REMARK                            x       y       z     vdW  Elec       q    Type
REMARK                         _______ _______ _______ _____ _____    ______ ____
ROOT
ATOM      1  C   UNL     1       5.424   4.498  18.350  0.00  0.00    +0.000 A 
ATOM      2  C   UNL     1       6.196   5.246  19.237  0.00  0.00    +0.000 A 
ATOM      3  C   UNL     1       7.310   5.908  18.754  0.00  0.00    +0.000 A 
ATOM      4  N   UNL     1       7.696   5.894  17.466  0.00  0.00    +0.000 NA
ATOM      5  C   UNL     1       6.923   5.235  16.589  0.00  0.00    +0.000 A 
ATOM      6  C   UNL     1       7.333   5.196  15.266  0.00  0.00    +0.000 A 
ATOM      7  C   UNL     1       6.570   4.556  14.292  0.00  0.00    +0.000 A 
ATOM      8 CL   UNL     1       7.150   4.465  12.675  0.00  0.00    +0.000 Cl
ATOM      9  C   UNL     1       5.351   3.977  14.624  0.00  0.00    +0.000 A 
ATOM     10  C   UNL     1       4.936   3.980  15.953  0.00  0.00    +0.000 A 
ATOM     11  C   UNL     1       5.734   4.571  16.966  0.00  0.00    +0.000 A 
ENDROOT
BRANCH   1  12
ATOM     12  N   UNL     1       4.310   3.740  18.782  0.00  0.00    +0.000 N 
ATOM     13  H   UNL     1       4.250   2.916  18.184  0.00  0.00    +0.000 HD
BRANCH  12  14
ATOM     14  C   UNL     1       2.997   4.407  18.917  0.00  0.00    +0.000 C 
ATOM     15  C   UNL     1       2.752   4.861  20.366  0.00  0.00    +0.000 C 
BRANCH  14  17
ATOM     16  C   UNL     1       2.359   2.180  17.796  0.00  0.00    +0.000 C 
ATOM     17  C   UNL     1       1.845   3.464  18.456  0.00  0.00    +0.000 C 
ATOM     18  C   UNL     1       0.848   3.116  19.566  0.00  0.00    +0.000 C 
ENDBRANCH  14  17
ENDBRANCH  12  14
ENDBRANCH   1  12
TORSDOF 3
ENDMDL
MODEL 5
REMARK VINA RESULT:      -6.7      3.368      5.862
REMARK  Name = 
REMARK  6 active torsions:
REMARK  status: ('A' for Active; 'I' for Inactive)
REMARK    1  A    between atoms: C_1  and  C_2
REMARK    2  A    between atoms: C_2  and  C_3
REMARK    3  A    between atoms: C_2  and  C_4
REMARK    4  A    between atoms: C_4  and  C_5
REMARK    5  A    between atoms: C_4  and  N_6
REMARK    6  A    between atoms: N_6  and  C_7
REMARK                            x       y       z     vdW  Elec       q    Type
REMARK                         _______ _______ _______ _____ _____    ______ ____
ROOT
ATOM      1  C   UNL     1       4.888   4.506  18.375  0.00  0.00    +0.000 A 
ATOM      2  C   UNL     1       5.615   5.025  19.445  0.00  0.00    +0.000 A 
ATOM      3  C   UNL     1       6.878   5.534  19.205  0.00  0.00    +0.000 A 
ATOM      4  N   UNL     1       7.455   5.580  17.992  0.00  0.00    +0.000 NA
ATOM      5  C   UNL     1       6.740   5.147  16.943  0.00  0.00    +0.000 A 
ATOM      6  C   UNL     1       7.342   5.167  15.695  0.00  0.00    +0.000 A 
ATOM      7  C   UNL     1       6.654   4.761  14.554  0.00  0.00    +0.000 A 
ATOM      8 CL   UNL     1       7.461   4.731  13.035  0.00  0.00    +0.000 Cl
ATOM      9  C   UNL     1       5.324   4.365  14.640  0.00  0.00    +0.000 A 
ATOM     10  C   UNL     1       4.711   4.310  15.888  0.00  0.00    +0.000 A 
ATOM     11  C   UNL     1       5.420   4.658  17.067  0.00  0.00    +0.000 A 
ENDROOT
BRANCH   1  12
ATOM     12  N   UNL     1       3.618   3.907  18.553  0.00  0.00    +0.000 N 
ATOM     13  H   UNL     1       2.996   4.617  18.937  0.00  0.00    +0.000 HD
BRANCH  12  14
ATOM     14  C   UNL     1       3.522   2.638  19.307  0.00  0.00    +0.000 C 
ATOM     15  C   UNL     1       3.632   1.425  18.367  0.00  0.00    +0.000 C 
BRANCH  14  17
ATOM     16  C   UNL     1       2.302   3.183  21.506  0.00  0.00    +0.000 C 
ATOM     17  C   UNL     1       2.187   2.569  20.108  0.00  0.00    +0.000 C 
ATOM     18  C   UNL     1       0.990   3.174  19.369  0.00  0.00    +0.000 C 
ENDBRANCH  14  17
ENDBRANCH  12  14
ENDBRANCH   1  12
TORSDOF 3
ENDMDL
MODEL 6
REMARK VINA RESULT:      -6.6      3.250      5.618
REMARK  Name = 
REMARK  6 active torsions:
REMARK  status: ('A' for Active; 'I' for Inactive)
REMARK    1  A    between atoms: C_1  and  C_2
REMARK    2  A    between atoms: C_2  and  C_3
REMARK    3  A    between atoms: C_2  and  C_4
REMARK    4  A    between atoms: C_4  and  C_5
REMARK    5  A    between atoms: C_4  and  N_6
REMARK    6  A    between atoms: N_6  and  C_7
REMARK                            x       y       z     vdW  Elec       q    Type
REMARK                         _______ _______ _______ _____ _____    ______ ____
ROOT
ATOM      1  C   UNL     1       5.337   4.062  17.187  0.00  0.00    +0.000 A 
ATOM      2  C   UNL     1       4.973   3.990  15.843  0.00  0.00    +0.000 A 
ATOM      3  C   UNL     1       5.415   4.976  14.981  0.00  0.00    +0.000 A 
ATOM      4  N   UNL     1       6.197   6.005  15.350  0.00  0.00    +0.000 NA
ATOM      5  C   UNL     1       6.612   6.049  16.625  0.00  0.00    +0.000 A 
ATOM      6  C   UNL     1       7.396   7.123  17.016  0.00  0.00    +0.000 A 
ATOM      7  C   UNL     1       7.888   7.223  18.315  0.00  0.00    +0.000 A 
ATOM      8 CL   UNL     1       8.795   8.609  18.780  0.00  0.00    +0.000 Cl
ATOM      9  C   UNL     1       7.636   6.218  19.241  0.00  0.00    +0.000 A 
ATOM     10  C   UNL     1       6.827   5.146  18.877  0.00  0.00    +0.000 A 
ATOM     11  C   UNL     1       6.265   5.063  17.577  0.00  0.00    +0.000 A 
ENDROOT
BRANCH   1  12
ATOM     12  N   UNL     1       4.867   3.127  18.141  0.00  0.00    +0.000 N 
ATOM     13  H   UNL     1       4.766   2.231  17.666  0.00  0.00    +0.000 HD
BRANCH  12  14
ATOM     14  C   UNL     1       3.665   3.457  18.937  0.00  0.00    +0.000 C 
ATOM     15  C   UNL     1       3.641   2.668  20.257  0.00  0.00    +0.000 C 
BRANCH  14  17
ATOM     16  C   UNL     1       1.400   2.239  18.863  0.00  0.00    +0.000 C 
ATOM     17  C   UNL     1       2.366   3.170  18.125  0.00  0.00    +0.000 C 
ATOM     18  C   UNL     1       1.628   4.434  17.670  0.00  0.00    +0.000 C 
ENDBRANCH  14  17
ENDBRANCH  12  14
ENDBRANCH   1  12
TORSDOF 3
ENDMDL
MODEL 7
REMARK VINA RESULT:      -6.6      2.517      4.964
REMARK  Name = 
REMARK  6 active torsions:
REMARK  status: ('A' for Active; 'I' for Inactive)
REMARK    1  A    between atoms: C_1  and  C_2
REMARK    2  A    between atoms: C_2  and  C_3
REMARK    3  A    between atoms: C_2  and  C_4
REMARK    4  A    between atoms: C_4  and  C_5
REMARK    5  A    between atoms: C_4  and  N_6
REMARK    6  A    between atoms: N_6  and  C_7
REMARK                            x       y       z     vdW  Elec       q    Type
REMARK                         _______ _______ _______ _____ _____    ______ ____
ROOT
ATOM      1  C   UNL     1       4.456   4.378  18.601  0.00  0.00    +0.000 A 
ATOM      2  C   UNL     1       5.437   4.186  17.629  0.00  0.00    +0.000 A 
ATOM      3  C   UNL     1       5.628   5.167  16.675  0.00  0.00    +0.000 A 
ATOM      4  N   UNL     1       4.935   6.318  16.627  0.00  0.00    +0.000 NA
ATOM      5  C   UNL     1       4.036   6.547  17.596  0.00  0.00    +0.000 A 
ATOM      6  C   UNL     1       3.300   7.720  17.535  0.00  0.00    +0.000 A 
ATOM      7  C   UNL     1       2.369   8.040  18.519  0.00  0.00    +0.000 A 
ATOM      8 CL   UNL     1       1.424   9.470  18.368  0.00  0.00    +0.000 Cl
ATOM      9  C   UNL     1       2.188   7.204  19.615  0.00  0.00    +0.000 A 
ATOM     10  C   UNL     1       2.896   6.007  19.680  0.00  0.00    +0.000 A 
ATOM     11  C   UNL     1       3.800   5.636  18.651  0.00  0.00    +0.000 A 
ENDROOT
BRANCH   1  12
ATOM     12  N   UNL     1       4.157   3.389  19.569  0.00  0.00    +0.000 N 
ATOM     13  H   UNL     1       5.043   3.004  19.895  0.00  0.00    +0.000 HD
BRANCH  12  14
ATOM     14  C   UNL     1       3.194   2.319  19.228  0.00  0.00    +0.000 C 
ATOM     15  C   UNL     1       2.710   2.453  17.774  0.00  0.00    +0.000 C 
BRANCH  14  17
ATOM     16  C   UNL     1       2.325   2.898  21.580  0.00  0.00    +0.000 C 
ATOM     17  C   UNL     1       1.973   2.343  20.197  0.00  0.00    +0.000 C 
ATOM     18  C   UNL     1       0.752   3.077  19.636  0.00  0.00    +0.000 C 
ENDBRANCH  14  17
ENDBRANCH  12  14
ENDBRANCH   1  12
TORSDOF 3
ENDMDL
MODEL 8
REMARK VINA RESULT:      -6.6      1.546      1.595
REMARK  Name = 
REMARK  6 active torsions:
REMARK  status: ('A' for Active; 'I' for Inactive)
REMARK    1  A    between atoms: C_1  and  C_2
REMARK    2  A    between atoms: C_2  and  C_3
REMARK    3  A    between atoms: C_2  and  C_4
REMARK    4  A    between atoms: C_4  and  C_5
REMARK    5  A    between atoms: C_4  and  N_6
REMARK    6  A    between atoms: N_6  and  C_7
REMARK                            x       y       z     vdW  Elec       q    Type
REMARK                         _______ _______ _______ _____ _____    ______ ____
ROOT
ATOM      1  C   UNL     1       4.562   6.153  16.809  0.00  0.00    +0.000 A 
ATOM      2  C   UNL     1       4.284   7.471  17.166  0.00  0.00    +0.000 A 
ATOM      3  C   UNL     1       3.163   7.731  17.932  0.00  0.00    +0.000 A 
ATOM      4  N   UNL     1       2.319   6.784  18.378  0.00  0.00    +0.000 NA
ATOM      5  C   UNL     1       2.612   5.504  18.100  0.00  0.00    +0.000 A 
ATOM      6  C   UNL     1       1.729   4.528  18.534  0.00  0.00    +0.000 A 
ATOM      7  C   UNL     1       1.980   3.177  18.309  0.00  0.00    +0.000 A 
ATOM      8 CL   UNL     1       0.823   2.001  18.799  0.00  0.00    +0.000 Cl
ATOM      9  C   UNL     1       3.151   2.775  17.677  0.00  0.00    +0.000 A 
ATOM     10  C   UNL     1       4.035   3.741  17.207  0.00  0.00    +0.000 A 
ATOM     11  C   UNL     1       3.761   5.123  17.372  0.00  0.00    +0.000 A 
ENDROOT
BRANCH   1  12
ATOM     12  N   UNL     1       5.652   5.817  15.971  0.00  0.00    +0.000 N 
ATOM     13  H   UNL     1       5.433   4.926  15.527  0.00  0.00    +0.000 HD
BRANCH  12  14
ATOM     14  C   UNL     1       7.019   5.819  16.537  0.00  0.00    +0.000 C 
ATOM     15  C   UNL     1       7.483   4.389  16.866  0.00  0.00    +0.000 C 
BRANCH  14  17
ATOM     16  C   UNL     1       7.673   5.962  19.022  0.00  0.00    +0.000 C 
ATOM     17  C   UNL     1       7.088   6.706  17.817  0.00  0.00    +0.000 C 
ATOM     18  C   UNL     1       7.828   8.031  17.613  0.00  0.00    +0.000 C 
ENDBRANCH  14  17
ENDBRANCH  12  14
ENDBRANCH   1  12
TORSDOF 3
ENDMDL
MODEL 9
REMARK VINA RESULT:      -6.5      1.822      2.844
REMARK  Name = 
REMARK  6 active torsions:
REMARK  status: ('A' for Active; 'I' for Inactive)
REMARK    1  A    between atoms: C_1  and  C_2
REMARK    2  A    between atoms: C_2  and  C_3
REMARK    3  A    between atoms: C_2  and  C_4
REMARK    4  A    between atoms: C_4  and  C_5
REMARK    5  A    between atoms: C_4  and  N_6
REMARK    6  A    between atoms: N_6  and  C_7
REMARK                            x       y       z     vdW  Elec       q    Type
REMARK                         _______ _______ _______ _____ _____    ______ ____
ROOT
ATOM      1  C   UNL     1       4.368   5.027  17.259  0.00  0.00    +0.000 A 
ATOM      2  C   UNL     1       4.416   3.643  17.419  0.00  0.00    +0.000 A 
ATOM      3  C   UNL     1       3.723   3.072  18.470  0.00  0.00    +0.000 A 
ATOM      4  N   UNL     1       2.980   3.765  19.350  0.00  0.00    +0.000 NA
ATOM      5  C   UNL     1       2.869   5.090  19.167  0.00  0.00    +0.000 A 
ATOM      6  C   UNL     1       2.127   5.812  20.088  0.00  0.00    +0.000 A 
ATOM      7  C   UNL     1       1.943   7.185  19.949  0.00  0.00    +0.000 A 
ATOM      8 CL   UNL     1       1.078   8.057  21.154  0.00  0.00    +0.000 Cl
ATOM      9  C   UNL     1       2.468   7.857  18.851  0.00  0.00    +0.000 A 
ATOM     10  C   UNL     1       3.240   7.155  17.930  0.00  0.00    +0.000 A 
ATOM     11  C   UNL     1       3.491   5.769  18.094  0.00  0.00    +0.000 A 
ENDROOT
BRANCH   1  12
ATOM     12  N   UNL     1       5.106   5.690  16.249  0.00  0.00    +0.000 N 
ATOM     13  H   UNL     1       4.877   5.245  15.361  0.00  0.00    +0.000 HD
BRANCH  12  14
ATOM     14  C   UNL     1       6.567   5.848  16.414  0.00  0.00    +0.000 C 
ATOM     15  C   UNL     1       7.278   4.484  16.379  0.00  0.00    +0.000 C 
BRANCH  14  17
ATOM     16  C   UNL     1       7.662   5.700  18.738  0.00  0.00    +0.000 C 
ATOM     17  C   UNL     1       6.899   6.584  17.747  0.00  0.00    +0.000 C 
ATOM     18  C   UNL     1       7.640   7.910  17.554  0.00  0.00    +0.000 C 
ENDBRANCH  14  17
ENDBRANCH  12  14
ENDBRANCH   1  12
TORSDOF 3
ENDMDL
