MODEL 1
REMARK VINA RESULT:      -7.3      0.000      0.000
REMARK  Name = 
REMARK  8 active torsions:
REMARK  status: ('A' for Active; 'I' for Inactive)
REMARK    1  A    between atoms: C_1  and  C_2
REMARK    2  A    between atoms: C_2  and  C_3
REMARK    3  A    between atoms: C_3  and  O_4
REMARK    4  A    between atoms: O_4  and  C_5
REMARK    5  A    between atoms: C_5  and  C_7
REMARK    6  A    between atoms: C_7  and  O_8
REMARK    7  A    between atoms: O_8  and  C_9
REMARK    8  A    between atoms: C_11  and  C_12
REMARK                            x       y       z     vdW  Elec       q    Type
REMARK                         _______ _______ _______ _____ _____    ______ ____
ROOT
ATOM      1  C   UNL     1       2.474   6.242  19.632  0.00  0.00    +0.000 A 
ATOM      2  C   UNL     1       3.350   5.615  18.730  0.00  0.00    +0.000 A 
ATOM      3  C   UNL     1       3.844   6.287  17.602  0.00  0.00    +0.000 A 
ATOM      4  C   UNL     1       4.763   5.595  16.637  0.00  0.00    +0.000 C 
ATOM      5  C   UNL     1       3.465   7.609  17.377  0.00  0.00    +0.000 A 
ATOM      6  C   UNL     1       2.605   8.234  18.281  0.00  0.00    +0.000 A 
ATOM      7  O   UNL     1       2.270   9.577  17.976  0.00  0.00    +0.000 OA
ATOM      8  C   UNL     1       1.416  10.325  18.775  0.00  0.00    +0.000 A 
ATOM      9  O   UNL     1       1.114  11.485  18.511  0.00  0.00    +0.000 OA
ATOM     10  C   UNL     1       0.901   9.633  19.955  0.00  0.00    +0.000 A 
ATOM     11  C   UNL     1       1.207   8.370  20.264  0.00  0.00    +0.000 A 
ATOM     12  C   UNL     1       2.096   7.582  19.415  0.00  0.00    +0.000 A 
ATOM     13  C   UNL     1       0.542   7.940  21.527  0.00  0.00    +0.000 C 
ATOM     14  C   UNL     1      -0.251   9.177  21.967  0.00  0.00    +0.000 C 
ATOM     15  C   UNL     1      -0.018  10.274  20.927  0.00  0.00    +0.000 C 
ENDROOT
BRANCH   1  16
ATOM     16  O   UNL     1       1.952   5.612  20.732  0.00  0.00    +0.000 OA
BRANCH  16  17
ATOM     17  C   UNL     1       1.121   4.470  20.538  0.00  0.00    +0.000 C 
BRANCH  17  18
ATOM     18  C   UNL     1       1.783   3.246  21.159  0.00  0.00    +0.000 C 
ATOM     19  O   UNL     1       2.233   3.180  22.293  0.00  0.00    +0.000 OA
BRANCH  18  20
ATOM     20  O   UNL     1       1.868   2.246  20.227  0.00  0.00    +0.000 OA
BRANCH  20  21
ATOM     21  C   UNL     1       1.280   2.548  18.952  0.00  0.00    +0.000 C 
BRANCH  21  23
ATOM     22  C   UNL     1       3.515   1.636  18.302  0.00  0.00    +0.000 C 
ATOM     23  C   UNL     1       2.247   2.315  17.798  0.00  0.00    +0.000 C 
ENDBRANCH  21  23
ENDBRANCH  20  21
ENDBRANCH  18  20
ENDBRANCH  17  18
ENDBRANCH  16  17
ENDBRANCH   1  16
TORSDOF 6
ENDMDL
MODEL 2
REMARK VINA RESULT:      -7.3      2.785      6.210
REMARK  Name = 
REMARK  8 active torsions:
REMARK  status: ('A' for Active; 'I' for Inactive)
REMARK    1  A    between atoms: C_1  and  C_2
REMARK    2  A    between atoms: C_2  and  C_3
REMARK    3  A    between atoms: C_3  and  O_4
REMARK    4  A    between atoms: O_4  and  C_5
REMARK    5  A    between atoms: C_5  and  C_7
REMARK    6  A    between atoms: C_7  and  O_8
REMARK    7  A    between atoms: O_8  and  C_9
REMARK    8  A    between atoms: C_11  and  C_12
REMARK                            x       y       z     vdW  Elec       q    Type
REMARK                         _______ _______ _______ _____ _____    ______ ____
ROOT
ATOM      1  C   UNL     1       3.645   5.968  17.374  0.00  0.00    +0.000 A 
ATOM      2  C   UNL     1       3.460   7.360  17.323  0.00  0.00    +0.000 A 
ATOM      3  C   UNL     1       2.667   8.028  18.268  0.00  0.00    +0.000 A 
ATOM      4  C   UNL     1       2.462   9.513  18.187  0.00  0.00    +0.000 C 
ATOM      5  C   UNL     1       2.058   7.294  19.285  0.00  0.00    +0.000 A 
ATOM      6  C   UNL     1       2.254   5.914  19.341  0.00  0.00    +0.000 A 
ATOM      7  O   UNL     1       1.598   5.247  20.406  0.00  0.00    +0.000 OA
ATOM      8  C   UNL     1       1.688   3.873  20.584  0.00  0.00    +0.000 A 
ATOM      9  O   UNL     1       1.115   3.288  21.498  0.00  0.00    +0.000 OA
ATOM     10  C   UNL     1       2.517   3.171  19.606  0.00  0.00    +0.000 A 
ATOM     11  C   UNL     1       3.149   3.780  18.599  0.00  0.00    +0.000 A 
ATOM     12  C   UNL     1       3.041   5.224  18.406  0.00  0.00    +0.000 A 
ATOM     13  C   UNL     1       3.924   2.811  17.773  0.00  0.00    +0.000 C 
ATOM     14  C   UNL     1       3.666   1.459  18.451  0.00  0.00    +0.000 C 
ATOM     15  C   UNL     1       2.736   1.704  19.642  0.00  0.00    +0.000 C 
ENDROOT
BRANCH   1  16
ATOM     16  O   UNL     1       4.394   5.277  16.456  0.00  0.00    +0.000 OA
BRANCH  16  17
ATOM     17  C   UNL     1       5.329   5.996  15.655  0.00  0.00    +0.000 C 
BRANCH  17  18
ATOM     18  C   UNL     1       6.664   5.260  15.645  0.00  0.00    +0.000 C 
ATOM     19  O   UNL     1       7.550   5.406  14.816  0.00  0.00    +0.000 OA
BRANCH  18  20
ATOM     20  O   UNL     1       6.695   4.348  16.666  0.00  0.00    +0.000 OA
BRANCH  20  21
ATOM     21  C   UNL     1       7.691   4.591  17.672  0.00  0.00    +0.000 C 
BRANCH  21  23
ATOM     22  C   UNL     1       7.956   6.940  18.486  0.00  0.00    +0.000 C 
ATOM     23  C   UNL     1       7.236   5.615  18.704  0.00  0.00    +0.000 C 
ENDBRANCH  21  23
ENDBRANCH  20  21
ENDBRANCH  18  20
ENDBRANCH  17  18
ENDBRANCH  16  17
ENDBRANCH   1  16
TORSDOF 6
ENDMDL
MODEL 3
REMARK VINA RESULT:      -7.1      1.918      6.108
REMARK  Name = 
REMARK  8 active torsions:
REMARK  status: ('A' for Active; 'I' for Inactive)
REMARK    1  A    between atoms: C_1  and  C_2
REMARK    2  A    between atoms: C_2  and  C_3
REMARK    3  A    between atoms: C_3  and  O_4
REMARK    4  A    between atoms: O_4  and  C_5
REMARK    5  A    between atoms: C_5  and  C_7
REMARK    6  A    between atoms: C_7  and  O_8
REMARK    7  A    between atoms: O_8  and  C_9
REMARK    8  A    between atoms: C_11  and  C_12
REMARK                            x       y       z     vdW  Elec       q    Type
REMARK                         _______ _______ _______ _____ _____    ______ ____
ROOT
ATOM      1  C   UNL     1       3.799   6.413  18.093  0.00  0.00    +0.000 A 
ATOM      2  C   UNL     1       4.907   7.051  17.509  0.00  0.00    +0.000 A 
ATOM      3  C   UNL     1       6.194   6.498  17.584  0.00  0.00    +0.000 A 
ATOM      4  C   UNL     1       7.370   7.202  16.973  0.00  0.00    +0.000 C 
ATOM      5  C   UNL     1       6.375   5.283  18.243  0.00  0.00    +0.000 A 
ATOM      6  C   UNL     1       5.272   4.645  18.811  0.00  0.00    +0.000 A 
ATOM      7  O   UNL     1       5.545   3.417  19.463  0.00  0.00    +0.000 OA
ATOM      8  C   UNL     1       4.552   2.673  20.085  0.00  0.00    +0.000 A 
ATOM      9  O   UNL     1       4.784   1.614  20.660  0.00  0.00    +0.000 OA
ATOM     10  C   UNL     1       3.207   3.241  20.007  0.00  0.00    +0.000 A 
ATOM     11  C   UNL     1       2.926   4.394  19.394  0.00  0.00    +0.000 A 
ATOM     12  C   UNL     1       3.975   5.180  18.751  0.00  0.00    +0.000 A 
ATOM     13  C   UNL     1       1.472   4.712  19.468  0.00  0.00    +0.000 C 
ATOM     14  C   UNL     1       0.875   3.535  20.250  0.00  0.00    +0.000 C 
ATOM     15  C   UNL     1       2.020   2.584  20.607  0.00  0.00    +0.000 C 
ENDROOT
BRANCH   1  16
ATOM     16  O   UNL     1       2.531   6.932  18.060  0.00  0.00    +0.000 OA
BRANCH  16  17
ATOM     17  C   UNL     1       2.366   8.319  17.771  0.00  0.00    +0.000 C 
BRANCH  17  18
ATOM     18  C   UNL     1       1.602   8.990  18.906  0.00  0.00    +0.000 C 
ATOM     19  O   UNL     1       1.140  10.121  18.882  0.00  0.00    +0.000 OA
BRANCH  18  20
ATOM     20  O   UNL     1       1.575   8.160  19.995  0.00  0.00    +0.000 OA
BRANCH  20  21
ATOM     21  C   UNL     1       1.289   8.804  21.247  0.00  0.00    +0.000 C 
BRANCH  21  23
ATOM     22  C   UNL     1      -0.484   9.510  22.862  0.00  0.00    +0.000 C 
ATOM     23  C   UNL     1      -0.152   8.592  21.692  0.00  0.00    +0.000 C 
ENDBRANCH  21  23
ENDBRANCH  20  21
ENDBRANCH  18  20
ENDBRANCH  17  18
ENDBRANCH  16  17
ENDBRANCH   1  16
TORSDOF 6
ENDMDL
MODEL 4
REMARK VINA RESULT:      -7.1      2.964      6.571
REMARK  Name = 
REMARK  8 active torsions:
REMARK  status: ('A' for Active; 'I' for Inactive)
REMARK    1  A    between atoms: C_1  and  C_2
REMARK    2  A    between atoms: C_2  and  C_3
REMARK    3  A    between atoms: C_3  and  O_4
REMARK    4  A    between atoms: O_4  and  C_5
REMARK    5  A    between atoms: C_5  and  C_7
REMARK    6  A    between atoms: C_7  and  O_8
REMARK    7  A    between atoms: O_8  and  C_9
REMARK    8  A    between atoms: C_11  and  C_12
REMARK                            x       y       z     vdW  Elec       q    Type
REMARK                         _______ _______ _______ _____ _____    ______ ____
ROOT
ATOM      1  C   UNL     1       3.741   5.986  17.384  0.00  0.00    +0.000 A 
ATOM      2  C   UNL     1       3.534   7.375  17.351  0.00  0.00    +0.000 A 
ATOM      3  C   UNL     1       2.666   8.008  18.254  0.00  0.00    +0.000 A 
ATOM      4  C   UNL     1       2.439   9.490  18.192  0.00  0.00    +0.000 C 
ATOM      5  C   UNL     1       2.002   7.241  19.210  0.00  0.00    +0.000 A 
ATOM      6  C   UNL     1       2.219   5.863  19.249  0.00  0.00    +0.000 A 
ATOM      7  O   UNL     1       1.503   5.160  20.251  0.00  0.00    +0.000 OA
ATOM      8  C   UNL     1       1.607   3.785  20.405  0.00  0.00    +0.000 A 
ATOM      9  O   UNL     1       0.982   3.169  21.263  0.00  0.00    +0.000 OA
ATOM     10  C   UNL     1       2.514   3.120  19.471  0.00  0.00    +0.000 A 
ATOM     11  C   UNL     1       3.202   3.762  18.523  0.00  0.00    +0.000 A 
ATOM     12  C   UNL     1       3.081   5.208  18.356  0.00  0.00    +0.000 A 
ATOM     13  C   UNL     1       4.049   2.826  17.732  0.00  0.00    +0.000 C 
ATOM     14  C   UNL     1       3.770   1.454  18.361  0.00  0.00    +0.000 C 
ATOM     15  C   UNL     1       2.757   1.656  19.489  0.00  0.00    +0.000 C 
ENDROOT
BRANCH   1  16
ATOM     16  O   UNL     1       4.564   5.329  16.506  0.00  0.00    +0.000 OA
BRANCH  16  17
ATOM     17  C   UNL     1       5.560   6.077  15.812  0.00  0.00    +0.000 C 
BRANCH  17  18
ATOM     18  C   UNL     1       6.937   5.729  16.367  0.00  0.00    +0.000 C 
ATOM     19  O   UNL     1       7.294   4.622  16.741  0.00  0.00    +0.000 OA
BRANCH  18  20
ATOM     20  O   UNL     1       7.697   6.865  16.456  0.00  0.00    +0.000 OA
BRANCH  20  21
ATOM     21  C   UNL     1       7.743   7.469  17.758  0.00  0.00    +0.000 C 
BRANCH  21  23
ATOM     22  C   UNL     1       8.844   9.456  18.802  0.00  0.00    +0.000 C 
ATOM     23  C   UNL     1       7.915   8.980  17.691  0.00  0.00    +0.000 C 
ENDBRANCH  21  23
ENDBRANCH  20  21
ENDBRANCH  18  20
ENDBRANCH  17  18
ENDBRANCH  16  17
ENDBRANCH   1  16
TORSDOF 6
ENDMDL
MODEL 5
REMARK VINA RESULT:      -7.1      2.170      6.174
REMARK  Name = 
REMARK  8 active torsions:
REMARK  status: ('A' for Active; 'I' for Inactive)
REMARK    1  A    between atoms: C_1  and  C_2
REMARK    2  A    between atoms: C_2  and  C_3
REMARK    3  A    between atoms: C_3  and  O_4
REMARK    4  A    between atoms: O_4  and  C_5
REMARK    5  A    between atoms: C_5  and  C_7
REMARK    6  A    between atoms: C_7  and  O_8
REMARK    7  A    between atoms: O_8  and  C_9
REMARK    8  A    between atoms: C_11  and  C_12
REMARK                            x       y       z     vdW  Elec       q    Type
REMARK                         _______ _______ _______ _____ _____    ______ ____
ROOT
ATOM      1  C   UNL     1       3.761   6.399  18.019  0.00  0.00    +0.000 A 
ATOM      2  C   UNL     1       4.870   7.094  17.507  0.00  0.00    +0.000 A 
ATOM      3  C   UNL     1       6.175   6.602  17.658  0.00  0.00    +0.000 A 
ATOM      4  C   UNL     1       7.351   7.366  17.123  0.00  0.00    +0.000 C 
ATOM      5  C   UNL     1       6.374   5.392  18.322  0.00  0.00    +0.000 A 
ATOM      6  C   UNL     1       5.270   4.698  18.818  0.00  0.00    +0.000 A 
ATOM      7  O   UNL     1       5.563   3.479  19.480  0.00  0.00    +0.000 OA
ATOM      8  C   UNL     1       4.570   2.685  20.037  0.00  0.00    +0.000 A 
ATOM      9  O   UNL     1       4.818   1.634  20.620  0.00  0.00    +0.000 OA
ATOM     10  C   UNL     1       3.207   3.188  19.879  0.00  0.00    +0.000 A 
ATOM     11  C   UNL     1       2.908   4.330  19.255  0.00  0.00    +0.000 A 
ATOM     12  C   UNL     1       3.956   5.171  18.682  0.00  0.00    +0.000 A 
ATOM     13  C   UNL     1       1.438   4.578  19.242  0.00  0.00    +0.000 C 
ATOM     14  C   UNL     1       0.853   3.368  19.981  0.00  0.00    +0.000 C 
ATOM     15  C   UNL     1       2.018   2.471  20.403  0.00  0.00    +0.000 C 
ENDROOT
BRANCH   1  16
ATOM     16  O   UNL     1       2.473   6.857  17.911  0.00  0.00    +0.000 OA
BRANCH  16  17
ATOM     17  C   UNL     1       2.233   8.258  18.029  0.00  0.00    +0.000 C 
BRANCH  17  18
ATOM     18  C   UNL     1       1.680   8.566  19.415  0.00  0.00    +0.000 C 
ATOM     19  O   UNL     1       1.771   7.840  20.395  0.00  0.00    +0.000 OA
BRANCH  18  20
ATOM     20  O   UNL     1       0.993   9.750  19.384  0.00  0.00    +0.000 OA
BRANCH  20  21
ATOM     21  C   UNL     1       0.209   9.971  18.201  0.00  0.00    +0.000 C 
BRANCH  21  23
ATOM     22  C   UNL     1      -2.098  10.105  17.249  0.00  0.00    +0.000 C 
ATOM     23  C   UNL     1      -1.260  10.217  18.517  0.00  0.00    +0.000 C 
ENDBRANCH  21  23
ENDBRANCH  20  21
ENDBRANCH  18  20
ENDBRANCH  17  18
ENDBRANCH  16  17
ENDBRANCH   1  16
TORSDOF 6
ENDMDL
MODEL 6
REMARK VINA RESULT:      -7.0      2.973      6.112
REMARK  Name = 
REMARK  8 active torsions:
REMARK  status: ('A' for Active; 'I' for Inactive)
REMARK    1  A    between atoms: C_1  and  C_2
REMARK    2  A    between atoms: C_2  and  C_3
REMARK    3  A    between atoms: C_3  and  O_4
REMARK    4  A    between atoms: O_4  and  C_5
REMARK    5  A    between atoms: C_5  and  C_7
REMARK    6  A    between atoms: C_7  and  O_8
REMARK    7  A    between atoms: O_8  and  C_9
REMARK    8  A    between atoms: C_11  and  C_12
REMARK                            x       y       z     vdW  Elec       q    Type
REMARK                         _______ _______ _______ _____ _____    ______ ____
ROOT
ATOM      1  C   UNL     1       3.666   6.528  17.653  0.00  0.00    +0.000 A 
ATOM      2  C   UNL     1       3.195   7.845  17.515  0.00  0.00    +0.000 A 
ATOM      3  C   UNL     1       2.304   8.405  18.442  0.00  0.00    +0.000 A 
ATOM      4  C   UNL     1       1.794   9.806  18.268  0.00  0.00    +0.000 C 
ATOM      5  C   UNL     1       1.884   7.640  19.530  0.00  0.00    +0.000 A 
ATOM      6  C   UNL     1       2.363   6.338  19.672  0.00  0.00    +0.000 A 
ATOM      7  O   UNL     1       1.885   5.631  20.804  0.00  0.00    +0.000 OA
ATOM      8  C   UNL     1       2.262   4.323  21.072  0.00  0.00    +0.000 A 
ATOM      9  O   UNL     1       1.843   3.703  22.045  0.00  0.00    +0.000 OA
ATOM     10  C   UNL     1       3.195   3.734  20.113  0.00  0.00    +0.000 A 
ATOM     11  C   UNL     1       3.662   4.383  19.043  0.00  0.00    +0.000 A 
ATOM     12  C   UNL     1       3.253   5.755  18.756  0.00  0.00    +0.000 A 
ATOM     13  C   UNL     1       4.601   3.534  18.256  0.00  0.00    +0.000 C 
ATOM     14  C   UNL     1       4.645   2.212  19.034  0.00  0.00    +0.000 C 
ATOM     15  C   UNL     1       3.714   2.350  20.240  0.00  0.00    +0.000 C 
ENDROOT
BRANCH   1  16
ATOM     16  O   UNL     1       4.520   5.939  16.757  0.00  0.00    +0.000 OA
BRANCH  16  17
ATOM     17  C   UNL     1       5.873   6.387  16.704  0.00  0.00    +0.000 C 
BRANCH  17  18
ATOM     18  C   UNL     1       6.711   5.386  15.917  0.00  0.00    +0.000 C 
ATOM     19  O   UNL     1       7.697   4.799  16.337  0.00  0.00    +0.000 OA
BRANCH  18  20
ATOM     20  O   UNL     1       6.237   5.296  14.635  0.00  0.00    +0.000 OA
BRANCH  20  21
ATOM     21  C   UNL     1       5.958   3.963  14.179  0.00  0.00    +0.000 C 
BRANCH  21  23
ATOM     22  C   UNL     1       5.233   3.200  11.912  0.00  0.00    +0.000 C 
ATOM     23  C   UNL     1       6.394   3.740  12.737  0.00  0.00    +0.000 C 
ENDBRANCH  21  23
ENDBRANCH  20  21
ENDBRANCH  18  20
ENDBRANCH  17  18
ENDBRANCH  16  17
ENDBRANCH   1  16
TORSDOF 6
ENDMDL
MODEL 7
REMARK VINA RESULT:      -6.9      1.553      2.784
REMARK  Name = 
REMARK  8 active torsions:
REMARK  status: ('A' for Active; 'I' for Inactive)
REMARK    1  A    between atoms: C_1  and  C_2
REMARK    2  A    between atoms: C_2  and  C_3
REMARK    3  A    between atoms: C_3  and  O_4
REMARK    4  A    between atoms: O_4  and  C_5
REMARK    5  A    between atoms: C_5  and  C_7
REMARK    6  A    between atoms: C_7  and  O_8
REMARK    7  A    between atoms: O_8  and  C_9
REMARK    8  A    between atoms: C_11  and  C_12
REMARK                            x       y       z     vdW  Elec       q    Type
REMARK                         _______ _______ _______ _____ _____    ______ ____
ROOT
ATOM      1  C   UNL     1       4.407   4.902  18.390  0.00  0.00    +0.000 A 
ATOM      2  C   UNL     1       5.332   4.480  17.420  0.00  0.00    +0.000 A 
ATOM      3  C   UNL     1       5.622   5.266  16.294  0.00  0.00    +0.000 A 
ATOM      4  C   UNL     1       6.597   4.792  15.256  0.00  0.00    +0.000 C 
ATOM      5  C   UNL     1       4.986   6.497  16.142  0.00  0.00    +0.000 A 
ATOM      6  C   UNL     1       4.078   6.920  17.114  0.00  0.00    +0.000 A 
ATOM      7  O   UNL     1       3.476   8.181  16.879  0.00  0.00    +0.000 OA
ATOM      8  C   UNL     1       2.544   8.728  17.750  0.00  0.00    +0.000 A 
ATOM      9  O   UNL     1       2.012   9.815  17.548  0.00  0.00    +0.000 OA
ATOM     10  C   UNL     1       2.240   7.917  18.928  0.00  0.00    +0.000 A 
ATOM     11  C   UNL     1       2.799   6.728  19.171  0.00  0.00    +0.000 A 
ATOM     12  C   UNL     1       3.770   6.150  18.246  0.00  0.00    +0.000 A 
ATOM     13  C   UNL     1       2.304   6.142  20.449  0.00  0.00    +0.000 C 
ATOM     14  C   UNL     1       1.317   7.191  20.979  0.00  0.00    +0.000 C 
ATOM     15  C   UNL     1       1.275   8.342  19.971  0.00  0.00    +0.000 C 
ENDROOT
BRANCH   1  16
ATOM     16  O   UNL     1       4.081   4.153  19.491  0.00  0.00    +0.000 OA
BRANCH  16  17
ATOM     17  C   UNL     1       4.484   2.786  19.533  0.00  0.00    +0.000 C 
BRANCH  17  18
ATOM     18  C   UNL     1       3.496   1.938  18.740  0.00  0.00    +0.000 C 
ATOM     19  O   UNL     1       3.630   1.594  17.575  0.00  0.00    +0.000 OA
BRANCH  18  20
ATOM     20  O   UNL     1       2.392   1.680  19.508  0.00  0.00    +0.000 OA
BRANCH  20  21
ATOM     21  C   UNL     1       1.209   2.407  19.141  0.00  0.00    +0.000 C 
BRANCH  21  23
ATOM     22  C   UNL     1       1.314   2.827  21.603  0.00  0.00    +0.000 C 
ATOM     23  C   UNL     1       0.666   3.248  20.289  0.00  0.00    +0.000 C 
ENDBRANCH  21  23
ENDBRANCH  20  21
ENDBRANCH  18  20
ENDBRANCH  17  18
ENDBRANCH  16  17
ENDBRANCH   1  16
TORSDOF 6
ENDMDL
MODEL 8
REMARK VINA RESULT:      -6.9      2.565      4.745
REMARK  Name = 
REMARK  8 active torsions:
REMARK  status: ('A' for Active; 'I' for Inactive)
REMARK    1  A    between atoms: C_1  and  C_2
REMARK    2  A    between atoms: C_2  and  C_3
REMARK    3  A    between atoms: C_3  and  O_4
REMARK    4  A    between atoms: O_4  and  C_5
REMARK    5  A    between atoms: C_5  and  C_7
REMARK    6  A    between atoms: C_7  and  O_8
REMARK    7  A    between atoms: O_8  and  C_9
REMARK    8  A    between atoms: C_11  and  C_12
REMARK                            x       y       z     vdW  Elec       q    Type
REMARK                         _______ _______ _______ _____ _____    ______ ____
ROOT
ATOM      1  C   UNL     1       3.251   5.517  18.648  0.00  0.00    +0.000 A 
ATOM      2  C   UNL     1       3.436   4.221  19.160  0.00  0.00    +0.000 A 
ATOM      3  C   UNL     1       2.864   3.828  20.379  0.00  0.00    +0.000 A 
ATOM      4  C   UNL     1       3.088   2.447  20.923  0.00  0.00    +0.000 C 
ATOM      5  C   UNL     1       2.088   4.740  21.092  0.00  0.00    +0.000 A 
ATOM      6  C   UNL     1       1.895   6.022  20.575  0.00  0.00    +0.000 A 
ATOM      7  O   UNL     1       1.096   6.885  21.365  0.00  0.00    +0.000 OA
ATOM      8  C   UNL     1       0.826   8.193  20.988  0.00  0.00    +0.000 A 
ATOM      9  O   UNL     1       0.143   8.949  21.672  0.00  0.00    +0.000 OA
ATOM     10  C   UNL     1       1.414   8.609  19.716  0.00  0.00    +0.000 A 
ATOM     11  C   UNL     1       2.167   7.811  18.953  0.00  0.00    +0.000 A 
ATOM     12  C   UNL     1       2.459   6.439  19.359  0.00  0.00    +0.000 A 
ATOM     13  C   UNL     1       2.617   8.504  17.713  0.00  0.00    +0.000 C 
ATOM     14  C   UNL     1       2.004   9.906  17.830  0.00  0.00    +0.000 C 
ATOM     15  C   UNL     1       1.228   9.967  19.148  0.00  0.00    +0.000 C 
ENDROOT
BRANCH   1  16
ATOM     16  O   UNL     1       3.811   5.945  17.471  0.00  0.00    +0.000 OA
BRANCH  16  17
ATOM     17  C   UNL     1       4.445   4.987  16.627  0.00  0.00    +0.000 C 
BRANCH  17  18
ATOM     18  C   UNL     1       5.534   5.671  15.809  0.00  0.00    +0.000 C 
ATOM     19  O   UNL     1       5.398   6.698  15.160  0.00  0.00    +0.000 OA
BRANCH  18  20
ATOM     20  O   UNL     1       6.679   4.919  15.847  0.00  0.00    +0.000 OA
BRANCH  20  21
ATOM     21  C   UNL     1       7.235   4.718  17.156  0.00  0.00    +0.000 C 
BRANCH  21  23
ATOM     22  C   UNL     1       7.804   5.770  19.351  0.00  0.00    +0.000 C 
ATOM     23  C   UNL     1       7.499   6.031  17.881  0.00  0.00    +0.000 C 
ENDBRANCH  21  23
ENDBRANCH  20  21
ENDBRANCH  18  20
ENDBRANCH  17  18
ENDBRANCH  16  17
ENDBRANCH   1  16
TORSDOF 6
ENDMDL
MODEL 9
REMARK VINA RESULT:      -6.8      1.144      1.556
REMARK  Name = 
REMARK  8 active torsions:
REMARK  status: ('A' for Active; 'I' for Inactive)
REMARK    1  A    between atoms: C_1  and  C_2
REMARK    2  A    between atoms: C_2  and  C_3
REMARK    3  A    between atoms: C_3  and  O_4
REMARK    4  A    between atoms: O_4  and  C_5
REMARK    5  A    between atoms: C_5  and  C_7
REMARK    6  A    between atoms: C_7  and  O_8
REMARK    7  A    between atoms: O_8  and  C_9
REMARK    8  A    between atoms: C_11  and  C_12
REMARK                            x       y       z     vdW  Elec       q    Type
REMARK                         _______ _______ _______ _____ _____    ______ ____
ROOT
ATOM      1  C   UNL     1       3.525   5.408  19.521  0.00  0.00    +0.000 A 
ATOM      2  C   UNL     1       4.470   4.696  18.763  0.00  0.00    +0.000 A 
ATOM      3  C   UNL     1       4.943   5.186  17.536  0.00  0.00    +0.000 A 
ATOM      4  C   UNL     1       5.937   4.403  16.728  0.00  0.00    +0.000 C 
ATOM      5  C   UNL     1       4.472   6.410  17.065  0.00  0.00    +0.000 A 
ATOM      6  C   UNL     1       3.544   7.122  17.827  0.00  0.00    +0.000 A 
ATOM      7  O   UNL     1       3.118   8.355  17.273  0.00  0.00    +0.000 OA
ATOM      8  C   UNL     1       2.189   9.167  17.908  0.00  0.00    +0.000 A 
ATOM      9  O   UNL     1       1.808  10.231  17.430  0.00  0.00    +0.000 OA
ATOM     10  C   UNL     1       1.695   8.666  19.190  0.00  0.00    +0.000 A 
ATOM     11  C   UNL     1       2.087   7.510  19.732  0.00  0.00    +0.000 A 
ATOM     12  C   UNL     1       3.055   6.651  19.055  0.00  0.00    +0.000 A 
ATOM     13  C   UNL     1       1.422   7.268  21.044  0.00  0.00    +0.000 C 
ATOM     14  C   UNL     1       0.527   8.499  21.237  0.00  0.00    +0.000 C 
ATOM     15  C   UNL     1       0.704   9.401  20.014  0.00  0.00    +0.000 C 
ENDROOT
BRANCH   1  16
ATOM     16  O   UNL     1       3.023   4.952  20.713  0.00  0.00    +0.000 OA
BRANCH  16  17
ATOM     17  C   UNL     1       3.069   3.553  20.985  0.00  0.00    +0.000 C 
BRANCH  17  18
ATOM     18  C   UNL     1       1.660   3.040  21.254  0.00  0.00    +0.000 C 
ATOM     19  O   UNL     1       1.284   2.500  22.285  0.00  0.00    +0.000 OA
BRANCH  18  20
ATOM     20  O   UNL     1       0.888   3.205  20.135  0.00  0.00    +0.000 OA
BRANCH  20  21
ATOM     21  C   UNL     1       1.007   2.166  19.151  0.00  0.00    +0.000 C 
BRANCH  21  23
ATOM     22  C   UNL     1       1.215   4.017  17.484  0.00  0.00    +0.000 C 
ATOM     23  C   UNL     1       1.722   2.639  17.893  0.00  0.00    +0.000 C 
ENDBRANCH  21  23
ENDBRANCH  20  21
ENDBRANCH  18  20
ENDBRANCH  17  18
ENDBRANCH  16  17
ENDBRANCH   1  16
TORSDOF 6
ENDMDL
