MODEL 1
REMARK VINA RESULT:      -8.1      0.000      0.000
REMARK  Name = 
REMARK  4 active torsions:
REMARK  status: ('A' for Active; 'I' for Inactive)
REMARK    1  A    between atoms: C_1  and  C_2
REMARK    2  A    between atoms: C_2  and  C_3
REMARK    3  A    between atoms: C_12  and  C_13
REMARK    4  A    between atoms: C_19  and  O_20
REMARK                            x       y       z     vdW  Elec       q    Type
REMARK                         _______ _______ _______ _____ _____    ______ ____
ROOT
ATOM      1  C   UNL     1       7.265   4.827  15.089  0.00  0.00    +0.000 C 
ATOM      2  C   UNL     1       6.072   5.079  16.023  0.00  0.00    +0.000 C 
ATOM      3  C   UNL     1       5.127   6.084  15.330  0.00  0.00    +0.000 C 
ATOM      4  C   UNL     1       5.298   3.781  16.284  0.00  0.00    +0.000 C 
ATOM      5  C   UNL     1       4.177   4.007  17.296  0.00  0.00    +0.000 C 
ATOM      6  N   UNL     1       3.092   3.316  17.156  0.00  0.00    +0.000 NA
ATOM      7  C   UNL     1       2.185   3.348  18.162  0.00  0.00    +0.000 A 
ATOM      8  N   UNL     1       1.078   2.644  18.304  0.00  0.00    +0.000 NA
ATOM      9  C   UNL     1       0.586   3.041  19.515  0.00  0.00    +0.000 A 
ATOM     10  N   UNL     1       1.323   3.949  20.166  0.00  0.00    +0.000 NA
ATOM     11  N   UNL     1       2.318   4.147  19.271  0.00  0.00    +0.000 N 
ATOM     12  C   UNL     1       3.356   5.150  19.440  0.00  0.00    +0.000 C 
ATOM     13  C   UNL     1       4.484   4.895  18.462  0.00  0.00    +0.000 C 
ATOM     14  C   UNL     1       5.737   5.327  18.555  0.00  0.00    +0.000 C 
ATOM     15  C   UNL     1       6.622   5.603  17.369  0.00  0.00    +0.000 C 
ENDROOT
BRANCH  12  16
ATOM     16  C   UNL     1       2.735   6.532  19.232  0.00  0.00    +0.000 A 
ATOM     17  C   UNL     1       2.735   7.332  18.097  0.00  0.00    +0.000 A 
ATOM     18  C   UNL     1       2.074   8.575  18.294  0.00  0.00    +0.000 A 
ATOM     19  C   UNL     1       1.578   8.695  19.570  0.00  0.00    +0.000 A 
ATOM     20  S   UNL     1       1.913   7.317  20.527  0.00  0.00    +0.000 S 
ENDBRANCH  12  16
BRANCH  14  21
ATOM     21  O   UNL     1       6.332   5.506  19.792  0.00  0.00    +0.000 OA
ATOM     22  H   UNL     1       6.588   4.606  20.092  0.00  0.00    +0.000 HD
ENDBRANCH  14  21
TORSDOF 2
ENDMDL
MODEL 2
REMARK VINA RESULT:      -7.6      2.661      5.232
REMARK  Name = 
REMARK  4 active torsions:
REMARK  status: ('A' for Active; 'I' for Inactive)
REMARK    1  A    between atoms: C_1  and  C_2
REMARK    2  A    between atoms: C_2  and  C_3
REMARK    3  A    between atoms: C_12  and  C_13
REMARK    4  A    between atoms: C_19  and  O_20
REMARK                            x       y       z     vdW  Elec       q    Type
REMARK                         _______ _______ _______ _____ _____    ______ ____
ROOT
ATOM      1  C   UNL     1       1.089   3.374  19.891  0.00  0.00    +0.000 C 
ATOM      2  C   UNL     1       2.371   3.919  19.242  0.00  0.00    +0.000 C 
ATOM      3  C   UNL     1       3.578   3.365  20.029  0.00  0.00    +0.000 C 
ATOM      4  C   UNL     1       2.484   3.455  17.784  0.00  0.00    +0.000 C 
ATOM      5  C   UNL     1       3.700   4.081  17.105  0.00  0.00    +0.000 C 
ATOM      6  N   UNL     1       4.317   3.379  16.209  0.00  0.00    +0.000 NA
ATOM      7  C   UNL     1       5.254   3.998  15.452  0.00  0.00    +0.000 A 
ATOM      8  N   UNL     1       5.920   3.535  14.412  0.00  0.00    +0.000 NA
ATOM      9  C   UNL     1       6.686   4.591  14.011  0.00  0.00    +0.000 A 
ATOM     10  N   UNL     1       6.539   5.714  14.726  0.00  0.00    +0.000 NA
ATOM     11  N   UNL     1       5.645   5.299  15.652  0.00  0.00    +0.000 N 
ATOM     12  C   UNL     1       5.216   6.122  16.772  0.00  0.00    +0.000 C 
ATOM     13  C   UNL     1       3.985   5.518  17.415  0.00  0.00    +0.000 C 
ATOM     14  C   UNL     1       3.095   6.139  18.181  0.00  0.00    +0.000 C 
ATOM     15  C   UNL     1       2.298   5.463  19.263  0.00  0.00    +0.000 C 
ENDROOT
BRANCH  12  16
ATOM     16  C   UNL     1       6.373   6.230  17.766  0.00  0.00    +0.000 A 
ATOM     17  C   UNL     1       6.681   5.413  18.846  0.00  0.00    +0.000 A 
ATOM     18  C   UNL     1       7.829   5.849  19.563  0.00  0.00    +0.000 A 
ATOM     19  C   UNL     1       8.376   6.984  19.013  0.00  0.00    +0.000 A 
ATOM     20  S   UNL     1       7.506   7.523  17.641  0.00  0.00    +0.000 S 
ENDBRANCH  12  16
BRANCH  14  21
ATOM     21  O   UNL     1       2.810   7.480  17.986  0.00  0.00    +0.000 OA
ATOM     22  H   UNL     1       2.344   7.525  17.123  0.00  0.00    +0.000 HD
ENDBRANCH  14  21
TORSDOF 2
ENDMDL
MODEL 3
REMARK VINA RESULT:      -6.8      2.559      4.768
REMARK  Name = 
REMARK  4 active torsions:
REMARK  status: ('A' for Active; 'I' for Inactive)
REMARK    1  A    between atoms: C_1  and  C_2
REMARK    2  A    between atoms: C_2  and  C_3
REMARK    3  A    between atoms: C_12  and  C_13
REMARK    4  A    between atoms: C_19  and  O_20
REMARK                            x       y       z     vdW  Elec       q    Type
REMARK                         _______ _______ _______ _____ _____    ______ ____
ROOT
ATOM      1  C   UNL     1       1.972   1.762  21.471  0.00  0.00    +0.000 C 
ATOM      2  C   UNL     1       2.389   3.014  20.682  0.00  0.00    +0.000 C 
ATOM      3  C   UNL     1       2.244   4.236  21.615  0.00  0.00    +0.000 C 
ATOM      4  C   UNL     1       3.852   2.913  20.231  0.00  0.00    +0.000 C 
ATOM      5  C   UNL     1       4.236   4.104  19.357  0.00  0.00    +0.000 C 
ATOM      6  N   UNL     1       5.454   4.539  19.435  0.00  0.00    +0.000 NA
ATOM      7  C   UNL     1       5.863   5.446  18.516  0.00  0.00    +0.000 A 
ATOM      8  N   UNL     1       7.071   5.937  18.317  0.00  0.00    +0.000 NA
ATOM      9  C   UNL     1       6.919   6.762  17.238  0.00  0.00    +0.000 A 
ATOM     10  N   UNL     1       5.685   6.816  16.724  0.00  0.00    +0.000 NA
ATOM     11  N   UNL     1       5.028   5.992  17.572  0.00  0.00    +0.000 N 
ATOM     12  C   UNL     1       3.590   5.782  17.528  0.00  0.00    +0.000 C 
ATOM     13  C   UNL     1       3.220   4.574  18.363  0.00  0.00    +0.000 C 
ATOM     14  C   UNL     1       2.112   3.846  18.272  0.00  0.00    +0.000 C 
ATOM     15  C   UNL     1       1.492   3.107  19.427  0.00  0.00    +0.000 C 
ENDROOT
BRANCH  12  16
ATOM     16  C   UNL     1       2.898   7.048  18.035  0.00  0.00    +0.000 A 
ATOM     17  C   UNL     1       2.670   8.247  17.374  0.00  0.00    +0.000 A 
ATOM     18  C   UNL     1       2.014   9.213  18.186  0.00  0.00    +0.000 A 
ATOM     19  C   UNL     1       1.751   8.730  19.446  0.00  0.00    +0.000 A 
ATOM     20  S   UNL     1       2.296   7.120  19.648  0.00  0.00    +0.000 S 
ENDBRANCH  12  16
BRANCH  14  21
ATOM     21  O   UNL     1       1.473   3.685  17.054  0.00  0.00    +0.000 OA
ATOM     22  H   UNL     1       1.259   4.593  16.748  0.00  0.00    +0.000 HD
ENDBRANCH  14  21
TORSDOF 2
ENDMDL
MODEL 4
REMARK VINA RESULT:      -6.6      2.669      4.812
REMARK  Name = 
REMARK  4 active torsions:
REMARK  status: ('A' for Active; 'I' for Inactive)
REMARK    1  A    between atoms: C_1  and  C_2
REMARK    2  A    between atoms: C_2  and  C_3
REMARK    3  A    between atoms: C_12  and  C_13
REMARK    4  A    between atoms: C_19  and  O_20
REMARK                            x       y       z     vdW  Elec       q    Type
REMARK                         _______ _______ _______ _____ _____    ______ ____
ROOT
ATOM      1  C   UNL     1       1.918   1.512  21.182  0.00  0.00    +0.000 C 
ATOM      2  C   UNL     1       2.258   2.873  20.553  0.00  0.00    +0.000 C 
ATOM      3  C   UNL     1       2.209   3.940  21.668  0.00  0.00    +0.000 C 
ATOM      4  C   UNL     1       3.668   2.859  19.951  0.00  0.00    +0.000 C 
ATOM      5  C   UNL     1       3.967   4.172  19.231  0.00  0.00    +0.000 C 
ATOM      6  N   UNL     1       5.187   4.606  19.253  0.00  0.00    +0.000 NA
ATOM      7  C   UNL     1       5.506   5.645  18.445  0.00  0.00    +0.000 A 
ATOM      8  N   UNL     1       6.688   6.176  18.204  0.00  0.00    +0.000 NA
ATOM      9  C   UNL     1       6.432   7.151  17.281  0.00  0.00    +0.000 A 
ATOM     10  N   UNL     1       5.153   7.265  16.905  0.00  0.00    +0.000 NA
ATOM     11  N   UNL     1       4.582   6.316  17.681  0.00  0.00    +0.000 N 
ATOM     12  C   UNL     1       3.147   6.096  17.747  0.00  0.00    +0.000 C 
ATOM     13  C   UNL     1       2.859   4.772  18.424  0.00  0.00    +0.000 C 
ATOM     14  C   UNL     1       1.745   4.052  18.334  0.00  0.00    +0.000 C 
ATOM     15  C   UNL     1       1.241   3.142  19.420  0.00  0.00    +0.000 C 
ENDROOT
BRANCH  12  16
ATOM     16  C   UNL     1       2.511   7.263  18.504  0.00  0.00    +0.000 A 
ATOM     17  C   UNL     1       2.195   7.366  19.852  0.00  0.00    +0.000 A 
ATOM     18  C   UNL     1       1.584   8.606  20.186  0.00  0.00    +0.000 A 
ATOM     19  C   UNL     1       1.452   9.424  19.089  0.00  0.00    +0.000 A 
ATOM     20  S   UNL     1       2.059   8.698  17.663  0.00  0.00    +0.000 S 
ENDBRANCH  12  16
BRANCH  14  21
ATOM     21  O   UNL     1       0.988   4.067  17.175  0.00  0.00    +0.000 OA
ATOM     22  H   UNL     1       1.098   4.968  16.801  0.00  0.00    +0.000 HD
ENDBRANCH  14  21
TORSDOF 2
ENDMDL
MODEL 5
REMARK VINA RESULT:      -6.3      2.985      5.551
REMARK  Name = 
REMARK  4 active torsions:
REMARK  status: ('A' for Active; 'I' for Inactive)
REMARK    1  A    between atoms: C_1  and  C_2
REMARK    2  A    between atoms: C_2  and  C_3
REMARK    3  A    between atoms: C_12  and  C_13
REMARK    4  A    between atoms: C_19  and  O_20
REMARK                            x       y       z     vdW  Elec       q    Type
REMARK                         _______ _______ _______ _____ _____    ______ ____
ROOT
ATOM      1  C   UNL     1       0.328   3.264  19.522  0.00  0.00    +0.000 C 
ATOM      2  C   UNL     1       1.685   3.581  18.874  0.00  0.00    +0.000 C 
ATOM      3  C   UNL     1       1.472   4.713  17.846  0.00  0.00    +0.000 C 
ATOM      4  C   UNL     1       2.694   4.059  19.926  0.00  0.00    +0.000 C 
ATOM      5  C   UNL     1       4.072   4.271  19.303  0.00  0.00    +0.000 C 
ATOM      6  N   UNL     1       4.808   5.223  19.782  0.00  0.00    +0.000 NA
ATOM      7  C   UNL     1       6.104   5.281  19.390  0.00  0.00    +0.000 A 
ATOM      8  N   UNL     1       7.067   6.070  19.825  0.00  0.00    +0.000 NA
ATOM      9  C   UNL     1       8.168   5.664  19.126  0.00  0.00    +0.000 A 
ATOM     10  N   UNL     1       7.970   4.649  18.277  0.00  0.00    +0.000 NA
ATOM     11  N   UNL     1       6.643   4.444  18.445  0.00  0.00    +0.000 N 
ATOM     12  C   UNL     1       5.875   3.499  17.651  0.00  0.00    +0.000 C 
ATOM     13  C   UNL     1       4.526   3.261  18.296  0.00  0.00    +0.000 C 
ATOM     14  C   UNL     1       3.721   2.220  18.109  0.00  0.00    +0.000 C 
ATOM     15  C   UNL     1       2.223   2.281  18.232  0.00  0.00    +0.000 C 
ENDROOT
BRANCH  12  16
ATOM     16  C   UNL     1       5.729   4.059  16.235  0.00  0.00    +0.000 A 
ATOM     17  C   UNL     1       5.968   3.436  15.018  0.00  0.00    +0.000 A 
ATOM     18  C   UNL     1       5.745   4.292  13.903  0.00  0.00    +0.000 A 
ATOM     19  C   UNL     1       5.336   5.545  14.293  0.00  0.00    +0.000 A 
ATOM     20  S   UNL     1       5.225   5.689  15.995  0.00  0.00    +0.000 S 
ENDBRANCH  12  16
BRANCH  14  21
ATOM     21  O   UNL     1       4.241   0.968  17.828  0.00  0.00    +0.000 OA
ATOM     22  H   UNL     1       5.181   1.122  17.589  0.00  0.00    +0.000 HD
ENDBRANCH  14  21
TORSDOF 2
ENDMDL
MODEL 6
REMARK VINA RESULT:      -5.9      2.618      4.961
REMARK  Name = 
REMARK  4 active torsions:
REMARK  status: ('A' for Active; 'I' for Inactive)
REMARK    1  A    between atoms: C_1  and  C_2
REMARK    2  A    between atoms: C_2  and  C_3
REMARK    3  A    between atoms: C_12  and  C_13
REMARK    4  A    between atoms: C_19  and  O_20
REMARK                            x       y       z     vdW  Elec       q    Type
REMARK                         _______ _______ _______ _____ _____    ______ ____
ROOT
ATOM      1  C   UNL     1       1.500   2.126  22.027  0.00  0.00    +0.000 C 
ATOM      2  C   UNL     1       2.131   3.082  21.004  0.00  0.00    +0.000 C 
ATOM      3  C   UNL     1       2.250   4.474  21.660  0.00  0.00    +0.000 C 
ATOM      4  C   UNL     1       3.535   2.608  20.606  0.00  0.00    +0.000 C 
ATOM      5  C   UNL     1       4.121   3.495  19.510  0.00  0.00    +0.000 C 
ATOM      6  N   UNL     1       5.401   3.690  19.515  0.00  0.00    +0.000 NA
ATOM      7  C   UNL     1       5.955   4.291  18.434  0.00  0.00    +0.000 A 
ATOM      8  N   UNL     1       7.229   4.486  18.156  0.00  0.00    +0.000 NA
ATOM      9  C   UNL     1       7.212   5.084  16.928  0.00  0.00    +0.000 A 
ATOM     10  N   UNL     1       5.999   5.270  16.394  0.00  0.00    +0.000 NA
ATOM     11  N   UNL     1       5.218   4.783  17.385  0.00  0.00    +0.000 N 
ATOM     12  C   UNL     1       3.765   4.852  17.363  0.00  0.00    +0.000 C 
ATOM     13  C   UNL     1       3.190   3.938  18.425  0.00  0.00    +0.000 C 
ATOM     14  C   UNL     1       1.959   3.437  18.469  0.00  0.00    +0.000 C 
ATOM     15  C   UNL     1       1.238   3.088  19.742  0.00  0.00    +0.000 C 
ENDROOT
BRANCH  12  16
ATOM     16  C   UNL     1       3.345   6.306  17.586  0.00  0.00    +0.000 A 
ATOM     17  C   UNL     1       2.204   6.803  18.201  0.00  0.00    +0.000 A 
ATOM     18  C   UNL     1       2.146   8.225  18.196  0.00  0.00    +0.000 A 
ATOM     19  C   UNL     1       3.245   8.780  17.585  0.00  0.00    +0.000 A 
ATOM     20  S   UNL     1       4.338   7.592  17.016  0.00  0.00    +0.000 S 
ENDBRANCH  12  16
BRANCH  14  21
ATOM     21  O   UNL     1       1.270   3.156  17.301  0.00  0.00    +0.000 OA
ATOM     22  H   UNL     1       1.935   2.767  16.692  0.00  0.00    +0.000 HD
ENDBRANCH  14  21
TORSDOF 2
ENDMDL
MODEL 7
REMARK VINA RESULT:      -5.7      9.931     11.925
REMARK  Name = 
REMARK  4 active torsions:
REMARK  status: ('A' for Active; 'I' for Inactive)
REMARK    1  A    between atoms: C_1  and  C_2
REMARK    2  A    between atoms: C_2  and  C_3
REMARK    3  A    between atoms: C_12  and  C_13
REMARK    4  A    between atoms: C_19  and  O_20
REMARK                            x       y       z     vdW  Elec       q    Type
REMARK                         _______ _______ _______ _____ _____    ______ ____
ROOT
ATOM      1  C   UNL     1       4.329  16.489  19.128  0.00  0.00    +0.000 C 
ATOM      2  C   UNL     1       5.656  15.720  19.035  0.00  0.00    +0.000 C 
ATOM      3  C   UNL     1       5.485  14.596  17.991  0.00  0.00    +0.000 C 
ATOM      4  C   UNL     1       6.792  16.643  18.578  0.00  0.00    +0.000 C 
ATOM      5  C   UNL     1       8.131  15.908  18.589  0.00  0.00    +0.000 C 
ATOM      6  N   UNL     1       9.002  16.232  17.687  0.00  0.00    +0.000 NA
ATOM      7  C   UNL     1      10.260  15.747  17.818  0.00  0.00    +0.000 A 
ATOM      8  N   UNL     1      11.335  16.029  17.108  0.00  0.00    +0.000 NA
ATOM      9  C   UNL     1      12.326  15.302  17.705  0.00  0.00    +0.000 A 
ATOM     10  N   UNL     1      11.951  14.581  18.768  0.00  0.00    +0.000 NA
ATOM     11  N   UNL     1      10.628  14.861  18.800  0.00  0.00    +0.000 N 
ATOM     12  C   UNL     1       9.700  14.226  19.722  0.00  0.00    +0.000 C 
ATOM     13  C   UNL     1       8.389  14.985  19.738  0.00  0.00    +0.000 C 
ATOM     14  C   UNL     1       7.464  14.964  20.692  0.00  0.00    +0.000 C 
ATOM     15  C   UNL     1       5.996  15.183  20.445  0.00  0.00    +0.000 C 
ENDROOT
BRANCH  12  16
ATOM     16  C   UNL     1       9.502  12.772  19.289  0.00  0.00    +0.000 A 
ATOM     17  C   UNL     1       9.136  12.269  18.048  0.00  0.00    +0.000 A 
ATOM     18  C   UNL     1       9.025  10.851  18.035  0.00  0.00    +0.000 A 
ATOM     19  C   UNL     1       9.314  10.303  19.261  0.00  0.00    +0.000 A 
ATOM     20  S   UNL     1       9.713  11.494  20.424  0.00  0.00    +0.000 S 
ENDBRANCH  12  16
BRANCH  14  21
ATOM     21  O   UNL     1       7.821  14.782  22.017  0.00  0.00    +0.000 OA
ATOM     22  H   UNL     1       7.191  14.115  22.368  0.00  0.00    +0.000 HD
ENDBRANCH  14  21
TORSDOF 2
ENDMDL
MODEL 8
REMARK VINA RESULT:      -5.7      7.950      9.593
REMARK  Name = 
REMARK  4 active torsions:
REMARK  status: ('A' for Active; 'I' for Inactive)
REMARK    1  A    between atoms: C_1  and  C_2
REMARK    2  A    between atoms: C_2  and  C_3
REMARK    3  A    between atoms: C_12  and  C_13
REMARK    4  A    between atoms: C_19  and  O_20
REMARK                            x       y       z     vdW  Elec       q    Type
REMARK                         _______ _______ _______ _____ _____    ______ ____
ROOT
ATOM      1  C   UNL     1      -2.979  10.908  16.016  0.00  0.00    +0.000 C 
ATOM      2  C   UNL     1      -2.219  11.119  17.335  0.00  0.00    +0.000 C 
ATOM      3  C   UNL     1      -1.324   9.884  17.573  0.00  0.00    +0.000 C 
ATOM      4  C   UNL     1      -1.325  12.363  17.257  0.00  0.00    +0.000 C 
ATOM      5  C   UNL     1      -0.651  12.636  18.600  0.00  0.00    +0.000 C 
ATOM      6  N   UNL     1       0.538  13.148  18.583  0.00  0.00    +0.000 NA
ATOM      7  C   UNL     1       1.054  13.592  19.754  0.00  0.00    +0.000 A 
ATOM      8  N   UNL     1       2.175  14.252  19.969  0.00  0.00    +0.000 NA
ATOM      9  C   UNL     1       2.169  14.487  21.315  0.00  0.00    +0.000 A 
ATOM     10  N   UNL     1       1.097  14.029  21.974  0.00  0.00    +0.000 NA
ATOM     11  N   UNL     1       0.420  13.440  20.963  0.00  0.00    +0.000 N 
ATOM     12  C   UNL     1      -0.798  12.670  21.160  0.00  0.00    +0.000 C 
ATOM     13  C   UNL     1      -1.482  12.439  19.829  0.00  0.00    +0.000 C 
ATOM     14  C   UNL     1      -2.760  12.133  19.628  0.00  0.00    +0.000 C 
ATOM     15  C   UNL     1      -3.261  11.332  18.458  0.00  0.00    +0.000 C 
ENDROOT
BRANCH  12  16
ATOM     16  C   UNL     1      -0.433  11.349  21.840  0.00  0.00    +0.000 A 
ATOM     17  C   UNL     1      -0.948  10.790  23.002  0.00  0.00    +0.000 A 
ATOM     18  C   UNL     1      -0.336   9.552  23.340  0.00  0.00    +0.000 A 
ATOM     19  C   UNL     1       0.627   9.190  22.429  0.00  0.00    +0.000 A 
ATOM     20  S   UNL     1       0.794  10.341  21.173  0.00  0.00    +0.000 S 
ENDBRANCH  12  16
BRANCH  14  21
ATOM     21  O   UNL     1      -3.739  12.595  20.492  0.00  0.00    +0.000 OA
ATOM     22  H   UNL     1      -4.585  12.503  20.001  0.00  0.00    +0.000 HD
ENDBRANCH  14  21
TORSDOF 2
ENDMDL
MODEL 9
REMARK VINA RESULT:      -5.6      9.933     13.106
REMARK  Name = 
REMARK  4 active torsions:
REMARK  status: ('A' for Active; 'I' for Inactive)
REMARK    1  A    between atoms: C_1  and  C_2
REMARK    2  A    between atoms: C_2  and  C_3
REMARK    3  A    between atoms: C_12  and  C_13
REMARK    4  A    between atoms: C_19  and  O_20
REMARK                            x       y       z     vdW  Elec       q    Type
REMARK                         _______ _______ _______ _____ _____    ______ ____
ROOT
ATOM      1  C   UNL     1      -7.257  16.995  20.157  0.00  0.00    +0.000 C 
ATOM      2  C   UNL     1      -6.791  15.558  19.874  0.00  0.00    +0.000 C 
ATOM      3  C   UNL     1      -5.406  15.367  20.528  0.00  0.00    +0.000 C 
ATOM      4  C   UNL     1      -7.764  14.540  20.482  0.00  0.00    +0.000 C 
ATOM      5  C   UNL     1      -7.363  13.114  20.111  0.00  0.00    +0.000 C 
ATOM      6  N   UNL     1      -7.592  12.180  20.978  0.00  0.00    +0.000 NA
ATOM      7  C   UNL     1      -7.442  10.894  20.580  0.00  0.00    +0.000 A 
ATOM      8  N   UNL     1      -7.730   9.785  21.233  0.00  0.00    +0.000 NA
ATOM      9  C   UNL     1      -7.431   8.791  20.345  0.00  0.00    +0.000 A 
ATOM     10  N   UNL     1      -6.981   9.200  19.153  0.00  0.00    +0.000 NA
ATOM     11  N   UNL     1      -6.972  10.539  19.340  0.00  0.00    +0.000 N 
ATOM     12  C   UNL     1      -6.446  11.478  18.362  0.00  0.00    +0.000 C 
ATOM     13  C   UNL     1      -6.882  12.885  18.712  0.00  0.00    +0.000 C 
ATOM     14  C   UNL     1      -6.940  13.932  17.895  0.00  0.00    +0.000 C 
ATOM     15  C   UNL     1      -6.764  15.358  18.341  0.00  0.00    +0.000 C 
ENDROOT
BRANCH  12  16
ATOM     16  C   UNL     1      -4.922  11.353  18.338  0.00  0.00    +0.000 A 
ATOM     17  C   UNL     1      -4.120  10.557  17.531  0.00  0.00    +0.000 A 
ATOM     18  C   UNL     1      -2.734  10.691  17.821  0.00  0.00    +0.000 A 
ATOM     19  C   UNL     1      -2.508  11.588  18.837  0.00  0.00    +0.000 A 
ATOM     20  S   UNL     1      -3.960  12.262  19.441  0.00  0.00    +0.000 S 
ENDBRANCH  12  16
BRANCH  14  21
ATOM     21  O   UNL     1      -7.224  13.763  16.551  0.00  0.00    +0.000 OA
ATOM     22  H   UNL     1      -7.881  13.034  16.512  0.00  0.00    +0.000 HD
ENDBRANCH  14  21
TORSDOF 2
ENDMDL
