MODEL 1
REMARK VINA RESULT:      -8.4      0.000      0.000
REMARK  Name = 
REMARK  4 active torsions:
REMARK  status: ('A' for Active; 'I' for Inactive)
REMARK    1  A    between atoms: C_1  and  C_2
REMARK    2  A    between atoms: C_4  and  N_5
REMARK    3  A    between atoms: N_5  and  C_6
REMARK    4  A    between atoms: C_11  and  C_12
REMARK                            x       y       z     vdW  Elec       q    Type
REMARK                         _______ _______ _______ _____ _____    ______ ____
ROOT
ATOM      1  N   UNL     1       5.319   3.874  18.709  0.00  0.00    +0.000 N 
ATOM      2  H   UNL     1       5.410   2.865  18.651  0.00  0.00    +0.000 HD
ENDROOT
BRANCH   1   6
ATOM      3  C   UNL     1       6.379   3.990  13.904  0.00  0.00    +0.000 C 
ATOM      4  C   UNL     1       6.467   4.517  15.303  0.00  0.00    +0.000 A 
ATOM      5  C   UNL     1       5.857   3.861  16.347  0.00  0.00    +0.000 A 
ATOM      6  C   UNL     1       5.954   4.444  17.593  0.00  0.00    +0.000 A 
ATOM      7  N   UNL     1       6.602   5.603  17.790  0.00  0.00    +0.000 NA
ATOM      8  C   UNL     1       7.166   6.170  16.719  0.00  0.00    +0.000 A 
ATOM      9  N   UNL     1       7.873   7.340  16.906  0.00  0.00    +0.000 N 
ATOM     10  N   UNL     1       7.143   5.669  15.482  0.00  0.00    +0.000 NA
ATOM     11  H   UNL     1       8.216   7.390  17.855  0.00  0.00    +0.000 HD
ATOM     12  H   UNL     1       8.549   7.445  16.162  0.00  0.00    +0.000 HD
ENDBRANCH   1   6
BRANCH   1  13
ATOM     13  C   UNL     1       4.143   4.284  19.370  0.00  0.00    +0.000 A 
ATOM     14  C   UNL     1       3.433   3.339  20.113  0.00  0.00    +0.000 A 
ATOM     15  C   UNL     1       2.273   3.706  20.791  0.00  0.00    +0.000 A 
ATOM     16 CL   UNL     1       1.427   2.536  21.729  0.00  0.00    +0.000 Cl
ATOM     17  C   UNL     1       1.788   5.012  20.721  0.00  0.00    +0.000 A 
ATOM     18  C   UNL     1       2.467   5.981  19.969  0.00  0.00    +0.000 A 
ATOM     19  C   UNL     1       3.642   5.594  19.297  0.00  0.00    +0.000 A 
BRANCH  18  20
ATOM     20  C   UNL     1       1.972   7.362  19.853  0.00  0.00    +0.000 A 
ATOM     21  C   UNL     1       1.345   8.163  20.796  0.00  0.00    +0.000 A 
ATOM     22  N   UNL     1       0.979   9.432  20.385  0.00  0.00    +0.000 NA
ATOM     23  C   UNL     1       1.328   9.592  19.130  0.00  0.00    +0.000 A 
ATOM     24  S   UNL     1       2.085   8.253  18.380  0.00  0.00    +0.000 S 
ENDBRANCH  18  20
ENDBRANCH   1  13
TORSDOF 3
ENDMDL
MODEL 2
REMARK VINA RESULT:      -8.4      3.105      4.180
REMARK  Name = 
REMARK  4 active torsions:
REMARK  status: ('A' for Active; 'I' for Inactive)
REMARK    1  A    between atoms: C_1  and  C_2
REMARK    2  A    between atoms: C_4  and  N_5
REMARK    3  A    between atoms: N_5  and  C_6
REMARK    4  A    between atoms: C_11  and  C_12
REMARK                            x       y       z     vdW  Elec       q    Type
REMARK                         _______ _______ _______ _____ _____    ______ ____
ROOT
ATOM      1  N   UNL     1       6.365   4.322  16.667  0.00  0.00    +0.000 N 
ATOM      2  H   UNL     1       6.721   3.443  17.031  0.00  0.00    +0.000 HD
ENDROOT
BRANCH   1   6
ATOM      3  C   UNL     1       5.298   3.089  12.022  0.00  0.00    +0.000 C 
ATOM      4  C   UNL     1       6.117   3.789  13.063  0.00  0.00    +0.000 A 
ATOM      5  C   UNL     1       5.834   3.646  14.402  0.00  0.00    +0.000 A 
ATOM      6  C   UNL     1       6.614   4.363  15.285  0.00  0.00    +0.000 A 
ATOM      7  N   UNL     1       7.600   5.174  14.870  0.00  0.00    +0.000 NA
ATOM      8  C   UNL     1       7.806   5.250  13.551  0.00  0.00    +0.000 A 
ATOM      9  N   UNL     1       8.842   6.046  13.106  0.00  0.00    +0.000 N 
ATOM     10  N   UNL     1       7.118   4.578  12.626  0.00  0.00    +0.000 NA
ATOM     11  H   UNL     1       9.547   6.130  13.823  0.00  0.00    +0.000 HD
ATOM     12  H   UNL     1       9.142   5.724  12.195  0.00  0.00    +0.000 HD
ENDBRANCH   1   6
BRANCH   1  13
ATOM     13  C   UNL     1       5.256   4.809  17.387  0.00  0.00    +0.000 A 
ATOM     14  C   UNL     1       4.790   6.094  17.104  0.00  0.00    +0.000 A 
ATOM     15  C   UNL     1       3.688   6.608  17.784  0.00  0.00    +0.000 A 
ATOM     16 CL   UNL     1       3.108   8.183  17.401  0.00  0.00    +0.000 Cl
ATOM     17  C   UNL     1       3.047   5.860  18.772  0.00  0.00    +0.000 A 
ATOM     18  C   UNL     1       3.501   4.573  19.093  0.00  0.00    +0.000 A 
ATOM     19  C   UNL     1       4.610   4.067  18.390  0.00  0.00    +0.000 A 
BRANCH  18  20
ATOM     20  C   UNL     1       2.864   3.765  20.146  0.00  0.00    +0.000 A 
ATOM     21  C   UNL     1       3.419   2.827  21.003  0.00  0.00    +0.000 A 
ATOM     22  N   UNL     1       2.555   2.214  21.892  0.00  0.00    +0.000 NA
ATOM     23  C   UNL     1       1.345   2.687  21.707  0.00  0.00    +0.000 A 
ATOM     24  S   UNL     1       1.173   3.858  20.471  0.00  0.00    +0.000 S 
ENDBRANCH  18  20
ENDBRANCH   1  13
TORSDOF 3
ENDMDL
MODEL 3
REMARK VINA RESULT:      -8.1      0.949      1.035
REMARK  Name = 
REMARK  4 active torsions:
REMARK  status: ('A' for Active; 'I' for Inactive)
REMARK    1  A    between atoms: C_1  and  C_2
REMARK    2  A    between atoms: C_4  and  N_5
REMARK    3  A    between atoms: N_5  and  C_6
REMARK    4  A    between atoms: C_11  and  C_12
REMARK                            x       y       z     vdW  Elec       q    Type
REMARK                         _______ _______ _______ _____ _____    ______ ____
ROOT
ATOM      1  N   UNL     1       4.745   3.527  17.860  0.00  0.00    +0.000 N 
ATOM      2  H   UNL     1       4.424   2.657  17.446  0.00  0.00    +0.000 HD
ENDROOT
BRANCH   1   6
ATOM      3  C   UNL     1       6.634   4.089  13.350  0.00  0.00    +0.000 C 
ATOM      4  C   UNL     1       6.497   4.458  14.795  0.00  0.00    +0.000 A 
ATOM      5  C   UNL     1       5.687   3.732  15.638  0.00  0.00    +0.000 A 
ATOM      6  C   UNL     1       5.589   4.172  16.941  0.00  0.00    +0.000 A 
ATOM      7  N   UNL     1       6.240   5.262  17.378  0.00  0.00    +0.000 NA
ATOM      8  C   UNL     1       7.007   5.904  16.491  0.00  0.00    +0.000 A 
ATOM      9  N   UNL     1       7.718   7.003  16.929  0.00  0.00    +0.000 N 
ATOM     10  N   UNL     1       7.180   5.540  15.218  0.00  0.00    +0.000 NA
ATOM     11  H   UNL     1       7.891   6.930  17.921  0.00  0.00    +0.000 HD
ATOM     12  H   UNL     1       8.518   7.144  16.327  0.00  0.00    +0.000 HD
ENDBRANCH   1   6
BRANCH   1  13
ATOM     13  C   UNL     1       3.813   4.086  18.758  0.00  0.00    +0.000 A 
ATOM     14  C   UNL     1       3.279   3.270  19.757  0.00  0.00    +0.000 A 
ATOM     15  C   UNL     1       2.364   3.787  20.672  0.00  0.00    +0.000 A 
ATOM     16 CL   UNL     1       1.738   2.776  21.917  0.00  0.00    +0.000 Cl
ATOM     17  C   UNL     1       1.950   5.117  20.593  0.00  0.00    +0.000 A 
ATOM     18  C   UNL     1       2.454   5.958  19.591  0.00  0.00    +0.000 A 
ATOM     19  C   UNL     1       3.383   5.421  18.680  0.00  0.00    +0.000 A 
BRANCH  18  20
ATOM     20  C   UNL     1       2.021   7.359  19.463  0.00  0.00    +0.000 A 
ATOM     21  C   UNL     1       2.104   8.219  18.377  0.00  0.00    +0.000 A 
ATOM     22  N   UNL     1       1.616   9.500  18.564  0.00  0.00    +0.000 NA
ATOM     23  C   UNL     1       1.165   9.611  19.791  0.00  0.00    +0.000 A 
ATOM     24  S   UNL     1       1.310   8.220  20.778  0.00  0.00    +0.000 S 
ENDBRANCH  18  20
ENDBRANCH   1  13
TORSDOF 3
ENDMDL
MODEL 4
REMARK VINA RESULT:      -8.1      2.026      2.679
REMARK  Name = 
REMARK  4 active torsions:
REMARK  status: ('A' for Active; 'I' for Inactive)
REMARK    1  A    between atoms: C_1  and  C_2
REMARK    2  A    between atoms: C_4  and  N_5
REMARK    3  A    between atoms: N_5  and  C_6
REMARK    4  A    between atoms: C_11  and  C_12
REMARK                            x       y       z     vdW  Elec       q    Type
REMARK                         _______ _______ _______ _____ _____    ______ ____
ROOT
ATOM      1  N   UNL     1       6.118   4.737  16.524  0.00  0.00    +0.000 N 
ATOM      2  H   UNL     1       6.760   4.184  17.084  0.00  0.00    +0.000 HD
ENDROOT
BRANCH   1   6
ATOM      3  C   UNL     1       5.454   2.968  11.979  0.00  0.00    +0.000 C 
ATOM      4  C   UNL     1       6.184   3.786  12.999  0.00  0.00    +0.000 A 
ATOM      5  C   UNL     1       5.783   3.800  14.315  0.00  0.00    +0.000 A 
ATOM      6  C   UNL     1       6.488   4.617  15.174  0.00  0.00    +0.000 A 
ATOM      7  N   UNL     1       7.513   5.377  14.756  0.00  0.00    +0.000 NA
ATOM      8  C   UNL     1       7.835   5.298  13.461  0.00  0.00    +0.000 A 
ATOM      9  N   UNL     1       8.912   6.039  13.019  0.00  0.00    +0.000 N 
ATOM     10  N   UNL     1       7.226   4.521  12.563  0.00  0.00    +0.000 NA
ATOM     11  H   UNL     1       9.552   6.208  13.781  0.00  0.00    +0.000 HD
ATOM     12  H   UNL     1       9.289   5.614  12.183  0.00  0.00    +0.000 HD
ENDBRANCH   1   6
BRANCH   1  13
ATOM     13  C   UNL     1       4.830   4.827  17.090  0.00  0.00    +0.000 A 
ATOM     14  C   UNL     1       4.092   3.654  17.256  0.00  0.00    +0.000 A 
ATOM     15  C   UNL     1       2.820   3.698  17.823  0.00  0.00    +0.000 A 
ATOM     16 CL   UNL     1       1.937   2.238  18.050  0.00  0.00    +0.000 Cl
ATOM     17  C   UNL     1       2.254   4.912  18.212  0.00  0.00    +0.000 A 
ATOM     18  C   UNL     1       2.961   6.111  18.042  0.00  0.00    +0.000 A 
ATOM     19  C   UNL     1       4.248   6.046  17.475  0.00  0.00    +0.000 A 
BRANCH  18  20
ATOM     20  C   UNL     1       2.386   7.412  18.419  0.00  0.00    +0.000 A 
ATOM     21  C   UNL     1       2.228   8.565  17.664  0.00  0.00    +0.000 A 
ATOM     22  N   UNL     1       1.655   9.650  18.304  0.00  0.00    +0.000 NA
ATOM     23  C   UNL     1       1.381   9.318  19.543  0.00  0.00    +0.000 A 
ATOM     24  S   UNL     1       1.798   7.726  20.010  0.00  0.00    +0.000 S 
ENDBRANCH  18  20
ENDBRANCH   1  13
TORSDOF 3
ENDMDL
MODEL 5
REMARK VINA RESULT:      -8.0      2.105      6.581
REMARK  Name = 
REMARK  4 active torsions:
REMARK  status: ('A' for Active; 'I' for Inactive)
REMARK    1  A    between atoms: C_1  and  C_2
REMARK    2  A    between atoms: C_4  and  N_5
REMARK    3  A    between atoms: N_5  and  C_6
REMARK    4  A    between atoms: C_11  and  C_12
REMARK                            x       y       z     vdW  Elec       q    Type
REMARK                         _______ _______ _______ _____ _____    ______ ____
ROOT
ATOM      1  N   UNL     1       2.150   6.702  20.788  0.00  0.00    +0.000 N 
ATOM      2  H   UNL     1       2.840   6.831  21.521  0.00  0.00    +0.000 HD
ENDROOT
BRANCH   1   6
ATOM      3  C   UNL     1      -0.320  10.733  22.159  0.00  0.00    +0.000 C 
ATOM      4  C   UNL     1       0.382   9.876  21.151  0.00  0.00    +0.000 A 
ATOM      5  C   UNL     1       0.886   8.644  21.497  0.00  0.00    +0.000 A 
ATOM      6  C   UNL     1       1.555   7.945  20.514  0.00  0.00    +0.000 A 
ATOM      7  N   UNL     1       1.724   8.438  19.277  0.00  0.00    +0.000 NA
ATOM      8  C   UNL     1       1.199   9.642  19.029  0.00  0.00    +0.000 A 
ATOM      9  N   UNL     1       1.324  10.150  17.751  0.00  0.00    +0.000 N 
ATOM     10  N   UNL     1       0.518  10.380  19.908  0.00  0.00    +0.000 NA
ATOM     11  H   UNL     1       1.420   9.396  17.087  0.00  0.00    +0.000 HD
ATOM     12  H   UNL     1       0.589  10.823  17.586  0.00  0.00    +0.000 HD
ENDBRANCH   1   6
BRANCH   1  13
ATOM     13  C   UNL     1       2.476   5.656  19.901  0.00  0.00    +0.000 A 
ATOM     14  C   UNL     1       1.571   4.604  19.751  0.00  0.00    +0.000 A 
ATOM     15  C   UNL     1       1.850   3.557  18.874  0.00  0.00    +0.000 A 
ATOM     16 CL   UNL     1       0.709   2.284  18.677  0.00  0.00    +0.000 Cl
ATOM     17  C   UNL     1       3.043   3.530  18.153  0.00  0.00    +0.000 A 
ATOM     18  C   UNL     1       3.982   4.561  18.295  0.00  0.00    +0.000 A 
ATOM     19  C   UNL     1       3.679   5.615  19.178  0.00  0.00    +0.000 A 
BRANCH  18  20
ATOM     20  C   UNL     1       5.261   4.553  17.568  0.00  0.00    +0.000 A 
ATOM     21  C   UNL     1       6.553   4.733  18.041  0.00  0.00    +0.000 A 
ATOM     22  N   UNL     1       7.568   4.681  17.102  0.00  0.00    +0.000 NA
ATOM     23  C   UNL     1       7.045   4.463  15.919  0.00  0.00    +0.000 A 
ATOM     24  S   UNL     1       5.340   4.326  15.859  0.00  0.00    +0.000 S 
ENDBRANCH  18  20
ENDBRANCH   1  13
TORSDOF 3
ENDMDL
MODEL 6
REMARK VINA RESULT:      -8.0      1.399      1.575
REMARK  Name = 
REMARK  4 active torsions:
REMARK  status: ('A' for Active; 'I' for Inactive)
REMARK    1  A    between atoms: C_1  and  C_2
REMARK    2  A    between atoms: C_4  and  N_5
REMARK    3  A    between atoms: N_5  and  C_6
REMARK    4  A    between atoms: C_11  and  C_12
REMARK                            x       y       z     vdW  Elec       q    Type
REMARK                         _______ _______ _______ _____ _____    ______ ____
ROOT
ATOM      1  N   UNL     1       3.712   4.214  17.064  0.00  0.00    +0.000 N 
ATOM      2  H   UNL     1       3.115   4.303  16.248  0.00  0.00    +0.000 HD
ENDROOT
BRANCH   1   6
ATOM      3  C   UNL     1       7.153   4.760  13.587  0.00  0.00    +0.000 C 
ATOM      4  C   UNL     1       6.705   4.586  15.005  0.00  0.00    +0.000 A 
ATOM      5  C   UNL     1       5.373   4.431  15.314  0.00  0.00    +0.000 A 
ATOM      6  C   UNL     1       5.050   4.321  16.650  0.00  0.00    +0.000 A 
ATOM      7  N   UNL     1       5.981   4.372  17.616  0.00  0.00    +0.000 NA
ATOM      8  C   UNL     1       7.251   4.521  17.224  0.00  0.00    +0.000 A 
ATOM      9  N   UNL     1       8.228   4.533  18.198  0.00  0.00    +0.000 N 
ATOM     10  N   UNL     1       7.659   4.614  15.956  0.00  0.00    +0.000 NA
ATOM     11  H   UNL     1       7.914   4.024  19.011  0.00  0.00    +0.000 HD
ATOM     12  H   UNL     1       9.110   4.256  17.789  0.00  0.00    +0.000 HD
ENDBRANCH   1   6
BRANCH   1  13
ATOM     13  C   UNL     1       3.105   4.685  18.245  0.00  0.00    +0.000 A 
ATOM     14  C   UNL     1       2.877   3.781  19.284  0.00  0.00    +0.000 A 
ATOM     15  C   UNL     1       2.291   4.209  20.474  0.00  0.00    +0.000 A 
ATOM     16 CL   UNL     1       2.046   3.087  21.756  0.00  0.00    +0.000 Cl
ATOM     17  C   UNL     1       1.901   5.538  20.638  0.00  0.00    +0.000 A 
ATOM     18  C   UNL     1       2.099   6.468  19.608  0.00  0.00    +0.000 A 
ATOM     19  C   UNL     1       2.700   6.019  18.417  0.00  0.00    +0.000 A 
BRANCH  18  20
ATOM     20  C   UNL     1       1.678   7.873  19.738  0.00  0.00    +0.000 A 
ATOM     21  C   UNL     1       1.660   8.886  18.791  0.00  0.00    +0.000 A 
ATOM     22  N   UNL     1       1.215  10.124  19.218  0.00  0.00    +0.000 NA
ATOM     23  C   UNL     1       0.899  10.049  20.489  0.00  0.00    +0.000 A 
ATOM     24  S   UNL     1       1.125   8.526  21.236  0.00  0.00    +0.000 S 
ENDBRANCH  18  20
ENDBRANCH   1  13
TORSDOF 3
ENDMDL
MODEL 7
REMARK VINA RESULT:      -7.9      0.934      1.885
REMARK  Name = 
REMARK  4 active torsions:
REMARK  status: ('A' for Active; 'I' for Inactive)
REMARK    1  A    between atoms: C_1  and  C_2
REMARK    2  A    between atoms: C_4  and  N_5
REMARK    3  A    between atoms: N_5  and  C_6
REMARK    4  A    between atoms: C_11  and  C_12
REMARK                            x       y       z     vdW  Elec       q    Type
REMARK                         _______ _______ _______ _____ _____    ______ ____
ROOT
ATOM      1  N   UNL     1       4.939   4.088  18.337  0.00  0.00    +0.000 N 
ATOM      2  H   UNL     1       4.749   3.261  17.778  0.00  0.00    +0.000 HD
ENDROOT
BRANCH   1   6
ATOM      3  C   UNL     1       8.079   7.869  18.058  0.00  0.00    +0.000 C 
ATOM      4  C   UNL     1       7.339   6.703  17.478  0.00  0.00    +0.000 A 
ATOM      5  C   UNL     1       6.436   5.991  18.232  0.00  0.00    +0.000 A 
ATOM      6  C   UNL     1       5.835   4.906  17.628  0.00  0.00    +0.000 A 
ATOM      7  N   UNL     1       6.118   4.545  16.367  0.00  0.00    +0.000 NA
ATOM      8  C   UNL     1       7.007   5.295  15.708  0.00  0.00    +0.000 A 
ATOM      9  N   UNL     1       7.281   4.967  14.396  0.00  0.00    +0.000 N 
ATOM     10  N   UNL     1       7.620   6.373  16.202  0.00  0.00    +0.000 NA
ATOM     11  H   UNL     1       6.495   4.482  13.988  0.00  0.00    +0.000 HD
ATOM     12  H   UNL     1       7.624   5.785  13.911  0.00  0.00    +0.000 HD
ENDBRANCH   1   6
BRANCH   1  13
ATOM     13  C   UNL     1       3.857   4.457  19.161  0.00  0.00    +0.000 A 
ATOM     14  C   UNL     1       3.246   3.472  19.939  0.00  0.00    +0.000 A 
ATOM     15  C   UNL     1       2.181   3.798  20.777  0.00  0.00    +0.000 A 
ATOM     16 CL   UNL     1       1.460   2.578  21.753  0.00  0.00    +0.000 Cl
ATOM     17  C   UNL     1       1.694   5.104  20.835  0.00  0.00    +0.000 A 
ATOM     18  C   UNL     1       2.273   6.113  20.053  0.00  0.00    +0.000 A 
ATOM     19  C   UNL     1       3.353   5.767  19.219  0.00  0.00    +0.000 A 
BRANCH  18  20
ATOM     20  C   UNL     1       1.769   7.496  20.072  0.00  0.00    +0.000 A 
ATOM     21  C   UNL     1       1.162   8.206  21.097  0.00  0.00    +0.000 A 
ATOM     22  N   UNL     1       0.781   9.504  20.808  0.00  0.00    +0.000 NA
ATOM     23  C   UNL     1       1.098   9.776  19.565  0.00  0.00    +0.000 A 
ATOM     24  S   UNL     1       1.843   8.514  18.681  0.00  0.00    +0.000 S 
ENDBRANCH  18  20
ENDBRANCH   1  13
TORSDOF 3
ENDMDL
MODEL 8
REMARK VINA RESULT:      -7.9      2.202      6.790
REMARK  Name = 
REMARK  4 active torsions:
REMARK  status: ('A' for Active; 'I' for Inactive)
REMARK    1  A    between atoms: C_1  and  C_2
REMARK    2  A    between atoms: C_4  and  N_5
REMARK    3  A    between atoms: N_5  and  C_6
REMARK    4  A    between atoms: C_11  and  C_12
REMARK                            x       y       z     vdW  Elec       q    Type
REMARK                         _______ _______ _______ _____ _____    ______ ____
ROOT
ATOM      1  N   UNL     1       1.955   7.121  20.980  0.00  0.00    +0.000 N 
ATOM      2  H   UNL     1       2.760   7.299  21.574  0.00  0.00    +0.000 HD
ENDROOT
BRANCH   1   6
ATOM      3  C   UNL     1      -0.853  10.702  22.856  0.00  0.00    +0.000 C 
ATOM      4  C   UNL     1      -0.117  10.031  21.738  0.00  0.00    +0.000 A 
ATOM      5  C   UNL     1       0.531   8.833  21.935  0.00  0.00    +0.000 A 
ATOM      6  C   UNL     1       1.220   8.312  20.859  0.00  0.00    +0.000 A 
ATOM      7  N   UNL     1       1.272   8.939  19.674  0.00  0.00    +0.000 NA
ATOM      8  C   UNL     1       0.611  10.097  19.572  0.00  0.00    +0.000 A 
ATOM      9  N   UNL     1       0.617  10.737  18.350  0.00  0.00    +0.000 N 
ATOM     10  N   UNL     1      -0.099  10.665  20.549  0.00  0.00    +0.000 NA
ATOM     11  H   UNL     1       0.758  10.067  17.608  0.00  0.00    +0.000 HD
ATOM     12  H   UNL     1      -0.193  11.338  18.284  0.00  0.00    +0.000 HD
ENDBRANCH   1   6
BRANCH   1  13
ATOM     13  C   UNL     1       2.192   6.119  20.018  0.00  0.00    +0.000 A 
ATOM     14  C   UNL     1       1.442   4.944  20.082  0.00  0.00    +0.000 A 
ATOM     15  C   UNL     1       1.637   3.933  19.142  0.00  0.00    +0.000 A 
ATOM     16 CL   UNL     1       0.681   2.504  19.217  0.00  0.00    +0.000 Cl
ATOM     17  C   UNL     1       2.596   4.068  18.138  0.00  0.00    +0.000 A 
ATOM     18  C   UNL     1       3.378   5.229  18.056  0.00  0.00    +0.000 A 
ATOM     19  C   UNL     1       3.162   6.242  19.010  0.00  0.00    +0.000 A 
BRANCH  18  20
ATOM     20  C   UNL     1       4.416   5.395  17.026  0.00  0.00    +0.000 A 
ATOM     21  C   UNL     1       4.931   6.553  16.463  0.00  0.00    +0.000 A 
ATOM     22  N   UNL     1       5.905   6.389  15.494  0.00  0.00    +0.000 NA
ATOM     23  C   UNL     1       6.126   5.108  15.322  0.00  0.00    +0.000 A 
ATOM     24  S   UNL     1       5.188   4.044  16.281  0.00  0.00    +0.000 S 
ENDBRANCH  18  20
ENDBRANCH   1  13
TORSDOF 3
ENDMDL
MODEL 9
REMARK VINA RESULT:      -7.8      1.444      2.218
REMARK  Name = 
REMARK  4 active torsions:
REMARK  status: ('A' for Active; 'I' for Inactive)
REMARK    1  A    between atoms: C_1  and  C_2
REMARK    2  A    between atoms: C_4  and  N_5
REMARK    3  A    between atoms: N_5  and  C_6
REMARK    4  A    between atoms: C_11  and  C_12
REMARK                            x       y       z     vdW  Elec       q    Type
REMARK                         _______ _______ _______ _____ _____    ______ ____
ROOT
ATOM      1  N   UNL     1       3.609   5.123  17.291  0.00  0.00    +0.000 N 
ATOM      2  H   UNL     1       3.010   5.201  16.474  0.00  0.00    +0.000 HD
ENDROOT
BRANCH   1   6
ATOM      3  C   UNL     1       7.978   7.174  18.259  0.00  0.00    +0.000 C 
ATOM      4  C   UNL     1       7.004   6.463  17.369  0.00  0.00    +0.000 A 
ATOM      5  C   UNL     1       5.725   6.190  17.794  0.00  0.00    +0.000 A 
ATOM      6  C   UNL     1       4.913   5.493  16.924  0.00  0.00    +0.000 A 
ATOM      7  N   UNL     1       5.342   5.086  15.719  0.00  0.00    +0.000 NA
ATOM      8  C   UNL     1       6.599   5.397  15.387  0.00  0.00    +0.000 A 
ATOM      9  N   UNL     1       7.048   5.025  14.136  0.00  0.00    +0.000 N 
ATOM     10  N   UNL     1       7.448   6.086  16.154  0.00  0.00    +0.000 NA
ATOM     11  H   UNL     1       6.269   4.942  13.500  0.00  0.00    +0.000 HD
ATOM     12  H   UNL     1       7.810   5.629  13.862  0.00  0.00    +0.000 HD
ENDBRANCH   1   6
BRANCH   1  13
ATOM     13  C   UNL     1       2.924   5.356  18.501  0.00  0.00    +0.000 A 
ATOM     14  C   UNL     1       2.584   4.260  19.296  0.00  0.00    +0.000 A 
ATOM     15  C   UNL     1       1.918   4.448  20.505  0.00  0.00    +0.000 A 
ATOM     16 CL   UNL     1       1.534   3.089  21.488  0.00  0.00    +0.000 Cl
ATOM     17  C   UNL     1       1.560   5.728  20.930  0.00  0.00    +0.000 A 
ATOM     18  C   UNL     1       1.871   6.848  20.147  0.00  0.00    +0.000 A 
ATOM     19  C   UNL     1       2.551   6.639  18.932  0.00  0.00    +0.000 A 
BRANCH  18  20
ATOM     20  C   UNL     1       1.487   8.210  20.553  0.00  0.00    +0.000 A 
ATOM     21  C   UNL     1       1.353   8.754  21.822  0.00  0.00    +0.000 A 
ATOM     22  N   UNL     1       0.962  10.079  21.888  0.00  0.00    +0.000 NA
ATOM     23  C   UNL     1       0.799  10.538  20.670  0.00  0.00    +0.000 A 
ATOM     24  S   UNL     1       1.083   9.427  19.400  0.00  0.00    +0.000 S 
ENDBRANCH  18  20
ENDBRANCH   1  13
TORSDOF 3
ENDMDL
