MODEL 1
REMARK VINA RESULT:      -9.7      0.000      0.000
REMARK  Name = 
REMARK  2 active torsions:
REMARK  status: ('A' for Active; 'I' for Inactive)
REMARK    1  A    between atoms: C_2  and  C_15
REMARK    2  A    between atoms: C_19  and  C_21
REMARK                            x       y       z     vdW  Elec       q    Type
REMARK                         _______ _______ _______ _____ _____    ______ ____
ROOT
ATOM      1  O   UNL     1       1.984   5.042  20.457  0.00  0.00    +0.000 OA
ATOM      2  C   UNL     1       2.669   5.318  19.483  0.00  0.00    +0.000 C 
ATOM      3  N   UNL     1       2.678   6.513  18.800  0.00  0.00    +0.000 N 
ATOM      4  C   UNL     1       2.074   7.655  19.240  0.00  0.00    +0.000 A 
ATOM      5  N   UNL     1       1.618   7.990  20.418  0.00  0.00    +0.000 NA
ATOM      6  C   UNL     1       1.101   9.286  20.364  0.00  0.00    +0.000 A 
ATOM      7  C   UNL     1       0.532  10.042  21.415  0.00  0.00    +0.000 A 
ATOM      8  F   UNL     1       0.494   9.557  22.665  0.00  0.00    +0.000 F 
ATOM      9  C   UNL     1      -0.003  11.309  21.179  0.00  0.00    +0.000 A 
ATOM     10  C   UNL     1       0.027  11.836  19.899  0.00  0.00    +0.000 A 
ATOM     11  F   UNL     1      -0.513  13.040  19.670  0.00  0.00    +0.000 F 
ATOM     12  C   UNL     1       0.612  11.151  18.838  0.00  0.00    +0.000 A 
ATOM     13  C   UNL     1       1.154   9.883  19.098  0.00  0.00    +0.000 A 
ATOM     14  S   UNL     1       1.971   8.831  18.012  0.00  0.00    +0.000 S 
ATOM     15  H   UNL     1       3.105   6.575  17.891  0.00  0.00    +0.000 HD
ENDROOT
BRANCH   2  16
ATOM     16  C   UNL     1       3.674   4.321  18.870  0.00  0.00    +0.000 C 
ATOM     17  C   UNL     1       5.090   4.393  19.484  0.00  0.00    +0.000 C 
ATOM     18  C   UNL     1       6.062   5.346  18.779  0.00  0.00    +0.000 C 
ATOM     19  N   UNL     1       5.965   5.249  17.329  0.00  0.00    +0.000 N 
ATOM     20  C   UNL     1       7.034   4.683  16.613  0.00  0.00    +0.000 C 
ATOM     21  O   UNL     1       8.032   4.223  17.166  0.00  0.00    +0.000 OA
ATOM     22  C   UNL     1       4.613   5.487  16.833  0.00  0.00    +0.000 C 
ATOM     23  C   UNL     1       3.685   4.395  17.344  0.00  0.00    +0.000 C 
BRANCH  20  24
ATOM     24  C   UNL     1       6.984   4.603  15.121  0.00  0.00    +0.000 A 
ATOM     25  C   UNL     1       6.098   3.750  14.447  0.00  0.00    +0.000 A 
ATOM     26  C   UNL     1       6.162   3.619  13.060  0.00  0.00    +0.000 A 
ATOM     27  C   UNL     1       7.037   4.419  12.334  0.00  0.00    +0.000 A 
ATOM     28  F   UNL     1       7.094   4.295  11.003  0.00  0.00    +0.000 F 
ATOM     29  C   UNL     1       7.844   5.354  12.975  0.00  0.00    +0.000 A 
ATOM     30  C   UNL     1       7.823   5.443  14.370  0.00  0.00    +0.000 A 
ENDBRANCH  20  24
ENDBRANCH   2  16
TORSDOF 2
ENDMDL
MODEL 2
REMARK VINA RESULT:      -8.9      5.318      7.596
REMARK  Name = 
REMARK  2 active torsions:
REMARK  status: ('A' for Active; 'I' for Inactive)
REMARK    1  A    between atoms: C_2  and  C_15
REMARK    2  A    between atoms: C_19  and  C_21
REMARK                            x       y       z     vdW  Elec       q    Type
REMARK                         _______ _______ _______ _____ _____    ______ ____
ROOT
ATOM      1  O   UNL     1       7.504   7.481  16.479  0.00  0.00    +0.000 OA
ATOM      2  C   UNL     1       7.793   7.101  17.604  0.00  0.00    +0.000 C 
ATOM      3  N   UNL     1       8.382   7.851  18.597  0.00  0.00    +0.000 N 
ATOM      4  C   UNL     1       8.540   9.206  18.545  0.00  0.00    +0.000 A 
ATOM      5  N   UNL     1       7.992  10.109  17.775  0.00  0.00    +0.000 NA
ATOM      6  C   UNL     1       8.470  11.372  18.129  0.00  0.00    +0.000 A 
ATOM      7  C   UNL     1       8.122  12.624  17.571  0.00  0.00    +0.000 A 
ATOM      8  F   UNL     1       7.184  12.712  16.618  0.00  0.00    +0.000 F 
ATOM      9  C   UNL     1       8.747  13.798  17.997  0.00  0.00    +0.000 A 
ATOM     10  C   UNL     1       9.716  13.737  18.983  0.00  0.00    +0.000 A 
ATOM     11  F   UNL     1      10.334  14.861  19.369  0.00  0.00    +0.000 F 
ATOM     12  C   UNL     1      10.066  12.536  19.595  0.00  0.00    +0.000 A 
ATOM     13  C   UNL     1       9.419  11.369  19.159  0.00  0.00    +0.000 A 
ATOM     14  S   UNL     1       9.607   9.766  19.749  0.00  0.00    +0.000 S 
ATOM     15  H   UNL     1       8.777   7.402  19.405  0.00  0.00    +0.000 HD
ENDROOT
BRANCH   2  16
ATOM     16  C   UNL     1       7.508   5.665  18.090  0.00  0.00    +0.000 C 
ATOM     17  C   UNL     1       7.228   4.656  16.953  0.00  0.00    +0.000 C 
ATOM     18  C   UNL     1       5.753   4.498  16.566  0.00  0.00    +0.000 C 
ATOM     19  N   UNL     1       4.885   4.448  17.735  0.00  0.00    +0.000 N 
ATOM     20  C   UNL     1       4.249   3.237  18.057  0.00  0.00    +0.000 C 
ATOM     21  O   UNL     1       4.431   2.202  17.417  0.00  0.00    +0.000 OA
ATOM     22  C   UNL     1       5.033   5.613  18.603  0.00  0.00    +0.000 C 
ATOM     23  C   UNL     1       6.439   5.639  19.183  0.00  0.00    +0.000 C 
BRANCH  20  24
ATOM     24  C   UNL     1       3.321   3.160  19.228  0.00  0.00    +0.000 A 
ATOM     25  C   UNL     1       3.744   2.715  20.488  0.00  0.00    +0.000 A 
ATOM     26  C   UNL     1       2.823   2.548  21.523  0.00  0.00    +0.000 A 
ATOM     27  C   UNL     1       1.500   2.927  21.332  0.00  0.00    +0.000 A 
ATOM     28  F   UNL     1       0.619   2.770  22.327  0.00  0.00    +0.000 F 
ATOM     29  C   UNL     1       1.085   3.478  20.124  0.00  0.00    +0.000 A 
ATOM     30  C   UNL     1       1.994   3.590  19.068  0.00  0.00    +0.000 A 
ENDBRANCH  20  24
ENDBRANCH   2  16
TORSDOF 2
ENDMDL
MODEL 3
REMARK VINA RESULT:      -8.6      7.880     10.209
REMARK  Name = 
REMARK  2 active torsions:
REMARK  status: ('A' for Active; 'I' for Inactive)
REMARK    1  A    between atoms: C_2  and  C_15
REMARK    2  A    between atoms: C_19  and  C_21
REMARK                            x       y       z     vdW  Elec       q    Type
REMARK                         _______ _______ _______ _____ _____    ______ ____
ROOT
ATOM      1  O   UNL     1       7.694  10.277  17.411  0.00  0.00    +0.000 OA
ATOM      2  C   UNL     1       8.521   9.758  18.146  0.00  0.00    +0.000 C 
ATOM      3  N   UNL     1       8.519   8.455  18.590  0.00  0.00    +0.000 N 
ATOM      4  C   UNL     1       7.701   7.477  18.101  0.00  0.00    +0.000 A 
ATOM      5  N   UNL     1       6.979   7.421  17.013  0.00  0.00    +0.000 NA
ATOM      6  C   UNL     1       6.327   6.189  16.951  0.00  0.00    +0.000 A 
ATOM      7  C   UNL     1       5.469   5.705  15.936  0.00  0.00    +0.000 A 
ATOM      8  F   UNL     1       5.241   6.429  14.830  0.00  0.00    +0.000 F 
ATOM      9  C   UNL     1       4.839   4.466  16.059  0.00  0.00    +0.000 A 
ATOM     10  C   UNL     1       5.060   3.696  17.188  0.00  0.00    +0.000 A 
ATOM     11  F   UNL     1       4.431   2.521  17.316  0.00  0.00    +0.000 F 
ATOM     12  C   UNL     1       5.927   4.106  18.197  0.00  0.00    +0.000 A 
ATOM     13  C   UNL     1       6.559   5.351  18.049  0.00  0.00    +0.000 A 
ATOM     14  S   UNL     1       7.701   6.095  19.096  0.00  0.00    +0.000 S 
ATOM     15  H   UNL     1       9.109   8.179  19.356  0.00  0.00    +0.000 HD
ENDROOT
BRANCH   2  16
ATOM     16  C   UNL     1       9.744  10.525  18.686  0.00  0.00    +0.000 C 
ATOM     17  C   UNL     1       9.708  10.781  20.211  0.00  0.00    +0.000 C 
ATOM     18  C   UNL     1       9.065  12.105  20.637  0.00  0.00    +0.000 C 
ATOM     19  N   UNL     1       9.475  13.211  19.782  0.00  0.00    +0.000 N 
ATOM     20  C   UNL     1      10.313  14.206  20.313  0.00  0.00    +0.000 C 
ATOM     21  O   UNL     1      10.754  14.157  21.461  0.00  0.00    +0.000 OA
ATOM     22  C   UNL     1       9.193  12.972  18.369  0.00  0.00    +0.000 C 
ATOM     23  C   UNL     1      10.020  11.793  17.879  0.00  0.00    +0.000 C 
BRANCH  20  24
ATOM     24  C   UNL     1      10.723  15.375  19.475  0.00  0.00    +0.000 A 
ATOM     25  C   UNL     1       9.968  16.555  19.420  0.00  0.00    +0.000 A 
ATOM     26  C   UNL     1      10.321  17.578  18.539  0.00  0.00    +0.000 A 
ATOM     27  C   UNL     1      11.487  17.468  17.792  0.00  0.00    +0.000 A 
ATOM     28  F   UNL     1      11.826  18.452  16.951  0.00  0.00    +0.000 F 
ATOM     29  C   UNL     1      12.310  16.354  17.917  0.00  0.00    +0.000 A 
ATOM     30  C   UNL     1      11.926  15.303  18.755  0.00  0.00    +0.000 A 
ENDBRANCH  20  24
ENDBRANCH   2  16
TORSDOF 2
ENDMDL
MODEL 4
REMARK VINA RESULT:      -8.3      1.712      2.278
REMARK  Name = 
REMARK  2 active torsions:
REMARK  status: ('A' for Active; 'I' for Inactive)
REMARK    1  A    between atoms: C_2  and  C_15
REMARK    2  A    between atoms: C_19  and  C_21
REMARK                            x       y       z     vdW  Elec       q    Type
REMARK                         _______ _______ _______ _____ _____    ______ ____
ROOT
ATOM      1  O   UNL     1       2.962   8.517  17.877  0.00  0.00    +0.000 OA
ATOM      2  C   UNL     1       2.890   7.555  18.628  0.00  0.00    +0.000 C 
ATOM      3  N   UNL     1       2.239   7.509  19.840  0.00  0.00    +0.000 N 
ATOM      4  C   UNL     1       1.388   8.475  20.293  0.00  0.00    +0.000 A 
ATOM      5  N   UNL     1       0.789   9.456  19.672  0.00  0.00    +0.000 NA
ATOM      6  C   UNL     1      -0.002  10.164  20.578  0.00  0.00    +0.000 A 
ATOM      7  C   UNL     1      -0.832  11.281  20.325  0.00  0.00    +0.000 A 
ATOM      8  F   UNL     1      -0.985  11.751  19.078  0.00  0.00    +0.000 F 
ATOM      9  C   UNL     1      -1.512  11.920  21.362  0.00  0.00    +0.000 A 
ATOM     10  C   UNL     1      -1.376  11.453  22.658  0.00  0.00    +0.000 A 
ATOM     11  F   UNL     1      -2.007  12.086  23.656  0.00  0.00    +0.000 F 
ATOM     12  C   UNL     1      -0.605  10.333  22.957  0.00  0.00    +0.000 A 
ATOM     13  C   UNL     1       0.062   9.698  21.898  0.00  0.00    +0.000 A 
ATOM     14  S   UNL     1       1.041   8.286  21.950  0.00  0.00    +0.000 S 
ATOM     15  H   UNL     1       2.415   6.754  20.482  0.00  0.00    +0.000 HD
ENDROOT
BRANCH   2  16
ATOM     16  C   UNL     1       3.536   6.195  18.294  0.00  0.00    +0.000 C 
ATOM     17  C   UNL     1       4.865   5.926  19.036  0.00  0.00    +0.000 C 
ATOM     18  C   UNL     1       6.131   6.372  18.294  0.00  0.00    +0.000 C 
ATOM     19  N   UNL     1       6.076   6.042  16.876  0.00  0.00    +0.000 N 
ATOM     20  C   UNL     1       6.930   5.043  16.379  0.00  0.00    +0.000 C 
ATOM     21  O   UNL     1       7.692   4.401  17.101  0.00  0.00    +0.000 OA
ATOM     22  C   UNL     1       4.905   6.600  16.207  0.00  0.00    +0.000 C 
ATOM     23  C   UNL     1       3.644   5.975  16.785  0.00  0.00    +0.000 C 
BRANCH  20  24
ATOM     24  C   UNL     1       6.928   4.705  14.921  0.00  0.00    +0.000 A 
ATOM     25  C   UNL     1       6.072   3.737  14.380  0.00  0.00    +0.000 A 
ATOM     26  C   UNL     1       6.180   3.369  13.038  0.00  0.00    +0.000 A 
ATOM     27  C   UNL     1       7.070   4.044  12.212  0.00  0.00    +0.000 A 
ATOM     28  F   UNL     1       7.170   3.692  10.925  0.00  0.00    +0.000 F 
ATOM     29  C   UNL     1       7.848   5.086  12.704  0.00  0.00    +0.000 A 
ATOM     30  C   UNL     1       7.783   5.414  14.062  0.00  0.00    +0.000 A 
ENDBRANCH  20  24
ENDBRANCH   2  16
TORSDOF 2
ENDMDL
MODEL 5
REMARK VINA RESULT:      -8.1      1.401      1.729
REMARK  Name = 
REMARK  2 active torsions:
REMARK  status: ('A' for Active; 'I' for Inactive)
REMARK    1  A    between atoms: C_2  and  C_15
REMARK    2  A    between atoms: C_19  and  C_21
REMARK                            x       y       z     vdW  Elec       q    Type
REMARK                         _______ _______ _______ _____ _____    ______ ____
ROOT
ATOM      1  O   UNL     1       3.259   4.788  19.939  0.00  0.00    +0.000 OA
ATOM      2  C   UNL     1       3.813   5.324  18.990  0.00  0.00    +0.000 C 
ATOM      3  N   UNL     1       3.475   6.528  18.416  0.00  0.00    +0.000 N 
ATOM      4  C   UNL     1       2.593   7.418  18.959  0.00  0.00    +0.000 A 
ATOM      5  N   UNL     1       2.096   7.514  20.164  0.00  0.00    +0.000 NA
ATOM      6  C   UNL     1       1.243   8.616  20.228  0.00  0.00    +0.000 A 
ATOM      7  C   UNL     1       0.519   9.095  21.344  0.00  0.00    +0.000 A 
ATOM      8  F   UNL     1       0.651   8.515  22.546  0.00  0.00    +0.000 F 
ATOM      9  C   UNL     1      -0.350  10.181  21.224  0.00  0.00    +0.000 A 
ATOM     10  C   UNL     1      -0.502  10.801  19.996  0.00  0.00    +0.000 A 
ATOM     11  F   UNL     1      -1.358  11.824  19.877  0.00  0.00    +0.000 F 
ATOM     12  C   UNL     1       0.218  10.396  18.876  0.00  0.00    +0.000 A 
ATOM     13  C   UNL     1       1.094   9.309  19.020  0.00  0.00    +0.000 A 
ATOM     14  S   UNL     1       2.136   8.619  17.840  0.00  0.00    +0.000 S 
ATOM     15  H   UNL     1       3.842   6.782  17.515  0.00  0.00    +0.000 HD
ENDROOT
BRANCH   2  16
ATOM     16  C   UNL     1       5.035   4.698  18.286  0.00  0.00    +0.000 C 
ATOM     17  C   UNL     1       6.179   5.697  17.999  0.00  0.00    +0.000 C 
ATOM     18  C   UNL     1       6.119   6.385  16.631  0.00  0.00    +0.000 C 
ATOM     19  N   UNL     1       5.759   5.455  15.569  0.00  0.00    +0.000 N 
ATOM     20  C   UNL     1       6.729   5.104  14.615  0.00  0.00    +0.000 C 
ATOM     21  O   UNL     1       7.888   5.514  14.667  0.00  0.00    +0.000 OA
ATOM     22  C   UNL     1       4.494   4.770  15.818  0.00  0.00    +0.000 C 
ATOM     23  C   UNL     1       4.627   3.892  17.054  0.00  0.00    +0.000 C 
BRANCH  20  24
ATOM     24  C   UNL     1       6.383   4.182  13.489  0.00  0.00    +0.000 A 
ATOM     25  C   UNL     1       5.056   3.874  13.157  0.00  0.00    +0.000 A 
ATOM     26  C   UNL     1       4.777   2.922  12.176  0.00  0.00    +0.000 A 
ATOM     27  C   UNL     1       5.820   2.356  11.453  0.00  0.00    +0.000 A 
ATOM     28  F   UNL     1       5.550   1.447  10.509  0.00  0.00    +0.000 F 
ATOM     29  C   UNL     1       7.137   2.735  11.689  0.00  0.00    +0.000 A 
ATOM     30  C   UNL     1       7.421   3.644  12.712  0.00  0.00    +0.000 A 
ENDBRANCH  20  24
ENDBRANCH   2  16
TORSDOF 2
ENDMDL
MODEL 6
REMARK VINA RESULT:      -8.1      4.442     10.222
REMARK  Name = 
REMARK  2 active torsions:
REMARK  status: ('A' for Active; 'I' for Inactive)
REMARK    1  A    between atoms: C_2  and  C_15
REMARK    2  A    between atoms: C_19  and  C_21
REMARK                            x       y       z     vdW  Elec       q    Type
REMARK                         _______ _______ _______ _____ _____    ______ ____
ROOT
ATOM      1  O   UNL     1       1.437   8.670  21.220  0.00  0.00    +0.000 OA
ATOM      2  C   UNL     1       1.518   8.826  20.010  0.00  0.00    +0.000 C 
ATOM      3  N   UNL     1       2.067   7.946  19.105  0.00  0.00    +0.000 N 
ATOM      4  C   UNL     1       2.415   6.659  19.399  0.00  0.00    +0.000 A 
ATOM      5  N   UNL     1       2.104   5.891  20.409  0.00  0.00    +0.000 NA
ATOM      6  C   UNL     1       2.700   4.640  20.241  0.00  0.00    +0.000 A 
ATOM      7  C   UNL     1       2.606   3.508  21.085  0.00  0.00    +0.000 A 
ATOM      8  F   UNL     1       1.824   3.530  22.174  0.00  0.00    +0.000 F 
ATOM      9  C   UNL     1       3.323   2.344  20.807  0.00  0.00    +0.000 A 
ATOM     10  C   UNL     1       4.135   2.293  19.686  0.00  0.00    +0.000 A 
ATOM     11  F   UNL     1       4.844   1.184  19.438  0.00  0.00    +0.000 F 
ATOM     12  C   UNL     1       4.231   3.362  18.801  0.00  0.00    +0.000 A 
ATOM     13  C   UNL     1       3.494   4.521  19.094  0.00  0.00    +0.000 A 
ATOM     14  S   UNL     1       3.379   5.969  18.176  0.00  0.00    +0.000 S 
ATOM     15  H   UNL     1       2.285   8.248  18.171  0.00  0.00    +0.000 HD
ENDROOT
BRANCH   2  16
ATOM     16  C   UNL     1       0.975  10.083  19.301  0.00  0.00    +0.000 C 
ATOM     17  C   UNL     1       1.068  11.375  20.144  0.00  0.00    +0.000 C 
ATOM     18  C   UNL     1      -0.166  11.690  20.997  0.00  0.00    +0.000 C 
ATOM     19  N   UNL     1      -1.406  11.451  20.271  0.00  0.00    +0.000 N 
ATOM     20  C   UNL     1      -2.198  12.551  19.899  0.00  0.00    +0.000 C 
ATOM     21  O   UNL     1      -1.863  13.714  20.121  0.00  0.00    +0.000 OA
ATOM     22  C   UNL     1      -1.511  10.088  19.757  0.00  0.00    +0.000 C 
ATOM     23  C   UNL     1      -0.420   9.850  18.724  0.00  0.00    +0.000 C 
BRANCH  20  24
ATOM     24  C   UNL     1      -3.496  12.340  19.186  0.00  0.00    +0.000 A 
ATOM     25  C   UNL     1      -3.560  11.787  17.899  0.00  0.00    +0.000 A 
ATOM     26  C   UNL     1      -4.779  11.714  17.223  0.00  0.00    +0.000 A 
ATOM     27  C   UNL     1      -5.948  12.092  17.872  0.00  0.00    +0.000 A 
ATOM     28  F   UNL     1      -7.115  12.017  17.223  0.00  0.00    +0.000 F 
ATOM     29  C   UNL     1      -5.918  12.536  19.190  0.00  0.00    +0.000 A 
ATOM     30  C   UNL     1      -4.691  12.666  19.847  0.00  0.00    +0.000 A 
ENDBRANCH  20  24
ENDBRANCH   2  16
TORSDOF 2
ENDMDL
MODEL 7
REMARK VINA RESULT:      -7.9      3.906     10.710
REMARK  Name = 
REMARK  2 active torsions:
REMARK  status: ('A' for Active; 'I' for Inactive)
REMARK    1  A    between atoms: C_2  and  C_15
REMARK    2  A    between atoms: C_19  and  C_21
REMARK                            x       y       z     vdW  Elec       q    Type
REMARK                         _______ _______ _______ _____ _____    ______ ____
ROOT
ATOM      1  O   UNL     1       1.707   8.829  18.438  0.00  0.00    +0.000 OA
ATOM      2  C   UNL     1       1.759   8.694  19.651  0.00  0.00    +0.000 C 
ATOM      3  N   UNL     1       1.984   7.523  20.338  0.00  0.00    +0.000 N 
ATOM      4  C   UNL     1       2.400   6.359  19.756  0.00  0.00    +0.000 A 
ATOM      5  N   UNL     1       2.920   6.120  18.581  0.00  0.00    +0.000 NA
ATOM      6  C   UNL     1       3.197   4.757  18.465  0.00  0.00    +0.000 A 
ATOM      7  C   UNL     1       3.782   4.076  17.373  0.00  0.00    +0.000 A 
ATOM      8  F   UNL     1       4.208   4.750  16.294  0.00  0.00    +0.000 F 
ATOM      9  C   UNL     1       3.931   2.688  17.388  0.00  0.00    +0.000 A 
ATOM     10  C   UNL     1       3.504   1.968  18.491  0.00  0.00    +0.000 A 
ATOM     11  F   UNL     1       3.621   0.634  18.491  0.00  0.00    +0.000 F 
ATOM     12  C   UNL     1       2.959   2.593  19.609  0.00  0.00    +0.000 A 
ATOM     13  C   UNL     1       2.828   3.990  19.577  0.00  0.00    +0.000 A 
ATOM     14  S   UNL     1       2.238   5.032  20.811  0.00  0.00    +0.000 S 
ATOM     15  H   UNL     1       1.794   7.467  21.323  0.00  0.00    +0.000 HD
ENDROOT
BRANCH   2  16
ATOM     16  C   UNL     1       1.586   9.880  20.622  0.00  0.00    +0.000 C 
ATOM     17  C   UNL     1       1.093   9.478  22.031  0.00  0.00    +0.000 C 
ATOM     18  C   UNL     1      -0.428   9.488  22.221  0.00  0.00    +0.000 C 
ATOM     19  N   UNL     1      -1.046  10.653  21.602  0.00  0.00    +0.000 N 
ATOM     20  C   UNL     1      -1.597  11.648  22.428  0.00  0.00    +0.000 C 
ATOM     21  O   UNL     1      -1.538  11.598  23.656  0.00  0.00    +0.000 OA
ATOM     22  C   UNL     1      -0.738  10.773  20.180  0.00  0.00    +0.000 C 
ATOM     23  C   UNL     1       0.756  11.003  20.002  0.00  0.00    +0.000 C 
BRANCH  20  24
ATOM     24  C   UNL     1      -2.274  12.839  21.827  0.00  0.00    +0.000 A 
ATOM     25  C   UNL     1      -1.577  14.013  21.509  0.00  0.00    +0.000 A 
ATOM     26  C   UNL     1      -2.263  15.141  21.057  0.00  0.00    +0.000 A 
ATOM     27  C   UNL     1      -3.630  15.064  20.821  0.00  0.00    +0.000 A 
ATOM     28  F   UNL     1      -4.285  16.145  20.384  0.00  0.00    +0.000 F 
ATOM     29  C   UNL     1      -4.320  13.873  21.021  0.00  0.00    +0.000 A 
ATOM     30  C   UNL     1      -3.644  12.760  21.530  0.00  0.00    +0.000 A 
ENDBRANCH  20  24
ENDBRANCH   2  16
TORSDOF 2
ENDMDL
MODEL 8
REMARK VINA RESULT:      -7.9      4.450      6.715
REMARK  Name = 
REMARK  2 active torsions:
REMARK  status: ('A' for Active; 'I' for Inactive)
REMARK    1  A    between atoms: C_2  and  C_15
REMARK    2  A    between atoms: C_19  and  C_21
REMARK                            x       y       z     vdW  Elec       q    Type
REMARK                         _______ _______ _______ _____ _____    ______ ____
ROOT
ATOM      1  O   UNL     1      -0.772   9.653  22.996  0.00  0.00    +0.000 OA
ATOM      2  C   UNL     1      -0.359  10.335  22.070  0.00  0.00    +0.000 C 
ATOM      3  N   UNL     1      -1.009  11.393  21.477  0.00  0.00    +0.000 N 
ATOM      4  C   UNL     1      -2.135  11.982  21.977  0.00  0.00    +0.000 A 
ATOM      5  N   UNL     1      -2.689  11.917  23.159  0.00  0.00    +0.000 NA
ATOM      6  C   UNL     1      -3.829  12.722  23.181  0.00  0.00    +0.000 A 
ATOM      7  C   UNL     1      -4.708  12.959  24.263  0.00  0.00    +0.000 A 
ATOM      8  F   UNL     1      -4.464  12.432  25.472  0.00  0.00    +0.000 F 
ATOM      9  C   UNL     1      -5.851  13.744  24.101  0.00  0.00    +0.000 A 
ATOM     10  C   UNL     1      -6.125  14.304  22.865  0.00  0.00    +0.000 A 
ATOM     11  F   UNL     1      -7.237  15.033  22.705  0.00  0.00    +0.000 F 
ATOM     12  C   UNL     1      -5.271  14.136  21.779  0.00  0.00    +0.000 A 
ATOM     13  C   UNL     1      -4.123  13.352  21.965  0.00  0.00    +0.000 A 
ATOM     14  S   UNL     1      -2.875  13.006  20.835  0.00  0.00    +0.000 S 
ATOM     15  H   UNL     1      -0.694  11.751  20.592  0.00  0.00    +0.000 HD
ENDROOT
BRANCH   2  16
ATOM     16  C   UNL     1       1.022  10.100  21.423  0.00  0.00    +0.000 C 
ATOM     17  C   UNL     1       1.152  10.663  19.989  0.00  0.00    +0.000 C 
ATOM     18  C   UNL     1       0.792   9.685  18.866  0.00  0.00    +0.000 C 
ATOM     19  N   UNL     1       1.325   8.351  19.113  0.00  0.00    +0.000 N 
ATOM     20  C   UNL     1       2.366   7.875  18.300  0.00  0.00    +0.000 C 
ATOM     21  O   UNL     1       2.881   8.557  17.414  0.00  0.00    +0.000 OA
ATOM     22  C   UNL     1       0.893   7.795  20.393  0.00  0.00    +0.000 C 
ATOM     23  C   UNL     1       1.455   8.639  21.528  0.00  0.00    +0.000 C 
BRANCH  20  24
ATOM     24  C   UNL     1       2.911   6.496  18.500  0.00  0.00    +0.000 A 
ATOM     25  C   UNL     1       4.093   6.257  19.215  0.00  0.00    +0.000 A 
ATOM     26  C   UNL     1       4.629   4.970  19.282  0.00  0.00    +0.000 A 
ATOM     27  C   UNL     1       3.930   3.906  18.727  0.00  0.00    +0.000 A 
ATOM     28  F   UNL     1       4.443   2.672  18.796  0.00  0.00    +0.000 F 
ATOM     29  C   UNL     1       2.698   4.107  18.113  0.00  0.00    +0.000 A 
ATOM     30  C   UNL     1       2.190   5.404  17.993  0.00  0.00    +0.000 A 
ENDBRANCH  20  24
ENDBRANCH   2  16
TORSDOF 2
ENDMDL
MODEL 9
REMARK VINA RESULT:      -7.7      4.406      6.278
REMARK  Name = 
REMARK  2 active torsions:
REMARK  status: ('A' for Active; 'I' for Inactive)
REMARK    1  A    between atoms: C_2  and  C_15
REMARK    2  A    between atoms: C_19  and  C_21
REMARK                            x       y       z     vdW  Elec       q    Type
REMARK                         _______ _______ _______ _____ _____    ______ ____
ROOT
ATOM      1  O   UNL     1       2.794  10.807  17.430  0.00  0.00    +0.000 OA
ATOM      2  C   UNL     1       1.907  10.643  18.254  0.00  0.00    +0.000 C 
ATOM      3  N   UNL     1       1.451  11.570  19.164  0.00  0.00    +0.000 N 
ATOM      4  C   UNL     1       1.780  12.894  19.142  0.00  0.00    +0.000 A 
ATOM      5  N   UNL     1       2.317  13.634  18.208  0.00  0.00    +0.000 NA
ATOM      6  C   UNL     1       2.436  14.947  18.668  0.00  0.00    +0.000 A 
ATOM      7  C   UNL     1       2.941  16.071  17.974  0.00  0.00    +0.000 A 
ATOM      8  F   UNL     1       3.322  15.970  16.692  0.00  0.00    +0.000 F 
ATOM      9  C   UNL     1       3.057  17.311  18.604  0.00  0.00    +0.000 A 
ATOM     10  C   UNL     1       2.667  17.444  19.926  0.00  0.00    +0.000 A 
ATOM     11  F   UNL     1       2.805  18.628  20.536  0.00  0.00    +0.000 F 
ATOM     12  C   UNL     1       2.125  16.381  20.641  0.00  0.00    +0.000 A 
ATOM     13  C   UNL     1       2.008  15.145  19.986  0.00  0.00    +0.000 A 
ATOM     14  S   UNL     1       1.345  13.679  20.590  0.00  0.00    +0.000 S 
ATOM     15  H   UNL     1       0.877  11.281  19.938  0.00  0.00    +0.000 HD
ENDROOT
BRANCH   2  16
ATOM     16  C   UNL     1       1.129   9.316  18.378  0.00  0.00    +0.000 C 
ATOM     17  C   UNL     1       0.676   8.981  19.817  0.00  0.00    +0.000 C 
ATOM     18  C   UNL     1       1.660   8.134  20.632  0.00  0.00    +0.000 C 
ATOM     19  N   UNL     1       2.235   7.054  19.842  0.00  0.00    +0.000 N 
ATOM     20  C   UNL     1       1.871   5.729  20.137  0.00  0.00    +0.000 C 
ATOM     21  O   UNL     1       1.050   5.445  21.008  0.00  0.00    +0.000 OA
ATOM     22  C   UNL     1       2.897   7.527  18.630  0.00  0.00    +0.000 C 
ATOM     23  C   UNL     1       1.869   8.161  17.705  0.00  0.00    +0.000 C 
BRANCH  20  24
ATOM     24  C   UNL     1       2.471   4.593  19.371  0.00  0.00    +0.000 A 
ATOM     25  C   UNL     1       3.572   3.868  19.850  0.00  0.00    +0.000 A 
ATOM     26  C   UNL     1       4.174   2.892  19.055  0.00  0.00    +0.000 A 
ATOM     27  C   UNL     1       3.612   2.565  17.826  0.00  0.00    +0.000 A 
ATOM     28  F   UNL     1       4.188   1.626  17.067  0.00  0.00    +0.000 F 
ATOM     29  C   UNL     1       2.453   3.194  17.384  0.00  0.00    +0.000 A 
ATOM     30  C   UNL     1       1.884   4.213  18.153  0.00  0.00    +0.000 A 
ENDBRANCH  20  24
ENDBRANCH   2  16
TORSDOF 2
ENDMDL
