MODEL 1
REMARK VINA RESULT:      -8.8      0.000      0.000
REMARK  Name = 
REMARK  12 active torsions:
REMARK  status: ('A' for Active; 'I' for Inactive)
REMARK    1  A    between atoms: C_2  and  C_3
REMARK    2  A    between atoms: C_3  and  N_4
REMARK    3  A    between atoms: N_4  and  C_5
REMARK    4  A    between atoms: N_4  and  S_18
REMARK    5  A    between atoms: C_5  and  C_6
REMARK    6  A    between atoms: C_14  and  C_15
REMARK    7  A    between atoms: C_14  and  C_16
REMARK    8  A    between atoms: S_18  and  C_21
REMARK    9  A    between atoms: C_24  and  O_25
REMARK   10  A    between atoms: O_25  and  C_26
REMARK   11  A    between atoms: C_27  and  O_28
REMARK   12  A    between atoms: O_28  and  C_29
REMARK                            x       y       z     vdW  Elec       q    Type
REMARK                         _______ _______ _______ _____ _____    ______ ____
ROOT
ATOM      1  N   UNL     1       2.975   4.662  18.568  0.00  0.00    +0.000 NA
ENDROOT
BRANCH   1   2
ATOM      2  S   UNL     1       4.254   3.509  18.484  0.00  0.00    +0.000 S 
ATOM      3  O   UNL     1       5.076   3.518  19.671  0.00  0.00    +0.000 OA
ATOM      4  O   UNL     1       3.665   2.273  17.997  0.00  0.00    +0.000 OA
BRANCH   2   5
ATOM      5  C   UNL     1       5.279   4.181  17.208  0.00  0.00    +0.000 A 
ATOM      6  C   UNL     1       5.217   3.644  15.925  0.00  0.00    +0.000 A 
ATOM      7  C   UNL     1       6.067   4.155  14.947  0.00  0.00    +0.000 A 
ATOM      8  C   UNL     1       6.971   5.195  15.242  0.00  0.00    +0.000 A 
ATOM      9  C   UNL     1       7.003   5.747  16.538  0.00  0.00    +0.000 A 
ATOM     10  C   UNL     1       6.140   5.237  17.512  0.00  0.00    +0.000 A 
BRANCH   8  11
ATOM     11  O   UNL     1       7.729   5.533  14.150  0.00  0.00    +0.000 OA
ATOM     12  C   UNL     1       7.519   4.836  12.931  0.00  0.00    +0.000 C 
ENDBRANCH   8  11
BRANCH   9  13
ATOM     13  O   UNL     1       7.891   6.753  16.804  0.00  0.00    +0.000 OA
ATOM     14  C   UNL     1       7.416   7.918  17.468  0.00  0.00    +0.000 C 
ENDBRANCH   9  13
ENDBRANCH   2   5
ENDBRANCH   1   2
BRANCH   1  15
ATOM     15  C   UNL     1       1.662   3.964  18.900  0.00  0.00    +0.000 C 
BRANCH  15  17
ATOM     16  C   UNL     1       1.585   3.124  21.595  0.00  0.00    +0.000 C 
ATOM     17  C   UNL     1       1.620   3.512  20.350  0.00  0.00    +0.000 C 
ENDBRANCH  15  17
ENDBRANCH   1  15
BRANCH   1  18
ATOM     18  C   UNL     1       3.286   5.831  19.479  0.00  0.00    +0.000 C 
BRANCH  18  19
ATOM     19  C   UNL     1       2.374   7.046  19.318  0.00  0.00    +0.000 A 
ATOM     20  C   UNL     1       2.308   7.743  18.101  0.00  0.00    +0.000 A 
ATOM     21  C   UNL     1       1.675   8.992  18.031  0.00  0.00    +0.000 A 
ATOM     22  C   UNL     1       1.115   9.564  19.174  0.00  0.00    +0.000 A 
ATOM     23  C   UNL     1       1.070   8.841  20.367  0.00  0.00    +0.000 A 
ATOM     24  C   UNL     1       1.685   7.576  20.430  0.00  0.00    +0.000 A 
ATOM     25  C   UNL     1       0.440   9.442  21.539  0.00  0.00    +0.000 C 
ATOM     26  C   UNL     1       0.147  10.750  21.489  0.00  0.00    +0.000 C 
ATOM     27  C   UNL     1       0.436  11.600  20.271  0.00  0.00    +0.000 C 
ATOM     28  C   UNL     1       1.676  12.470  20.537  0.00  0.00    +0.000 C 
ATOM     29  C   UNL     1      -0.752  12.528  19.982  0.00  0.00    +0.000 C 
ATOM     30  O   UNL     1       0.640  10.844  19.053  0.00  0.00    +0.000 OA
ENDBRANCH  18  19
ENDBRANCH   1  18
TORSDOF 8
ENDMDL
MODEL 2
REMARK VINA RESULT:      -8.4      0.740      1.990
REMARK  Name = 
REMARK  12 active torsions:
REMARK  status: ('A' for Active; 'I' for Inactive)
REMARK    1  A    between atoms: C_2  and  C_3
REMARK    2  A    between atoms: C_3  and  N_4
REMARK    3  A    between atoms: N_4  and  C_5
REMARK    4  A    between atoms: N_4  and  S_18
REMARK    5  A    between atoms: C_5  and  C_6
REMARK    6  A    between atoms: C_14  and  C_15
REMARK    7  A    between atoms: C_14  and  C_16
REMARK    8  A    between atoms: S_18  and  C_21
REMARK    9  A    between atoms: C_24  and  O_25
REMARK   10  A    between atoms: O_25  and  C_26
REMARK   11  A    between atoms: C_27  and  O_28
REMARK   12  A    between atoms: O_28  and  C_29
REMARK                            x       y       z     vdW  Elec       q    Type
REMARK                         _______ _______ _______ _____ _____    ______ ____
ROOT
ATOM      1  N   UNL     1       2.775   4.291  18.919  0.00  0.00    +0.000 NA
ENDROOT
BRANCH   1   2
ATOM      2  S   UNL     1       4.187   3.319  18.729  0.00  0.00    +0.000 S 
ATOM      3  O   UNL     1       4.724   2.883  19.997  0.00  0.00    +0.000 OA
ATOM      4  O   UNL     1       3.891   2.361  17.678  0.00  0.00    +0.000 OA
BRANCH   2   5
ATOM      5  C   UNL     1       5.362   4.486  18.107  0.00  0.00    +0.000 A 
ATOM      6  C   UNL     1       6.104   5.255  19.001  0.00  0.00    +0.000 A 
ATOM      7  C   UNL     1       6.988   6.202  18.490  0.00  0.00    +0.000 A 
ATOM      8  C   UNL     1       7.137   6.382  17.100  0.00  0.00    +0.000 A 
ATOM      9  C   UNL     1       6.400   5.578  16.208  0.00  0.00    +0.000 A 
ATOM     10  C   UNL     1       5.522   4.622  16.727  0.00  0.00    +0.000 A 
BRANCH   8  11
ATOM     11  O   UNL     1       8.036   7.377  16.811  0.00  0.00    +0.000 OA
ATOM     12  C   UNL     1       8.053   8.539  17.627  0.00  0.00    +0.000 C 
ENDBRANCH   8  11
BRANCH   9  13
ATOM     13  O   UNL     1       6.555   5.773  14.864  0.00  0.00    +0.000 OA
ATOM     14  C   UNL     1       6.681   4.631  14.024  0.00  0.00    +0.000 C 
ENDBRANCH   9  13
ENDBRANCH   2   5
ENDBRANCH   1   2
BRANCH   1  15
ATOM     15  C   UNL     1       1.567   3.409  19.208  0.00  0.00    +0.000 C 
BRANCH  15  17
ATOM     16  C   UNL     1       1.455   2.659  21.927  0.00  0.00    +0.000 C 
ATOM     17  C   UNL     1       1.507   3.005  20.671  0.00  0.00    +0.000 C 
ENDBRANCH  15  17
ENDBRANCH   1  15
BRANCH   1  18
ATOM     18  C   UNL     1       2.956   5.415  19.917  0.00  0.00    +0.000 C 
BRANCH  18  19
ATOM     19  C   UNL     1       2.206   6.705  19.592  0.00  0.00    +0.000 A 
ATOM     20  C   UNL     1       2.373   7.346  18.354  0.00  0.00    +0.000 A 
ATOM     21  C   UNL     1       1.889   8.647  18.157  0.00  0.00    +0.000 A 
ATOM     22  C   UNL     1       1.245   9.325  19.193  0.00  0.00    +0.000 A 
ATOM     23  C   UNL     1       0.969   8.668  20.393  0.00  0.00    +0.000 A 
ATOM     24  C   UNL     1       1.434   7.353  20.581  0.00  0.00    +0.000 A 
ATOM     25  C   UNL     1       0.256   9.383  21.447  0.00  0.00    +0.000 C 
ATOM     26  C   UNL     1       0.109  10.710  21.313  0.00  0.00    +0.000 C 
ATOM     27  C   UNL     1       0.644  11.468  20.118  0.00  0.00    +0.000 C 
ATOM     28  C   UNL     1       1.922  12.224  20.520  0.00  0.00    +0.000 C 
ATOM     29  C   UNL     1      -0.392  12.494  19.638  0.00  0.00    +0.000 C 
ATOM     30  O   UNL     1       0.927  10.638  18.965  0.00  0.00    +0.000 OA
ENDBRANCH  18  19
ENDBRANCH   1  18
TORSDOF 8
ENDMDL
MODEL 3
REMARK VINA RESULT:      -8.3      1.622      2.454
REMARK  Name = 
REMARK  12 active torsions:
REMARK  status: ('A' for Active; 'I' for Inactive)
REMARK    1  A    between atoms: C_2  and  C_3
REMARK    2  A    between atoms: C_3  and  N_4
REMARK    3  A    between atoms: N_4  and  C_5
REMARK    4  A    between atoms: N_4  and  S_18
REMARK    5  A    between atoms: C_5  and  C_6
REMARK    6  A    between atoms: C_14  and  C_15
REMARK    7  A    between atoms: C_14  and  C_16
REMARK    8  A    between atoms: S_18  and  C_21
REMARK    9  A    between atoms: C_24  and  O_25
REMARK   10  A    between atoms: O_25  and  C_26
REMARK   11  A    between atoms: C_27  and  O_28
REMARK   12  A    between atoms: O_28  and  C_29
REMARK                            x       y       z     vdW  Elec       q    Type
REMARK                         _______ _______ _______ _____ _____    ______ ____
ROOT
ATOM      1  N   UNL     1       2.036   4.352  18.818  0.00  0.00    +0.000 NA
ENDROOT
BRANCH   1   2
ATOM      2  S   UNL     1       3.093   3.389  17.856  0.00  0.00    +0.000 S 
ATOM      3  O   UNL     1       3.632   2.269  18.592  0.00  0.00    +0.000 OA
ATOM      4  O   UNL     1       2.425   3.189  16.581  0.00  0.00    +0.000 OA
BRANCH   2   5
ATOM      5  C   UNL     1       4.465   4.478  17.604  0.00  0.00    +0.000 A 
ATOM      6  C   UNL     1       4.346   5.532  16.701  0.00  0.00    +0.000 A 
ATOM      7  C   UNL     1       5.453   6.348  16.482  0.00  0.00    +0.000 A 
ATOM      8  C   UNL     1       6.669   6.121  17.157  0.00  0.00    +0.000 A 
ATOM      9  C   UNL     1       6.765   5.067  18.088  0.00  0.00    +0.000 A 
ATOM     10  C   UNL     1       5.648   4.258  18.312  0.00  0.00    +0.000 A 
BRANCH   8  11
ATOM     11  O   UNL     1       7.635   7.019  16.780  0.00  0.00    +0.000 OA
ATOM     12  C   UNL     1       7.779   8.218  17.526  0.00  0.00    +0.000 C 
ENDBRANCH   8  11
BRANCH   9  13
ATOM     13  O   UNL     1       7.956   4.861  18.728  0.00  0.00    +0.000 OA
ATOM     14  C   UNL     1       8.184   5.525  19.965  0.00  0.00    +0.000 C 
ENDBRANCH   9  13
ENDBRANCH   2   5
ENDBRANCH   1   2
BRANCH   1  15
ATOM     15  C   UNL     1       0.903   3.496  19.370  0.00  0.00    +0.000 C 
BRANCH  15  17
ATOM     16  C   UNL     1       1.520   2.485  21.933  0.00  0.00    +0.000 C 
ATOM     17  C   UNL     1       1.235   2.951  20.749  0.00  0.00    +0.000 C 
ENDBRANCH  15  17
ENDBRANCH   1  15
BRANCH   1  18
ATOM     18  C   UNL     1       2.760   5.154  19.879  0.00  0.00    +0.000 C 
BRANCH  18  19
ATOM     19  C   UNL     1       2.276   6.591  20.057  0.00  0.00    +0.000 A 
ATOM     20  C   UNL     1       1.546   6.973  21.193  0.00  0.00    +0.000 A 
ATOM     21  C   UNL     1       0.890   8.211  21.234  0.00  0.00    +0.000 A 
ATOM     22  C   UNL     1       0.947   9.076  20.140  0.00  0.00    +0.000 A 
ATOM     23  C   UNL     1       1.757   8.768  19.047  0.00  0.00    +0.000 A 
ATOM     24  C   UNL     1       2.435   7.534  19.017  0.00  0.00    +0.000 A 
ATOM     25  C   UNL     1       1.835   9.707  17.932  0.00  0.00    +0.000 C 
ATOM     26  C   UNL     1       0.943  10.709  17.896  0.00  0.00    +0.000 C 
ATOM     27  C   UNL     1      -0.114  10.892  18.963  0.00  0.00    +0.000 C 
ATOM     28  C   UNL     1      -1.475  10.420  18.422  0.00  0.00    +0.000 C 
ATOM     29  C   UNL     1      -0.233  12.376  19.338  0.00  0.00    +0.000 C 
ATOM     30  O   UNL     1       0.168  10.202  20.204  0.00  0.00    +0.000 OA
ENDBRANCH  18  19
ENDBRANCH   1  18
TORSDOF 8
ENDMDL
MODEL 4
REMARK VINA RESULT:      -7.9      1.021      1.743
REMARK  Name = 
REMARK  12 active torsions:
REMARK  status: ('A' for Active; 'I' for Inactive)
REMARK    1  A    between atoms: C_2  and  C_3
REMARK    2  A    between atoms: C_3  and  N_4
REMARK    3  A    between atoms: N_4  and  C_5
REMARK    4  A    between atoms: N_4  and  S_18
REMARK    5  A    between atoms: C_5  and  C_6
REMARK    6  A    between atoms: C_14  and  C_15
REMARK    7  A    between atoms: C_14  and  C_16
REMARK    8  A    between atoms: S_18  and  C_21
REMARK    9  A    between atoms: C_24  and  O_25
REMARK   10  A    between atoms: O_25  and  C_26
REMARK   11  A    between atoms: C_27  and  O_28
REMARK   12  A    between atoms: O_28  and  C_29
REMARK                            x       y       z     vdW  Elec       q    Type
REMARK                         _______ _______ _______ _____ _____    ______ ____
ROOT
ATOM      1  N   UNL     1       2.749   4.599  18.608  0.00  0.00    +0.000 NA
ENDROOT
BRANCH   1   2
ATOM      2  S   UNL     1       3.780   3.271  18.226  0.00  0.00    +0.000 S 
ATOM      3  O   UNL     1       4.553   2.835  19.365  0.00  0.00    +0.000 OA
ATOM      4  O   UNL     1       2.976   2.328  17.468  0.00  0.00    +0.000 OA
BRANCH   2   5
ATOM      5  C   UNL     1       4.954   4.013  17.130  0.00  0.00    +0.000 A 
ATOM      6  C   UNL     1       4.904   3.716  15.770  0.00  0.00    +0.000 A 
ATOM      7  C   UNL     1       5.868   4.272  14.932  0.00  0.00    +0.000 A 
ATOM      8  C   UNL     1       6.871   5.120  15.440  0.00  0.00    +0.000 A 
ATOM      9  C   UNL     1       6.892   5.433  16.814  0.00  0.00    +0.000 A 
ATOM     10  C   UNL     1       5.916   4.880  17.649  0.00  0.00    +0.000 A 
BRANCH   8  11
ATOM     11  O   UNL     1       7.730   5.538  14.456  0.00  0.00    +0.000 OA
ATOM     12  C   UNL     1       7.590   4.993  13.152  0.00  0.00    +0.000 C 
ENDBRANCH   8  11
BRANCH   9  13
ATOM     13  O   UNL     1       7.877   6.254  17.288  0.00  0.00    +0.000 OA
ATOM     14  C   UNL     1       7.557   7.615  17.553  0.00  0.00    +0.000 C 
ENDBRANCH   9  13
ENDBRANCH   2   5
ENDBRANCH   1   2
BRANCH   1  15
ATOM     15  C   UNL     1       1.346   4.098  18.926  0.00  0.00    +0.000 C 
BRANCH  15  17
ATOM     16  C   UNL     1       1.242   2.826  21.444  0.00  0.00    +0.000 C 
ATOM     17  C   UNL     1       1.290   3.414  20.281  0.00  0.00    +0.000 C 
ENDBRANCH  15  17
ENDBRANCH   1  15
BRANCH   1  18
ATOM     18  C   UNL     1       3.322   5.510  19.673  0.00  0.00    +0.000 C 
BRANCH  18  19
ATOM     19  C   UNL     1       2.561   6.816  19.895  0.00  0.00    +0.000 A 
ATOM     20  C   UNL     1       1.763   7.002  21.035  0.00  0.00    +0.000 A 
ATOM     21  C   UNL     1       0.875   8.084  21.111  0.00  0.00    +0.000 A 
ATOM     22  C   UNL     1       0.765   8.983  20.049  0.00  0.00    +0.000 A 
ATOM     23  C   UNL     1       1.626   8.882  18.956  0.00  0.00    +0.000 A 
ATOM     24  C   UNL     1       2.535   7.809  18.891  0.00  0.00    +0.000 A 
ATOM     25  C   UNL     1       1.523   9.859  17.876  0.00  0.00    +0.000 C 
ATOM     26  C   UNL     1       0.450  10.664  17.863  0.00  0.00    +0.000 C 
ATOM     27  C   UNL     1      -0.629  10.595  18.922  0.00  0.00    +0.000 C 
ATOM     28  C   UNL     1      -1.866   9.883  18.348  0.00  0.00    +0.000 C 
ATOM     29  C   UNL     1      -1.042  12.011  19.348  0.00  0.00    +0.000 C 
ATOM     30  O   UNL     1      -0.223   9.929  20.142  0.00  0.00    +0.000 OA
ENDBRANCH  18  19
ENDBRANCH   1  18
TORSDOF 8
ENDMDL
MODEL 5
REMARK VINA RESULT:      -7.9      0.821      1.841
REMARK  Name = 
REMARK  12 active torsions:
REMARK  status: ('A' for Active; 'I' for Inactive)
REMARK    1  A    between atoms: C_2  and  C_3
REMARK    2  A    between atoms: C_3  and  N_4
REMARK    3  A    between atoms: N_4  and  C_5
REMARK    4  A    between atoms: N_4  and  S_18
REMARK    5  A    between atoms: C_5  and  C_6
REMARK    6  A    between atoms: C_14  and  C_15
REMARK    7  A    between atoms: C_14  and  C_16
REMARK    8  A    between atoms: S_18  and  C_21
REMARK    9  A    between atoms: C_24  and  O_25
REMARK   10  A    between atoms: O_25  and  C_26
REMARK   11  A    between atoms: C_27  and  O_28
REMARK   12  A    between atoms: O_28  and  C_29
REMARK                            x       y       z     vdW  Elec       q    Type
REMARK                         _______ _______ _______ _____ _____    ______ ____
ROOT
ATOM      1  N   UNL     1       3.150   4.868  18.146  0.00  0.00    +0.000 NA
ENDROOT
BRANCH   1   2
ATOM      2  S   UNL     1       4.347   3.627  18.175  0.00  0.00    +0.000 S 
ATOM      3  O   UNL     1       5.114   3.637  19.398  0.00  0.00    +0.000 OA
ATOM      4  O   UNL     1       3.695   2.413  17.716  0.00  0.00    +0.000 OA
BRANCH   2   5
ATOM      5  C   UNL     1       5.473   4.165  16.921  0.00  0.00    +0.000 A 
ATOM      6  C   UNL     1       6.376   5.188  17.203  0.00  0.00    +0.000 A 
ATOM      7  C   UNL     1       7.220   5.629  16.187  0.00  0.00    +0.000 A 
ATOM      8  C   UNL     1       7.170   5.057  14.900  0.00  0.00    +0.000 A 
ATOM      9  C   UNL     1       6.270   4.005  14.638  0.00  0.00    +0.000 A 
ATOM     10  C   UNL     1       5.433   3.559  15.664  0.00  0.00    +0.000 A 
BRANCH   8  11
ATOM     11  O   UNL     1       8.063   5.651  14.045  0.00  0.00    +0.000 OA
ATOM     12  C   UNL     1       7.956   5.385  12.655  0.00  0.00    +0.000 C 
ENDBRANCH   8  11
BRANCH   9  13
ATOM     13  O   UNL     1       6.234   3.467  13.381  0.00  0.00    +0.000 OA
ATOM     14  C   UNL     1       5.018   3.541  12.647  0.00  0.00    +0.000 C 
ENDBRANCH   9  13
ENDBRANCH   2   5
ENDBRANCH   1   2
BRANCH   1  15
ATOM     15  C   UNL     1       1.758   4.255  18.223  0.00  0.00    +0.000 C 
BRANCH  15  17
ATOM     16  C   UNL     1       1.141   3.407  20.844  0.00  0.00    +0.000 C 
ATOM     17  C   UNL     1       1.426   3.798  19.634  0.00  0.00    +0.000 C 
ENDBRANCH  15  17
ENDBRANCH   1  15
BRANCH   1  18
ATOM     18  C   UNL     1       3.392   5.953  19.175  0.00  0.00    +0.000 C 
BRANCH  18  19
ATOM     19  C   UNL     1       2.444   7.147  19.100  0.00  0.00    +0.000 A 
ATOM     20  C   UNL     1       2.302   7.884  17.914  0.00  0.00    +0.000 A 
ATOM     21  C   UNL     1       1.635   9.118  17.919  0.00  0.00    +0.000 A 
ATOM     22  C   UNL     1       1.116   9.634  19.107  0.00  0.00    +0.000 A 
ATOM     23  C   UNL     1       1.147   8.870  20.274  0.00  0.00    +0.000 A 
ATOM     24  C   UNL     1       1.794   7.620  20.262  0.00  0.00    +0.000 A 
ATOM     25  C   UNL     1       0.558   9.412  21.495  0.00  0.00    +0.000 C 
ATOM     26  C   UNL     1       0.230  10.713  21.506  0.00  0.00    +0.000 C 
ATOM     27  C   UNL     1       0.440  11.612  20.307  0.00  0.00    +0.000 C 
ATOM     28  C   UNL     1       1.668  12.505  20.546  0.00  0.00    +0.000 C 
ATOM     29  C   UNL     1      -0.783  12.518  20.107  0.00  0.00    +0.000 C 
ATOM     30  O   UNL     1       0.604  10.904  19.054  0.00  0.00    +0.000 OA
ENDBRANCH  18  19
ENDBRANCH   1  18
TORSDOF 8
ENDMDL
MODEL 6
REMARK VINA RESULT:      -7.8      1.215      2.614
REMARK  Name = 
REMARK  12 active torsions:
REMARK  status: ('A' for Active; 'I' for Inactive)
REMARK    1  A    between atoms: C_2  and  C_3
REMARK    2  A    between atoms: C_3  and  N_4
REMARK    3  A    between atoms: N_4  and  C_5
REMARK    4  A    between atoms: N_4  and  S_18
REMARK    5  A    between atoms: C_5  and  C_6
REMARK    6  A    between atoms: C_14  and  C_15
REMARK    7  A    between atoms: C_14  and  C_16
REMARK    8  A    between atoms: S_18  and  C_21
REMARK    9  A    between atoms: C_24  and  O_25
REMARK   10  A    between atoms: O_25  and  C_26
REMARK   11  A    between atoms: C_27  and  O_28
REMARK   12  A    between atoms: O_28  and  C_29
REMARK                            x       y       z     vdW  Elec       q    Type
REMARK                         _______ _______ _______ _____ _____    ______ ____
ROOT
ATOM      1  N   UNL     1       2.191   4.141  18.755  0.00  0.00    +0.000 NA
ENDROOT
BRANCH   1   2
ATOM      2  S   UNL     1       3.249   3.068  17.917  0.00  0.00    +0.000 S 
ATOM      3  O   UNL     1       3.720   1.995  18.761  0.00  0.00    +0.000 OA
ATOM      4  O   UNL     1       2.624   2.787  16.636  0.00  0.00    +0.000 OA
BRANCH   2   5
ATOM      5  C   UNL     1       4.668   4.088  17.634  0.00  0.00    +0.000 A 
ATOM      6  C   UNL     1       5.404   4.554  18.721  0.00  0.00    +0.000 A 
ATOM      7  C   UNL     1       6.488   5.395  18.478  0.00  0.00    +0.000 A 
ATOM      8  C   UNL     1       6.839   5.768  17.166  0.00  0.00    +0.000 A 
ATOM      9  C   UNL     1       6.102   5.266  16.075  0.00  0.00    +0.000 A 
ATOM     10  C   UNL     1       5.022   4.414  16.324  0.00  0.00    +0.000 A 
BRANCH   8  11
ATOM     11  O   UNL     1       7.916   6.617  17.151  0.00  0.00    +0.000 OA
ATOM     12  C   UNL     1       7.722   7.972  17.527  0.00  0.00    +0.000 C 
ENDBRANCH   8  11
BRANCH   9  13
ATOM     13  O   UNL     1       6.456   5.644  14.810  0.00  0.00    +0.000 OA
ATOM     14  C   UNL     1       6.636   4.633  13.826  0.00  0.00    +0.000 C 
ENDBRANCH   9  13
ENDBRANCH   2   5
ENDBRANCH   1   2
BRANCH   1  15
ATOM     15  C   UNL     1       0.973   3.382  19.265  0.00  0.00    +0.000 C 
BRANCH  15  17
ATOM     16  C   UNL     1       1.334   2.504  21.923  0.00  0.00    +0.000 C 
ATOM     17  C   UNL     1       1.167   2.909  20.695  0.00  0.00    +0.000 C 
ENDBRANCH  15  17
ENDBRANCH   1  15
BRANCH   1  18
ATOM     18  C   UNL     1       2.891   4.952  19.825  0.00  0.00    +0.000 C 
BRANCH  18  19
ATOM     19  C   UNL     1       2.395   6.387  19.987  0.00  0.00    +0.000 A 
ATOM     20  C   UNL     1       1.644   6.769  21.110  0.00  0.00    +0.000 A 
ATOM     21  C   UNL     1       0.981   8.004  21.133  0.00  0.00    +0.000 A 
ATOM     22  C   UNL     1       1.049   8.863  20.035  0.00  0.00    +0.000 A 
ATOM     23  C   UNL     1       1.879   8.554  18.957  0.00  0.00    +0.000 A 
ATOM     24  C   UNL     1       2.565   7.325  18.945  0.00  0.00    +0.000 A 
ATOM     25  C   UNL     1       1.969   9.488  17.838  0.00  0.00    +0.000 C 
ATOM     26  C   UNL     1       1.071  10.483  17.782  0.00  0.00    +0.000 C 
ATOM     27  C   UNL     1      -0.004  10.666  18.831  0.00  0.00    +0.000 C 
ATOM     28  C   UNL     1      -1.353  10.183  18.271  0.00  0.00    +0.000 C 
ATOM     29  C   UNL     1      -0.138  12.151  19.196  0.00  0.00    +0.000 C 
ATOM     30  O   UNL     1       0.262   9.984  20.080  0.00  0.00    +0.000 OA
ENDBRANCH  18  19
ENDBRANCH   1  18
TORSDOF 8
ENDMDL
MODEL 7
REMARK VINA RESULT:      -7.8      1.165      1.301
REMARK  Name = 
REMARK  12 active torsions:
REMARK  status: ('A' for Active; 'I' for Inactive)
REMARK    1  A    between atoms: C_2  and  C_3
REMARK    2  A    between atoms: C_3  and  N_4
REMARK    3  A    between atoms: N_4  and  C_5
REMARK    4  A    between atoms: N_4  and  S_18
REMARK    5  A    between atoms: C_5  and  C_6
REMARK    6  A    between atoms: C_14  and  C_15
REMARK    7  A    between atoms: C_14  and  C_16
REMARK    8  A    between atoms: S_18  and  C_21
REMARK    9  A    between atoms: C_24  and  O_25
REMARK   10  A    between atoms: O_25  and  C_26
REMARK   11  A    between atoms: C_27  and  O_28
REMARK   12  A    between atoms: O_28  and  C_29
REMARK                            x       y       z     vdW  Elec       q    Type
REMARK                         _______ _______ _______ _____ _____    ______ ____
ROOT
ATOM      1  N   UNL     1       2.839   4.345  19.470  0.00  0.00    +0.000 NA
ENDROOT
BRANCH   1   2
ATOM      2  S   UNL     1       2.900   3.424  18.013  0.00  0.00    +0.000 S 
ATOM      3  O   UNL     1       3.185   2.030  18.260  0.00  0.00    +0.000 OA
ATOM      4  O   UNL     1       1.744   3.819  17.225  0.00  0.00    +0.000 OA
BRANCH   2   5
ATOM      5  C   UNL     1       4.354   4.060  17.230  0.00  0.00    +0.000 A 
ATOM      6  C   UNL     1       4.312   4.401  15.880  0.00  0.00    +0.000 A 
ATOM      7  C   UNL     1       5.480   4.854  15.272  0.00  0.00    +0.000 A 
ATOM      8  C   UNL     1       6.681   4.970  15.999  0.00  0.00    +0.000 A 
ATOM      9  C   UNL     1       6.701   4.647  17.371  0.00  0.00    +0.000 A 
ATOM     10  C   UNL     1       5.523   4.203  17.979  0.00  0.00    +0.000 A 
BRANCH   8  11
ATOM     11  O   UNL     1       7.713   5.408  15.210  0.00  0.00    +0.000 OA
ATOM     12  C   UNL     1       7.639   5.191  13.808  0.00  0.00    +0.000 C 
ENDBRANCH   8  11
BRANCH   9  13
ATOM     13  O   UNL     1       7.878   4.761  18.057  0.00  0.00    +0.000 OA
ATOM     14  C   UNL     1       7.937   5.665  19.155  0.00  0.00    +0.000 C 
ENDBRANCH   9  13
ENDBRANCH   2   5
ENDBRANCH   1   2
BRANCH   1  15
ATOM     15  C   UNL     1       3.367   3.518  20.635  0.00  0.00    +0.000 C 
BRANCH  15  17
ATOM     16  C   UNL     1       1.263   2.426  22.169  0.00  0.00    +0.000 C 
ATOM     17  C   UNL     1       2.235   2.930  21.461  0.00  0.00    +0.000 C 
ENDBRANCH  15  17
ENDBRANCH   1  15
BRANCH   1  18
ATOM     18  C   UNL     1       3.498   5.703  19.344  0.00  0.00    +0.000 C 
BRANCH  18  19
ATOM     19  C   UNL     1       2.541   6.881  19.177  0.00  0.00    +0.000 A 
ATOM     20  C   UNL     1       2.445   7.568  17.956  0.00  0.00    +0.000 A 
ATOM     21  C   UNL     1       1.766   8.792  17.881  0.00  0.00    +0.000 A 
ATOM     22  C   UNL     1       1.186   9.349  19.022  0.00  0.00    +0.000 A 
ATOM     23  C   UNL     1       1.172   8.632  20.219  0.00  0.00    +0.000 A 
ATOM     24  C   UNL     1       1.834   7.391  20.288  0.00  0.00    +0.000 A 
ATOM     25  C   UNL     1       0.522   9.215  21.389  0.00  0.00    +0.000 C 
ATOM     26  C   UNL     1       0.179  10.511  21.332  0.00  0.00    +0.000 C 
ATOM     27  C   UNL     1       0.434  11.364  20.108  0.00  0.00    +0.000 C 
ATOM     28  C   UNL     1       1.640  12.282  20.367  0.00  0.00    +0.000 C 
ATOM     29  C   UNL     1      -0.789  12.245  19.816  0.00  0.00    +0.000 C 
ATOM     30  O   UNL     1       0.664  10.609  18.894  0.00  0.00    +0.000 OA
ENDBRANCH  18  19
ENDBRANCH   1  18
TORSDOF 8
ENDMDL
MODEL 8
REMARK VINA RESULT:      -7.7      1.515      1.961
REMARK  Name = 
REMARK  12 active torsions:
REMARK  status: ('A' for Active; 'I' for Inactive)
REMARK    1  A    between atoms: C_2  and  C_3
REMARK    2  A    between atoms: C_3  and  N_4
REMARK    3  A    between atoms: N_4  and  C_5
REMARK    4  A    between atoms: N_4  and  S_18
REMARK    5  A    between atoms: C_5  and  C_6
REMARK    6  A    between atoms: C_14  and  C_15
REMARK    7  A    between atoms: C_14  and  C_16
REMARK    8  A    between atoms: S_18  and  C_21
REMARK    9  A    between atoms: C_24  and  O_25
REMARK   10  A    between atoms: O_25  and  C_26
REMARK   11  A    between atoms: C_27  and  O_28
REMARK   12  A    between atoms: O_28  and  C_29
REMARK                            x       y       z     vdW  Elec       q    Type
REMARK                         _______ _______ _______ _____ _____    ______ ____
ROOT
ATOM      1  N   UNL     1       2.410   4.741  18.734  0.00  0.00    +0.000 NA
ENDROOT
BRANCH   1   2
ATOM      2  S   UNL     1       3.808   3.793  18.384  0.00  0.00    +0.000 S 
ATOM      3  O   UNL     1       4.307   3.104  19.550  0.00  0.00    +0.000 OA
ATOM      4  O   UNL     1       3.519   3.069  17.158  0.00  0.00    +0.000 OA
BRANCH   2   5
ATOM      5  C   UNL     1       5.019   5.034  18.028  0.00  0.00    +0.000 A 
ATOM      6  C   UNL     1       4.825   5.892  16.948  0.00  0.00    +0.000 A 
ATOM      7  C   UNL     1       5.813   6.828  16.656  0.00  0.00    +0.000 A 
ATOM      8  C   UNL     1       6.985   6.914  17.433  0.00  0.00    +0.000 A 
ATOM      9  C   UNL     1       7.155   6.057  18.538  0.00  0.00    +0.000 A 
ATOM     10  C   UNL     1       6.155   5.126  18.833  0.00  0.00    +0.000 A 
BRANCH   8  11
ATOM     11  O   UNL     1       7.836   7.882  16.963  0.00  0.00    +0.000 OA
ATOM     12  C   UNL     1       8.005   9.069  17.723  0.00  0.00    +0.000 C 
ENDBRANCH   8  11
BRANCH   9  13
ATOM     13  O   UNL     1       8.303   6.154  19.276  0.00  0.00    +0.000 OA
ATOM     14  C   UNL     1       8.455   5.304  20.407  0.00  0.00    +0.000 C 
ENDBRANCH   9  13
ENDBRANCH   2   5
ENDBRANCH   1   2
BRANCH   1  15
ATOM     15  C   UNL     1       1.237   3.833  19.082  0.00  0.00    +0.000 C 
BRANCH  15  17
ATOM     16  C   UNL     1       1.434   2.845  21.719  0.00  0.00    +0.000 C 
ATOM     17  C   UNL     1       1.343   3.301  20.501  0.00  0.00    +0.000 C 
ENDBRANCH  15  17
ENDBRANCH   1  15
BRANCH   1  18
ATOM     18  C   UNL     1       2.666   5.821  19.764  0.00  0.00    +0.000 C 
BRANCH  18  19
ATOM     19  C   UNL     1       1.976   7.156  19.496  0.00  0.00    +0.000 A 
ATOM     20  C   UNL     1       2.118   7.808  18.261  0.00  0.00    +0.000 A 
ATOM     21  C   UNL     1       1.700   9.137  18.107  0.00  0.00    +0.000 A 
ATOM     22  C   UNL     1       1.148   9.833  19.184  0.00  0.00    +0.000 A 
ATOM     23  C   UNL     1       0.895   9.172  20.386  0.00  0.00    +0.000 A 
ATOM     24  C   UNL     1       1.293   7.830  20.532  0.00  0.00    +0.000 A 
ATOM     25  C   UNL     1       0.277   9.908  21.486  0.00  0.00    +0.000 C 
ATOM     26  C   UNL     1       0.200  11.243  21.379  0.00  0.00    +0.000 C 
ATOM     27  C   UNL     1       0.718  11.990  20.169  0.00  0.00    +0.000 C 
ATOM     28  C   UNL     1       2.055  12.665  20.517  0.00  0.00    +0.000 C 
ATOM     29  C   UNL     1      -0.281  13.081  19.756  0.00  0.00    +0.000 C 
ATOM     30  O   UNL     1       0.895  11.166  18.991  0.00  0.00    +0.000 OA
ENDBRANCH  18  19
ENDBRANCH   1  18
TORSDOF 8
ENDMDL
MODEL 9
REMARK VINA RESULT:      -7.5      1.105      2.556
REMARK  Name = 
REMARK  12 active torsions:
REMARK  status: ('A' for Active; 'I' for Inactive)
REMARK    1  A    between atoms: C_2  and  C_3
REMARK    2  A    between atoms: C_3  and  N_4
REMARK    3  A    between atoms: N_4  and  C_5
REMARK    4  A    between atoms: N_4  and  S_18
REMARK    5  A    between atoms: C_5  and  C_6
REMARK    6  A    between atoms: C_14  and  C_15
REMARK    7  A    between atoms: C_14  and  C_16
REMARK    8  A    between atoms: S_18  and  C_21
REMARK    9  A    between atoms: C_24  and  O_25
REMARK   10  A    between atoms: O_25  and  C_26
REMARK   11  A    between atoms: C_27  and  O_28
REMARK   12  A    between atoms: O_28  and  C_29
REMARK                            x       y       z     vdW  Elec       q    Type
REMARK                         _______ _______ _______ _____ _____    ______ ____
ROOT
ATOM      1  N   UNL     1       2.804   3.903  19.093  0.00  0.00    +0.000 NA
ENDROOT
BRANCH   1   2
ATOM      2  S   UNL     1       4.197   2.963  18.707  0.00  0.00    +0.000 S 
ATOM      3  O   UNL     1       4.845   2.438  19.886  0.00  0.00    +0.000 OA
ATOM      4  O   UNL     1       3.815   2.085  17.614  0.00  0.00    +0.000 OA
BRANCH   2   5
ATOM      5  C   UNL     1       5.310   4.188  18.078  0.00  0.00    +0.000 A 
ATOM      6  C   UNL     1       5.904   5.090  18.956  0.00  0.00    +0.000 A 
ATOM      7  C   UNL     1       6.738   6.076  18.434  0.00  0.00    +0.000 A 
ATOM      8  C   UNL     1       6.982   6.163  17.050  0.00  0.00    +0.000 A 
ATOM      9  C   UNL     1       6.396   5.225  16.176  0.00  0.00    +0.000 A 
ATOM     10  C   UNL     1       5.568   4.232  16.707  0.00  0.00    +0.000 A 
BRANCH   8  11
ATOM     11  O   UNL     1       7.808   7.215  16.745  0.00  0.00    +0.000 OA
ATOM     12  C   UNL     1       7.842   8.331  17.621  0.00  0.00    +0.000 C 
ENDBRANCH   8  11
BRANCH   9  13
ATOM     13  O   UNL     1       6.641   5.331  14.835  0.00  0.00    +0.000 OA
ATOM     14  C   UNL     1       6.280   4.243  13.992  0.00  0.00    +0.000 C 
ENDBRANCH   9  13
ENDBRANCH   2   5
ENDBRANCH   1   2
BRANCH   1  15
ATOM     15  C   UNL     1       2.804   4.255  20.575  0.00  0.00    +0.000 C 
BRANCH  15  17
ATOM     16  C   UNL     1       1.312   2.393  22.085  0.00  0.00    +0.000 C 
ATOM     17  C   UNL     1       2.001   3.253  21.387  0.00  0.00    +0.000 C 
ENDBRANCH  15  17
ENDBRANCH   1  15
BRANCH   1  18
ATOM     18  C   UNL     1       2.624   5.102  18.186  0.00  0.00    +0.000 C 
BRANCH  18  19
ATOM     19  C   UNL     1       2.366   6.428  18.898  0.00  0.00    +0.000 A 
ATOM     20  C   UNL     1       1.892   6.458  20.219  0.00  0.00    +0.000 A 
ATOM     21  C   UNL     1       1.418   7.653  20.777  0.00  0.00    +0.000 A 
ATOM     22  C   UNL     1       1.400   8.826  20.021  0.00  0.00    +0.000 A 
ATOM     23  C   UNL     1       1.969   8.845  18.747  0.00  0.00    +0.000 A 
ATOM     24  C   UNL     1       2.467   7.649  18.196  0.00  0.00    +0.000 A 
ATOM     25  C   UNL     1       1.979  10.094  17.990  0.00  0.00    +0.000 C 
ATOM     26  C   UNL     1       1.229  11.108  18.449  0.00  0.00    +0.000 C 
ATOM     27  C   UNL     1       0.399  10.997  19.710  0.00  0.00    +0.000 C 
ATOM     28  C   UNL     1      -1.082  10.823  19.334  0.00  0.00    +0.000 C 
ATOM     29  C   UNL     1       0.537  12.276  20.547  0.00  0.00    +0.000 C 
ATOM     30  O   UNL     1       0.795   9.916  20.589  0.00  0.00    +0.000 OA
ENDBRANCH  18  19
ENDBRANCH   1  18
TORSDOF 8
ENDMDL
