MODEL 1
REMARK VINA RESULT:      -7.1      0.000      0.000
REMARK  Name = 
REMARK  12 active torsions:
REMARK  status: ('A' for Active; 'I' for Inactive)
REMARK    1  A    between atoms: C_1  and  O_2
REMARK    2  A    between atoms: O_2  and  C_3
REMARK    3  A    between atoms: C_6  and  C_7
REMARK    4  A    between atoms: C_7  and  C_8
REMARK    5  A    between atoms: C_8  and  N_9
REMARK    6  A    between atoms: C_10  and  C_12
REMARK    7  A    between atoms: C_12  and  C_13
REMARK    8  A    between atoms: C_13  and  C_14
REMARK    9  A    between atoms: N_15  and  N_16
REMARK   10  A    between atoms: C_17  and  C_19
REMARK   11  A    between atoms: C_28  and  O_29
REMARK   12  A    between atoms: O_29  and  C_30
REMARK                            x       y       z     vdW  Elec       q    Type
REMARK                         _______ _______ _______ _____ _____    ______ ____
ROOT
ATOM      1  N   UNL     1       1.775   4.705  20.222  0.00  0.00    +0.000 N 
ATOM      2  C   UNL     1       2.070   3.618  21.017  0.00  0.00    +0.000 C 
ATOM      3  O   UNL     1       2.070   3.680  22.246  0.00  0.00    +0.000 OA
ATOM      4  H   UNL     1       1.828   4.623  19.210  0.00  0.00    +0.000 HD
ENDROOT
BRANCH   1   5
ATOM      5  C   UNL     1       1.573   6.001  20.850  0.00  0.00    +0.000 C 
BRANCH   5   6
ATOM      6  C   UNL     1       2.311   7.165  20.192  0.00  0.00    +0.000 C 
BRANCH   6  10
ATOM      7  C   UNL     1      -0.355  10.564  19.737  0.00  0.00    +0.000 A 
ATOM      8  C   UNL     1       0.540  10.207  18.716  0.00  0.00    +0.000 A 
ATOM      9  C   UNL     1       1.403   9.114  18.856  0.00  0.00    +0.000 A 
ATOM     10  C   UNL     1       1.416   8.378  20.040  0.00  0.00    +0.000 A 
ATOM     11  C   UNL     1       0.605   8.806  21.099  0.00  0.00    +0.000 A 
ATOM     12  C   UNL     1      -0.279   9.896  20.968  0.00  0.00    +0.000 A 
BRANCH   7  14
ATOM     13  C   UNL     1      -2.284  11.288  18.581  0.00  0.00    +0.000 C 
ATOM     14  O   UNL     1      -1.270  11.567  19.549  0.00  0.00    +0.000 OA
ENDBRANCH   7  14
BRANCH  12  15
ATOM     15  O   UNL     1      -0.985  10.126  22.120  0.00  0.00    +0.000 OA
ATOM     16  C   UNL     1      -0.820  11.356  22.808  0.00  0.00    +0.000 C 
ENDBRANCH  12  15
ENDBRANCH   6  10
ENDBRANCH   5   6
ENDBRANCH   1   5
BRANCH   2  17
ATOM     17  C   UNL     1       2.400   2.330  20.307  0.00  0.00    +0.000 C 
BRANCH  17  18
ATOM     18  C   UNL     1       3.125   2.519  18.995  0.00  0.00    +0.000 C 
ATOM     19  C   UNL     1       2.554   1.864  17.756  0.00  0.00    +0.000 C 
ATOM     20  N   UNL     1       4.231   3.203  19.015  0.00  0.00    +0.000 NA
BRANCH  20  21
ATOM     21  N   UNL     1       4.908   3.368  17.844  0.00  0.00    +0.000 N 
ATOM     22  C   UNL     1       4.726   4.505  17.077  0.00  0.00    +0.000 C 
ATOM     23  O   UNL     1       4.029   5.461  17.396  0.00  0.00    +0.000 OA
ATOM     24  H   UNL     1       5.495   2.619  17.497  0.00  0.00    +0.000 HD
BRANCH  22  25
ATOM     25  C   UNL     1       5.493   4.568  15.794  0.00  0.00    +0.000 A 
ATOM     26  C   UNL     1       4.973   3.814  14.724  0.00  0.00    +0.000 A 
ATOM     27  C   UNL     1       5.619   3.785  13.486  0.00  0.00    +0.000 A 
ATOM     28  C   UNL     1       6.795   4.506  13.303  0.00  0.00    +0.000 A 
ATOM     29 CL   UNL     1       7.606   4.456  11.788  0.00  0.00    +0.000 Cl
ATOM     30  C   UNL     1       7.326   5.259  14.345  0.00  0.00    +0.000 A 
ATOM     31  C   UNL     1       6.681   5.291  15.590  0.00  0.00    +0.000 A 
ATOM     32 CL   UNL     1       7.462   6.233  16.814  0.00  0.00    +0.000 Cl
ENDBRANCH  22  25
ENDBRANCH  20  21
ENDBRANCH  17  18
ENDBRANCH   2  17
TORSDOF 9
ENDMDL
MODEL 2
REMARK VINA RESULT:      -7.0      6.030      8.962
REMARK  Name = 
REMARK  12 active torsions:
REMARK  status: ('A' for Active; 'I' for Inactive)
REMARK    1  A    between atoms: C_1  and  O_2
REMARK    2  A    between atoms: O_2  and  C_3
REMARK    3  A    between atoms: C_6  and  C_7
REMARK    4  A    between atoms: C_7  and  C_8
REMARK    5  A    between atoms: C_8  and  N_9
REMARK    6  A    between atoms: C_10  and  C_12
REMARK    7  A    between atoms: C_12  and  C_13
REMARK    8  A    between atoms: C_13  and  C_14
REMARK    9  A    between atoms: N_15  and  N_16
REMARK   10  A    between atoms: C_17  and  C_19
REMARK   11  A    between atoms: C_28  and  O_29
REMARK   12  A    between atoms: O_29  and  C_30
REMARK                            x       y       z     vdW  Elec       q    Type
REMARK                         _______ _______ _______ _____ _____    ______ ____
ROOT
ATOM      1  N   UNL     1       6.616   7.739  17.359  0.00  0.00    +0.000 N 
ATOM      2  C   UNL     1       6.451   6.530  16.717  0.00  0.00    +0.000 C 
ATOM      3  O   UNL     1       7.384   5.941  16.171  0.00  0.00    +0.000 OA
ATOM      4  H   UNL     1       5.811   8.214  17.760  0.00  0.00    +0.000 HD
ENDROOT
BRANCH   1   5
ATOM      5  C   UNL     1       7.908   8.403  17.289  0.00  0.00    +0.000 C 
BRANCH   5   6
ATOM      6  C   UNL     1       8.633   8.558  18.625  0.00  0.00    +0.000 C 
BRANCH   6  10
ATOM      7  C   UNL     1       9.877  12.674  19.241  0.00  0.00    +0.000 A 
ATOM      8  C   UNL     1       9.949  12.081  17.970  0.00  0.00    +0.000 A 
ATOM      9  C   UNL     1       9.551  10.755  17.764  0.00  0.00    +0.000 A 
ATOM     10  C   UNL     1       9.109   9.980  18.837  0.00  0.00    +0.000 A 
ATOM     11  C   UNL     1       9.147  10.539  20.121  0.00  0.00    +0.000 A 
ATOM     12  C   UNL     1       9.531  11.877  20.342  0.00  0.00    +0.000 A 
BRANCH   7  14
ATOM     13  C   UNL     1       9.713  14.862  18.362  0.00  0.00    +0.000 C 
ATOM     14  O   UNL     1      10.165  14.003  19.412  0.00  0.00    +0.000 OA
ENDBRANCH   7  14
BRANCH  12  15
ATOM     15  O   UNL     1       9.478  12.214  21.669  0.00  0.00    +0.000 OA
ATOM     16  C   UNL     1       8.377  11.785  22.455  0.00  0.00    +0.000 C 
ENDBRANCH  12  15
ENDBRANCH   6  10
ENDBRANCH   5   6
ENDBRANCH   1   5
BRANCH   2  17
ATOM     17  C   UNL     1       5.060   5.951  16.709  0.00  0.00    +0.000 C 
BRANCH  17  18
ATOM     18  C   UNL     1       4.182   6.447  17.834  0.00  0.00    +0.000 C 
ATOM     19  C   UNL     1       4.108   5.629  19.105  0.00  0.00    +0.000 C 
ATOM     20  N   UNL     1       3.498   7.534  17.626  0.00  0.00    +0.000 NA
BRANCH  20  21
ATOM     21  N   UNL     1       2.686   7.986  18.624  0.00  0.00    +0.000 N 
ATOM     22  C   UNL     1       1.960   9.153  18.469  0.00  0.00    +0.000 C 
ATOM     23  O   UNL     1       1.921   9.823  17.444  0.00  0.00    +0.000 OA
ATOM     24  H   UNL     1       2.670   7.499  19.512  0.00  0.00    +0.000 HD
BRANCH  22  25
ATOM     25  C   UNL     1       1.127   9.574  19.638  0.00  0.00    +0.000 A 
ATOM     26  C   UNL     1       0.964   8.616  20.659  0.00  0.00    +0.000 A 
ATOM     27  C   UNL     1       0.191   8.896  21.788  0.00  0.00    +0.000 A 
ATOM     28  C   UNL     1      -0.432  10.134  21.909  0.00  0.00    +0.000 A 
ATOM     29 CL   UNL     1      -1.404  10.476  23.286  0.00  0.00    +0.000 Cl
ATOM     30  C   UNL     1      -0.285  11.095  20.914  0.00  0.00    +0.000 A 
ATOM     31  C   UNL     1       0.490  10.819  19.778  0.00  0.00    +0.000 A 
ATOM     32 CL   UNL     1       0.564  12.081  18.597  0.00  0.00    +0.000 Cl
ENDBRANCH  22  25
ENDBRANCH  20  21
ENDBRANCH  17  18
ENDBRANCH   2  17
TORSDOF 9
ENDMDL
MODEL 3
REMARK VINA RESULT:      -7.0      5.787      8.945
REMARK  Name = 
REMARK  12 active torsions:
REMARK  status: ('A' for Active; 'I' for Inactive)
REMARK    1  A    between atoms: C_1  and  O_2
REMARK    2  A    between atoms: O_2  and  C_3
REMARK    3  A    between atoms: C_6  and  C_7
REMARK    4  A    between atoms: C_7  and  C_8
REMARK    5  A    between atoms: C_8  and  N_9
REMARK    6  A    between atoms: C_10  and  C_12
REMARK    7  A    between atoms: C_12  and  C_13
REMARK    8  A    between atoms: C_13  and  C_14
REMARK    9  A    between atoms: N_15  and  N_16
REMARK   10  A    between atoms: C_17  and  C_19
REMARK   11  A    between atoms: C_28  and  O_29
REMARK   12  A    between atoms: O_29  and  C_30
REMARK                            x       y       z     vdW  Elec       q    Type
REMARK                         _______ _______ _______ _____ _____    ______ ____
ROOT
ATOM      1  N   UNL     1       6.298   7.122  17.448  0.00  0.00    +0.000 N 
ATOM      2  C   UNL     1       6.092   5.810  17.079  0.00  0.00    +0.000 C 
ATOM      3  O   UNL     1       7.008   5.080  16.700  0.00  0.00    +0.000 OA
ATOM      4  H   UNL     1       5.508   7.705  17.713  0.00  0.00    +0.000 HD
ENDROOT
BRANCH   1   5
ATOM      5  C   UNL     1       7.620   7.704  17.273  0.00  0.00    +0.000 C 
BRANCH   5   6
ATOM      6  C   UNL     1       8.328   8.109  18.565  0.00  0.00    +0.000 C 
BRANCH   6  10
ATOM      7  C   UNL     1       9.281  12.345  18.671  0.00  0.00    +0.000 A 
ATOM      8  C   UNL     1       8.356  11.836  17.745  0.00  0.00    +0.000 A 
ATOM      9  C   UNL     1       8.045  10.472  17.704  0.00  0.00    +0.000 A 
ATOM     10  C   UNL     1       8.685   9.581  18.565  0.00  0.00    +0.000 A 
ATOM     11  C   UNL     1       9.690  10.074  19.408  0.00  0.00    +0.000 A 
ATOM     12  C   UNL     1      10.003  11.447  19.470  0.00  0.00    +0.000 A 
BRANCH   7  14
ATOM     13  C   UNL     1       8.326  14.506  18.680  0.00  0.00    +0.000 C 
ATOM     14  O   UNL     1       9.498  13.694  18.777  0.00  0.00    +0.000 OA
ENDBRANCH   7  14
BRANCH  12  15
ATOM     15  O   UNL     1      11.002  11.704  20.372  0.00  0.00    +0.000 OA
ATOM     16  C   UNL     1      12.309  11.998  19.904  0.00  0.00    +0.000 C 
ENDBRANCH  12  15
ENDBRANCH   6  10
ENDBRANCH   5   6
ENDBRANCH   1   5
BRANCH   2  17
ATOM     17  C   UNL     1       4.677   5.299  17.156  0.00  0.00    +0.000 C 
BRANCH  17  18
ATOM     18  C   UNL     1       3.841   5.962  18.226  0.00  0.00    +0.000 C 
ATOM     19  C   UNL     1       3.845   5.365  19.616  0.00  0.00    +0.000 C 
ATOM     20  N   UNL     1       3.126   6.991  17.876  0.00  0.00    +0.000 NA
BRANCH  20  21
ATOM     21  N   UNL     1       2.351   7.590  18.824  0.00  0.00    +0.000 N 
ATOM     22  C   UNL     1       1.758   8.816  18.579  0.00  0.00    +0.000 C 
ATOM     23  O   UNL     1       1.808   9.419  17.513  0.00  0.00    +0.000 OA
ATOM     24  H   UNL     1       2.268   7.167  19.740  0.00  0.00    +0.000 HD
BRANCH  22  25
ATOM     25  C   UNL     1       0.957   9.398  19.700  0.00  0.00    +0.000 A 
ATOM     26  C   UNL     1       1.228   8.888  20.985  0.00  0.00    +0.000 A 
ATOM     27  C   UNL     1       0.526   9.347  22.102  0.00  0.00    +0.000 A 
ATOM     28  C   UNL     1      -0.459  10.318  21.949  0.00  0.00    +0.000 A 
ATOM     29 CL   UNL     1      -1.342  10.871  23.316  0.00  0.00    +0.000 Cl
ATOM     30  C   UNL     1      -0.742  10.837  20.689  0.00  0.00    +0.000 A 
ATOM     31  C   UNL     1      -0.040  10.379  19.565  0.00  0.00    +0.000 A 
ATOM     32 CL   UNL     1      -0.513  11.076  18.052  0.00  0.00    +0.000 Cl
ENDBRANCH  22  25
ENDBRANCH  20  21
ENDBRANCH  17  18
ENDBRANCH   2  17
TORSDOF 9
ENDMDL
MODEL 4
REMARK VINA RESULT:      -7.0      3.469      8.511
REMARK  Name = 
REMARK  12 active torsions:
REMARK  status: ('A' for Active; 'I' for Inactive)
REMARK    1  A    between atoms: C_1  and  O_2
REMARK    2  A    between atoms: O_2  and  C_3
REMARK    3  A    between atoms: C_6  and  C_7
REMARK    4  A    between atoms: C_7  and  C_8
REMARK    5  A    between atoms: C_8  and  N_9
REMARK    6  A    between atoms: C_10  and  C_12
REMARK    7  A    between atoms: C_12  and  C_13
REMARK    8  A    between atoms: C_13  and  C_14
REMARK    9  A    between atoms: N_15  and  N_16
REMARK   10  A    between atoms: C_17  and  C_19
REMARK   11  A    between atoms: C_28  and  O_29
REMARK   12  A    between atoms: O_29  and  C_30
REMARK                            x       y       z     vdW  Elec       q    Type
REMARK                         _______ _______ _______ _____ _____    ______ ____
ROOT
ATOM      1  N   UNL     1       3.378   3.724  19.572  0.00  0.00    +0.000 N 
ATOM      2  C   UNL     1       2.133   4.213  19.908  0.00  0.00    +0.000 C 
ATOM      3  O   UNL     1       1.095   3.758  19.428  0.00  0.00    +0.000 OA
ATOM      4  H   UNL     1       4.213   4.156  19.958  0.00  0.00    +0.000 HD
ENDROOT
BRANCH   1   5
ATOM      5  C   UNL     1       3.480   2.719  18.526  0.00  0.00    +0.000 C 
BRANCH   5   6
ATOM      6  C   UNL     1       3.605   3.267  17.106  0.00  0.00    +0.000 C 
BRANCH   6  10
ATOM      7  C   UNL     1       6.881   6.108  16.857  0.00  0.00    +0.000 A 
ATOM      8  C   UNL     1       5.803   6.170  15.960  0.00  0.00    +0.000 A 
ATOM      9  C   UNL     1       4.744   5.257  16.033  0.00  0.00    +0.000 A 
ATOM     10  C   UNL     1       4.763   4.236  16.983  0.00  0.00    +0.000 A 
ATOM     11  C   UNL     1       5.893   4.108  17.801  0.00  0.00    +0.000 A 
ATOM     12  C   UNL     1       6.960   5.029  17.748  0.00  0.00    +0.000 A 
BRANCH   7  14
ATOM     13  C   UNL     1       7.523   8.280  17.531  0.00  0.00    +0.000 C 
ATOM     14  O   UNL     1       7.857   7.070  16.848  0.00  0.00    +0.000 OA
ENDBRANCH   7  14
BRANCH  12  15
ATOM     15  O   UNL     1       7.948   4.719  18.646  0.00  0.00    +0.000 OA
ATOM     16  C   UNL     1       8.078   5.484  19.834  0.00  0.00    +0.000 C 
ENDBRANCH  12  15
ENDBRANCH   6  10
ENDBRANCH   5   6
ENDBRANCH   1   5
BRANCH   2  17
ATOM     17  C   UNL     1       2.096   5.345  20.902  0.00  0.00    +0.000 C 
BRANCH  17  18
ATOM     18  C   UNL     1       1.880   6.703  20.278  0.00  0.00    +0.000 C 
ATOM     19  C   UNL     1       2.544   7.001  18.951  0.00  0.00    +0.000 C 
ATOM     20  N   UNL     1       1.166   7.563  20.945  0.00  0.00    +0.000 NA
BRANCH  20  21
ATOM     21  N   UNL     1       0.977   8.800  20.405  0.00  0.00    +0.000 N 
ATOM     22  C   UNL     1       1.057   9.934  21.193  0.00  0.00    +0.000 C 
ATOM     23  O   UNL     1       1.362   9.943  22.380  0.00  0.00    +0.000 OA
ATOM     24  H   UNL     1       0.706   8.884  19.432  0.00  0.00    +0.000 HD
BRANCH  22  25
ATOM     25  C   UNL     1       0.799  11.238  20.505  0.00  0.00    +0.000 A 
ATOM     26  C   UNL     1       0.126  12.215  21.263  0.00  0.00    +0.000 A 
ATOM     27  C   UNL     1      -0.183  13.462  20.714  0.00  0.00    +0.000 A 
ATOM     28  C   UNL     1       0.174  13.746  19.400  0.00  0.00    +0.000 A 
ATOM     29 CL   UNL     1      -0.223  15.270  18.711  0.00  0.00    +0.000 Cl
ATOM     30  C   UNL     1       0.841  12.795  18.633  0.00  0.00    +0.000 A 
ATOM     31  C   UNL     1       1.153  11.542  19.180  0.00  0.00    +0.000 A 
ATOM     32 CL   UNL     1       1.948  10.436  18.112  0.00  0.00    +0.000 Cl
ENDBRANCH  22  25
ENDBRANCH  20  21
ENDBRANCH  17  18
ENDBRANCH   2  17
TORSDOF 9
ENDMDL
MODEL 5
REMARK VINA RESULT:      -6.9      4.536     10.220
REMARK  Name = 
REMARK  12 active torsions:
REMARK  status: ('A' for Active; 'I' for Inactive)
REMARK    1  A    between atoms: C_1  and  O_2
REMARK    2  A    between atoms: O_2  and  C_3
REMARK    3  A    between atoms: C_6  and  C_7
REMARK    4  A    between atoms: C_7  and  C_8
REMARK    5  A    between atoms: C_8  and  N_9
REMARK    6  A    between atoms: C_10  and  C_12
REMARK    7  A    between atoms: C_12  and  C_13
REMARK    8  A    between atoms: C_13  and  C_14
REMARK    9  A    between atoms: N_15  and  N_16
REMARK   10  A    between atoms: C_17  and  C_19
REMARK   11  A    between atoms: C_28  and  O_29
REMARK   12  A    between atoms: O_29  and  C_30
REMARK                            x       y       z     vdW  Elec       q    Type
REMARK                         _______ _______ _______ _____ _____    ______ ____
ROOT
ATOM      1  N   UNL     1       2.538   6.338  18.253  0.00  0.00    +0.000 N 
ATOM      2  C   UNL     1       2.156   7.549  18.790  0.00  0.00    +0.000 C 
ATOM      3  O   UNL     1       2.104   7.744  20.005  0.00  0.00    +0.000 OA
ATOM      4  H   UNL     1       2.526   6.204  17.245  0.00  0.00    +0.000 HD
ENDROOT
BRANCH   1   5
ATOM      5  C   UNL     1       2.774   5.215  19.146  0.00  0.00    +0.000 C 
BRANCH   5   6
ATOM      6  C   UNL     1       4.239   4.815  19.316  0.00  0.00    +0.000 C 
BRANCH   6  10
ATOM      7  C   UNL     1       6.334   5.133  15.524  0.00  0.00    +0.000 A 
ATOM      8  C   UNL     1       5.299   4.201  15.701  0.00  0.00    +0.000 A 
ATOM      9  C   UNL     1       4.620   4.092  16.920  0.00  0.00    +0.000 A 
ATOM     10  C   UNL     1       4.991   4.889  18.003  0.00  0.00    +0.000 A 
ATOM     11  C   UNL     1       6.098   5.735  17.859  0.00  0.00    +0.000 A 
ATOM     12  C   UNL     1       6.782   5.865  16.633  0.00  0.00    +0.000 A 
BRANCH   7  14
ATOM     13  C   UNL     1       6.694   4.251  13.362  0.00  0.00    +0.000 C 
ATOM     14  O   UNL     1       6.919   5.308  14.297  0.00  0.00    +0.000 OA
ENDBRANCH   7  14
BRANCH  12  15
ATOM     15  O   UNL     1       7.818   6.759  16.717  0.00  0.00    +0.000 OA
ATOM     16  C   UNL     1       7.690   7.903  17.546  0.00  0.00    +0.000 C 
ENDBRANCH  12  15
ENDBRANCH   6  10
ENDBRANCH   5   6
ENDBRANCH   1   5
BRANCH   2  17
ATOM     17  C   UNL     1       1.797   8.640  17.815  0.00  0.00    +0.000 C 
BRANCH  17  18
ATOM     18  C   UNL     1       1.414   9.947  18.468  0.00  0.00    +0.000 C 
ATOM     19  C   UNL     1       2.232  11.179  18.149  0.00  0.00    +0.000 C 
ATOM     20  N   UNL     1       0.422   9.929  19.310  0.00  0.00    +0.000 NA
BRANCH  20  21
ATOM     21  N   UNL     1       0.075  11.095  19.923  0.00  0.00    +0.000 N 
ATOM     22  C   UNL     1       0.380  11.312  21.255  0.00  0.00    +0.000 C 
ATOM     23  O   UNL     1       1.025  10.544  21.959  0.00  0.00    +0.000 OA
ATOM     24  H   UNL     1      -0.474  11.780  19.417  0.00  0.00    +0.000 HD
BRANCH  22  25
ATOM     25  C   UNL     1      -0.076  12.613  21.836  0.00  0.00    +0.000 A 
ATOM     26  C   UNL     1       0.649  13.754  21.442  0.00  0.00    +0.000 A 
ATOM     27  C   UNL     1       0.321  15.019  21.938  0.00  0.00    +0.000 A 
ATOM     28  C   UNL     1      -0.733  15.156  22.836  0.00  0.00    +0.000 A 
ATOM     29 CL   UNL     1      -1.128  16.706  23.467  0.00  0.00    +0.000 Cl
ATOM     30  C   UNL     1      -1.463  14.042  23.237  0.00  0.00    +0.000 A 
ATOM     31  C   UNL     1      -1.138  12.771  22.743  0.00  0.00    +0.000 A 
ATOM     32 CL   UNL     1      -2.097  11.464  23.347  0.00  0.00    +0.000 Cl
ENDBRANCH  22  25
ENDBRANCH  20  21
ENDBRANCH  17  18
ENDBRANCH   2  17
TORSDOF 9
ENDMDL
MODEL 6
REMARK VINA RESULT:      -6.9      3.493      6.347
REMARK  Name = 
REMARK  12 active torsions:
REMARK  status: ('A' for Active; 'I' for Inactive)
REMARK    1  A    between atoms: C_1  and  O_2
REMARK    2  A    between atoms: O_2  and  C_3
REMARK    3  A    between atoms: C_6  and  C_7
REMARK    4  A    between atoms: C_7  and  C_8
REMARK    5  A    between atoms: C_8  and  N_9
REMARK    6  A    between atoms: C_10  and  C_12
REMARK    7  A    between atoms: C_12  and  C_13
REMARK    8  A    between atoms: C_13  and  C_14
REMARK    9  A    between atoms: N_15  and  N_16
REMARK   10  A    between atoms: C_17  and  C_19
REMARK   11  A    between atoms: C_28  and  O_29
REMARK   12  A    between atoms: O_29  and  C_30
REMARK                            x       y       z     vdW  Elec       q    Type
REMARK                         _______ _______ _______ _____ _____    ______ ____
ROOT
ATOM      1  N   UNL     1       0.364  11.378  19.968  0.00  0.00    +0.000 N 
ATOM      2  C   UNL     1       0.423  11.712  21.305  0.00  0.00    +0.000 C 
ATOM      3  O   UNL     1       0.739  12.838  21.689  0.00  0.00    +0.000 OA
ATOM      4  H   UNL     1       0.141  10.425  19.693  0.00  0.00    +0.000 HD
ENDROOT
BRANCH   1   5
ATOM      5  C   UNL     1       0.803  12.350  18.979  0.00  0.00    +0.000 C 
BRANCH   5   6
ATOM      6  C   UNL     1      -0.310  13.182  18.345  0.00  0.00    +0.000 C 
BRANCH   6  10
ATOM      7  C   UNL     1      -4.139  11.134  18.270  0.00  0.00    +0.000 A 
ATOM      8  C   UNL     1      -3.808  12.006  19.319  0.00  0.00    +0.000 A 
ATOM      9  C   UNL     1      -2.575  12.669  19.351  0.00  0.00    +0.000 A 
ATOM     10  C   UNL     1      -1.630  12.440  18.350  0.00  0.00    +0.000 A 
ATOM     11  C   UNL     1      -1.919  11.484  17.368  0.00  0.00    +0.000 A 
ATOM     12  C   UNL     1      -3.161  10.820  17.316  0.00  0.00    +0.000 A 
BRANCH   7  14
ATOM     13  C   UNL     1      -6.370  11.158  19.050  0.00  0.00    +0.000 C 
ATOM     14  O   UNL     1      -5.388  10.575  18.190  0.00  0.00    +0.000 OA
ENDBRANCH   7  14
BRANCH  12  15
ATOM     15  O   UNL     1      -3.229   9.943  16.265  0.00  0.00    +0.000 OA
ATOM     16  C   UNL     1      -2.999  10.412  14.946  0.00  0.00    +0.000 C 
ENDBRANCH  12  15
ENDBRANCH   6  10
ENDBRANCH   5   6
ENDBRANCH   1   5
BRANCH   2  17
ATOM     17  C   UNL     1       0.082  10.624  22.290  0.00  0.00    +0.000 C 
BRANCH  17  18
ATOM     18  C   UNL     1       0.409   9.231  21.806  0.00  0.00    +0.000 C 
ATOM     19  C   UNL     1      -0.703   8.206  21.756  0.00  0.00    +0.000 C 
ATOM     20  N   UNL     1       1.648   8.979  21.499  0.00  0.00    +0.000 NA
BRANCH  20  21
ATOM     21  N   UNL     1       1.965   7.722  21.078  0.00  0.00    +0.000 N 
ATOM     22  C   UNL     1       2.135   7.450  19.732  0.00  0.00    +0.000 C 
ATOM     23  O   UNL     1       2.093   8.286  18.837  0.00  0.00    +0.000 OA
ATOM     24  H   UNL     1       2.005   6.966  21.751  0.00  0.00    +0.000 HD
BRANCH  22  25
ATOM     25  C   UNL     1       2.448   6.030  19.379  0.00  0.00    +0.000 A 
ATOM     26  C   UNL     1       1.783   5.043  20.133  0.00  0.00    +0.000 A 
ATOM     27  C   UNL     1       2.013   3.685  19.900  0.00  0.00    +0.000 A 
ATOM     28  C   UNL     1       2.915   3.297  18.914  0.00  0.00    +0.000 A 
ATOM     29 CL   UNL     1       3.220   1.628  18.637  0.00  0.00    +0.000 Cl
ATOM     30  C   UNL     1       3.582   4.255  18.156  0.00  0.00    +0.000 A 
ATOM     31  C   UNL     1       3.354   5.619  18.386  0.00  0.00    +0.000 A 
ATOM     32 CL   UNL     1       4.273   6.708  17.404  0.00  0.00    +0.000 Cl
ENDBRANCH  22  25
ENDBRANCH  20  21
ENDBRANCH  17  18
ENDBRANCH   2  17
TORSDOF 9
ENDMDL
MODEL 7
REMARK VINA RESULT:      -6.8      0.997      1.811
REMARK  Name = 
REMARK  12 active torsions:
REMARK  status: ('A' for Active; 'I' for Inactive)
REMARK    1  A    between atoms: C_1  and  O_2
REMARK    2  A    between atoms: O_2  and  C_3
REMARK    3  A    between atoms: C_6  and  C_7
REMARK    4  A    between atoms: C_7  and  C_8
REMARK    5  A    between atoms: C_8  and  N_9
REMARK    6  A    between atoms: C_10  and  C_12
REMARK    7  A    between atoms: C_12  and  C_13
REMARK    8  A    between atoms: C_13  and  C_14
REMARK    9  A    between atoms: N_15  and  N_16
REMARK   10  A    between atoms: C_17  and  C_19
REMARK   11  A    between atoms: C_28  and  O_29
REMARK   12  A    between atoms: O_29  and  C_30
REMARK                            x       y       z     vdW  Elec       q    Type
REMARK                         _______ _______ _______ _____ _____    ______ ____
ROOT
ATOM      1  N   UNL     1       1.410   4.729  20.386  0.00  0.00    +0.000 N 
ATOM      2  C   UNL     1       1.957   3.648  21.045  0.00  0.00    +0.000 C 
ATOM      3  O   UNL     1       2.252   3.685  22.240  0.00  0.00    +0.000 OA
ATOM      4  H   UNL     1       1.221   4.672  19.389  0.00  0.00    +0.000 HD
ENDROOT
BRANCH   1   5
ATOM      5  C   UNL     1       1.285   5.994  21.092  0.00  0.00    +0.000 C 
BRANCH   5   6
ATOM      6  C   UNL     1       1.903   7.198  20.384  0.00  0.00    +0.000 C 
BRANCH   6  10
ATOM      7  C   UNL     1       0.126  10.966  21.611  0.00  0.00    +0.000 A 
ATOM      8  C   UNL     1       0.231   9.892  22.509  0.00  0.00    +0.000 A 
ATOM      9  C   UNL     1       0.801   8.674  22.120  0.00  0.00    +0.000 A 
ATOM     10  C   UNL     1       1.243   8.493  20.810  0.00  0.00    +0.000 A 
ATOM     11  C   UNL     1       1.033   9.527  19.888  0.00  0.00    +0.000 A 
ATOM     12  C   UNL     1       0.473  10.763  20.268  0.00  0.00    +0.000 A 
BRANCH   7  14
ATOM     13  C   UNL     1      -1.611  12.168  22.671  0.00  0.00    +0.000 C 
ATOM     14  O   UNL     1      -0.333  12.188  22.030  0.00  0.00    +0.000 OA
ENDBRANCH   7  14
BRANCH  12  15
ATOM     15  O   UNL     1       0.376  11.629  19.210  0.00  0.00    +0.000 OA
ATOM     16  C   UNL     1       1.547  12.253  18.708  0.00  0.00    +0.000 C 
ENDBRANCH  12  15
ENDBRANCH   6  10
ENDBRANCH   5   6
ENDBRANCH   1   5
BRANCH   2  17
ATOM     17  C   UNL     1       2.185   2.402  20.230  0.00  0.00    +0.000 C 
BRANCH  17  18
ATOM     18  C   UNL     1       2.885   2.648  18.914  0.00  0.00    +0.000 C 
ATOM     19  C   UNL     1       2.076   2.556  17.639  0.00  0.00    +0.000 C 
ATOM     20  N   UNL     1       4.164   2.883  18.950  0.00  0.00    +0.000 NA
BRANCH  20  21
ATOM     21  N   UNL     1       4.815   3.089  17.770  0.00  0.00    +0.000 N 
ATOM     22  C   UNL     1       5.010   4.370  17.285  0.00  0.00    +0.000 C 
ATOM     23  O   UNL     1       4.696   5.398  17.875  0.00  0.00    +0.000 OA
ATOM     24  H   UNL     1       5.096   2.293  17.210  0.00  0.00    +0.000 HD
BRANCH  22  25
ATOM     25  C   UNL     1       5.707   4.479  15.966  0.00  0.00    +0.000 A 
ATOM     26  C   UNL     1       5.244   3.622  14.949  0.00  0.00    +0.000 A 
ATOM     27  C   UNL     1       5.834   3.627  13.682  0.00  0.00    +0.000 A 
ATOM     28  C   UNL     1       6.897   4.485  13.419  0.00  0.00    +0.000 A 
ATOM     29 CL   UNL     1       7.642   4.479  11.870  0.00  0.00    +0.000 Cl
ATOM     30  C   UNL     1       7.370   5.341  14.409  0.00  0.00    +0.000 A 
ATOM     31  C   UNL     1       6.781   5.340  15.681  0.00  0.00    +0.000 A 
ATOM     32 CL   UNL     1       7.485   6.422  16.833  0.00  0.00    +0.000 Cl
ENDBRANCH  22  25
ENDBRANCH  20  21
ENDBRANCH  17  18
ENDBRANCH   2  17
TORSDOF 9
ENDMDL
MODEL 8
REMARK VINA RESULT:      -6.7      3.598      6.052
REMARK  Name = 
REMARK  12 active torsions:
REMARK  status: ('A' for Active; 'I' for Inactive)
REMARK    1  A    between atoms: C_1  and  O_2
REMARK    2  A    between atoms: O_2  and  C_3
REMARK    3  A    between atoms: C_6  and  C_7
REMARK    4  A    between atoms: C_7  and  C_8
REMARK    5  A    between atoms: C_8  and  N_9
REMARK    6  A    between atoms: C_10  and  C_12
REMARK    7  A    between atoms: C_12  and  C_13
REMARK    8  A    between atoms: C_13  and  C_14
REMARK    9  A    between atoms: N_15  and  N_16
REMARK   10  A    between atoms: C_17  and  C_19
REMARK   11  A    between atoms: C_28  and  O_29
REMARK   12  A    between atoms: O_29  and  C_30
REMARK                            x       y       z     vdW  Elec       q    Type
REMARK                         _______ _______ _______ _____ _____    ______ ____
ROOT
ATOM      1  N   UNL     1      -1.094  10.917  21.558  0.00  0.00    +0.000 N 
ATOM      2  C   UNL     1      -0.247  10.032  22.192  0.00  0.00    +0.000 C 
ATOM      3  O   UNL     1       0.466  10.365  23.138  0.00  0.00    +0.000 OA
ATOM      4  H   UNL     1      -1.634  10.613  20.752  0.00  0.00    +0.000 HD
ENDROOT
BRANCH   1   5
ATOM      5  C   UNL     1      -1.059  12.320  21.940  0.00  0.00    +0.000 C 
BRANCH   5   6
ATOM      6  C   UNL     1      -1.623  12.632  23.325  0.00  0.00    +0.000 C 
BRANCH   6  10
ATOM      7  C   UNL     1      -5.960  12.873  23.294  0.00  0.00    +0.000 A 
ATOM      8  C   UNL     1      -5.266  12.505  24.458  0.00  0.00    +0.000 A 
ATOM      9  C   UNL     1      -3.868  12.424  24.475  0.00  0.00    +0.000 A 
ATOM     10  C   UNL     1      -3.137  12.671  23.313  0.00  0.00    +0.000 A 
ATOM     11  C   UNL     1      -3.838  12.926  22.127  0.00  0.00    +0.000 A 
ATOM     12  C   UNL     1      -5.244  13.024  22.098  0.00  0.00    +0.000 A 
BRANCH   7  14
ATOM     13  C   UNL     1      -7.778  14.079  24.201  0.00  0.00    +0.000 C 
ATOM     14  O   UNL     1      -7.318  13.055  23.315  0.00  0.00    +0.000 OA
ENDBRANCH   7  14
BRANCH  12  15
ATOM     15  O   UNL     1      -5.712  13.295  20.839  0.00  0.00    +0.000 OA
ATOM     16  C   UNL     1      -6.146  12.229  20.010  0.00  0.00    +0.000 C 
ENDBRANCH  12  15
ENDBRANCH   6  10
ENDBRANCH   5   6
ENDBRANCH   1   5
BRANCH   2  17
ATOM     17  C   UNL     1      -0.229   8.619  21.668  0.00  0.00    +0.000 C 
BRANCH  17  18
ATOM     18  C   UNL     1       0.900   8.335  20.706  0.00  0.00    +0.000 C 
ATOM     19  C   UNL     1       1.191   9.345  19.617  0.00  0.00    +0.000 C 
ATOM     20  N   UNL     1       1.535   7.207  20.842  0.00  0.00    +0.000 NA
BRANCH  20  21
ATOM     21  N   UNL     1       2.544   6.927  19.971  0.00  0.00    +0.000 N 
ATOM     22  C   UNL     1       2.615   5.695  19.344  0.00  0.00    +0.000 C 
ATOM     23  O   UNL     1       1.778   4.806  19.451  0.00  0.00    +0.000 OA
ATOM     24  H   UNL     1       3.288   7.601  19.835  0.00  0.00    +0.000 HD
BRANCH  22  25
ATOM     25  C   UNL     1       3.782   5.481  18.434  0.00  0.00    +0.000 A 
ATOM     26  C   UNL     1       3.951   6.434  17.410  0.00  0.00    +0.000 A 
ATOM     27  C   UNL     1       4.997   6.322  16.491  0.00  0.00    +0.000 A 
ATOM     28  C   UNL     1       5.885   5.254  16.581  0.00  0.00    +0.000 A 
ATOM     29 CL   UNL     1       7.161   5.099  15.440  0.00  0.00    +0.000 Cl
ATOM     30  C   UNL     1       5.737   4.302  17.585  0.00  0.00    +0.000 A 
ATOM     31  C   UNL     1       4.689   4.410  18.509  0.00  0.00    +0.000 A 
ATOM     32 CL   UNL     1       4.592   3.143  19.684  0.00  0.00    +0.000 Cl
ENDBRANCH  22  25
ENDBRANCH  20  21
ENDBRANCH  17  18
ENDBRANCH   2  17
TORSDOF 9
ENDMDL
MODEL 9
REMARK VINA RESULT:      -6.7      3.312      9.242
REMARK  Name = 
REMARK  12 active torsions:
REMARK  status: ('A' for Active; 'I' for Inactive)
REMARK    1  A    between atoms: C_1  and  O_2
REMARK    2  A    between atoms: O_2  and  C_3
REMARK    3  A    between atoms: C_6  and  C_7
REMARK    4  A    between atoms: C_7  and  C_8
REMARK    5  A    between atoms: C_8  and  N_9
REMARK    6  A    between atoms: C_10  and  C_12
REMARK    7  A    between atoms: C_12  and  C_13
REMARK    8  A    between atoms: C_13  and  C_14
REMARK    9  A    between atoms: N_15  and  N_16
REMARK   10  A    between atoms: C_17  and  C_19
REMARK   11  A    between atoms: C_28  and  O_29
REMARK   12  A    between atoms: O_29  and  C_30
REMARK                            x       y       z     vdW  Elec       q    Type
REMARK                         _______ _______ _______ _____ _____    ______ ____
ROOT
ATOM      1  N   UNL     1       5.547   3.960  18.575  0.00  0.00    +0.000 N 
ATOM      2  C   UNL     1       4.409   3.194  18.434  0.00  0.00    +0.000 C 
ATOM      3  O   UNL     1       4.036   2.763  17.343  0.00  0.00    +0.000 OA
ATOM      4  H   UNL     1       5.797   4.333  19.487  0.00  0.00    +0.000 HD
ENDROOT
BRANCH   1   5
ATOM      5  C   UNL     1       6.268   4.375  17.382  0.00  0.00    +0.000 C 
BRANCH   5   6
ATOM      6  C   UNL     1       5.413   5.031  16.300  0.00  0.00    +0.000 C 
BRANCH   6  10
ATOM      7  C   UNL     1       6.836   3.875  12.362  0.00  0.00    +0.000 A 
ATOM      8  C   UNL     1       7.605   4.707  13.191  0.00  0.00    +0.000 A 
ATOM      9  C   UNL     1       7.152   5.084  14.461  0.00  0.00    +0.000 A 
ATOM     10  C   UNL     1       5.900   4.668  14.912  0.00  0.00    +0.000 A 
ATOM     11  C   UNL     1       5.088   3.934  14.037  0.00  0.00    +0.000 A 
ATOM     12  C   UNL     1       5.535   3.535  12.761  0.00  0.00    +0.000 A 
BRANCH   7  14
ATOM     13  C   UNL     1       7.468   2.003  11.066  0.00  0.00    +0.000 C 
ATOM     14  O   UNL     1       7.333   3.422  11.167  0.00  0.00    +0.000 OA
ENDBRANCH   7  14
BRANCH  12  15
ATOM     15  O   UNL     1       4.585   2.814  12.087  0.00  0.00    +0.000 OA
ATOM     16  C   UNL     1       3.930   3.393  10.970  0.00  0.00    +0.000 C 
ENDBRANCH  12  15
ENDBRANCH   6  10
ENDBRANCH   5   6
ENDBRANCH   1   5
BRANCH   2  17
ATOM     17  C   UNL     1       3.628   2.903  19.689  0.00  0.00    +0.000 C 
BRANCH  17  18
ATOM     18  C   UNL     1       2.794   4.065  20.177  0.00  0.00    +0.000 C 
ATOM     19  C   UNL     1       1.396   3.786  20.684  0.00  0.00    +0.000 C 
ATOM     20  N   UNL     1       3.314   5.255  20.089  0.00  0.00    +0.000 NA
BRANCH  20  21
ATOM     21  N   UNL     1       2.568   6.316  20.507  0.00  0.00    +0.000 N 
ATOM     22  C   UNL     1       2.170   7.295  19.614  0.00  0.00    +0.000 C 
ATOM     23  O   UNL     1       2.377   7.268  18.406  0.00  0.00    +0.000 OA
ATOM     24  H   UNL     1       2.364   6.425  21.493  0.00  0.00    +0.000 HD
BRANCH  22  25
ATOM     25  C   UNL     1       1.384   8.432  20.186  0.00  0.00    +0.000 A 
ATOM     26  C   UNL     1       0.801   8.209  21.449  0.00  0.00    +0.000 A 
ATOM     27  C   UNL     1       0.030   9.195  22.068  0.00  0.00    +0.000 A 
ATOM     28  C   UNL     1      -0.172  10.415  21.431  0.00  0.00    +0.000 A 
ATOM     29 CL   UNL     1      -1.138  11.625  22.177  0.00  0.00    +0.000 Cl
ATOM     30  C   UNL     1       0.395  10.658  20.183  0.00  0.00    +0.000 A 
ATOM     31  C   UNL     1       1.169   9.671  19.558  0.00  0.00    +0.000 A 
ATOM     32 CL   UNL     1       1.786  10.082  17.994  0.00  0.00    +0.000 Cl
ENDBRANCH  22  25
ENDBRANCH  20  21
ENDBRANCH  17  18
ENDBRANCH   2  17
TORSDOF 9
ENDMDL
