MODEL 1
REMARK VINA RESULT:      -6.9      0.000      0.000
REMARK  Name = 
REMARK  2 active torsions:
REMARK  status: ('A' for Active; 'I' for Inactive)
REMARK    1  A    between atoms: C_1  and  C_2
REMARK    2  A    between atoms: C_2  and  C_3
REMARK                            x       y       z     vdW  Elec       q    Type
REMARK                         _______ _______ _______ _____ _____    ______ ____
ROOT
ATOM      1  C   UNL     1       1.906  12.387  18.380  0.00  0.00    +0.000 C 
ATOM      2  C   UNL     1       0.951  11.446  19.139  0.00  0.00    +0.000 C 
ATOM      3  C   UNL     1      -0.390  11.442  18.391  0.00  0.00    +0.000 C 
ATOM      4  C   UNL     1       1.432   9.963  19.086  0.00  0.00    +0.000 A 
ATOM      5  C   UNL     1       2.016   9.381  17.948  0.00  0.00    +0.000 A 
ATOM      6  C   UNL     1       2.434   8.043  17.951  0.00  0.00    +0.000 A 
ATOM      7  C   UNL     1       2.327   7.272  19.103  0.00  0.00    +0.000 A 
ATOM      8  C   UNL     1       1.707   7.814  20.217  0.00  0.00    +0.000 A 
ATOM      9  C   UNL     1       1.204   9.125  20.194  0.00  0.00    +0.000 A 
ATOM     10  N   UNL     1       0.291   9.470  21.190  0.00  0.00    +0.000 N 
ATOM     11  C   UNL     1       0.050  10.884  21.413  0.00  0.00    +0.000 C 
ATOM     12  C   UNL     1      -1.444  11.307  21.561  0.00  0.00    +0.000 C 
ATOM     13  C   UNL     1      -2.365  12.240  20.634  0.00  0.00    +0.000 C 
ATOM     14  C   UNL     1      -3.435  13.042  21.432  0.00  0.00    +0.000 A 
ATOM     15  C   UNL     1      -4.164  14.118  20.917  0.00  0.00    +0.000 A 
ATOM     16  C   UNL     1      -5.053  14.840  21.740  0.00  0.00    +0.000 A 
ATOM     17  C   UNL     1      -5.281  14.446  23.066  0.00  0.00    +0.000 A 
ATOM     18  C   UNL     1      -4.550  13.408  23.591  0.00  0.00    +0.000 A 
ATOM     19  C   UNL     1      -3.551  12.806  22.817  0.00  0.00    +0.000 A 
ATOM     20  C   UNL     1      -2.481  12.042  23.520  0.00  0.00    +0.000 C 
ATOM     21  N   UNL     1      -1.229  12.087  22.783  0.00  0.00    +0.000 NA
ATOM     22  C   UNL     1      -0.563  13.370  22.421  0.00  0.00    +0.000 C 
ATOM     23  C   UNL     1       0.561  13.277  21.259  0.00  0.00    +0.000 C 
ATOM     24  C   UNL     1       0.906  11.859  20.666  0.00  0.00    +0.000 C 
ATOM     25  H   UNL     1       0.534   9.006  22.067  0.00  0.00    +0.000 HD
ENDROOT
TORSDOF 0
ENDMDL
MODEL 2
REMARK VINA RESULT:      -6.6      1.977      7.237
REMARK  Name = 
REMARK  2 active torsions:
REMARK  status: ('A' for Active; 'I' for Inactive)
REMARK    1  A    between atoms: C_1  and  C_2
REMARK    2  A    between atoms: C_2  and  C_3
REMARK                            x       y       z     vdW  Elec       q    Type
REMARK                         _______ _______ _______ _____ _____    ______ ____
ROOT
ATOM      1  C   UNL     1      -4.638  12.631  24.259  0.00  0.00    +0.000 C 
ATOM      2  C   UNL     1      -3.551  13.408  23.493  0.00  0.00    +0.000 C 
ATOM      3  C   UNL     1      -4.042  13.596  22.050  0.00  0.00    +0.000 C 
ATOM      4  C   UNL     1      -3.378  14.858  24.039  0.00  0.00    +0.000 A 
ATOM      5  C   UNL     1      -4.454  15.657  24.461  0.00  0.00    +0.000 A 
ATOM      6  C   UNL     1      -4.247  16.956  24.947  0.00  0.00    +0.000 A 
ATOM      7  C   UNL     1      -2.960  17.467  25.070  0.00  0.00    +0.000 A 
ATOM      8  C   UNL     1      -1.892  16.713  24.610  0.00  0.00    +0.000 A 
ATOM      9  C   UNL     1      -2.100  15.447  24.039  0.00  0.00    +0.000 A 
ATOM     10  N   UNL     1      -1.055  14.916  23.282  0.00  0.00    +0.000 N 
ATOM     11  C   UNL     1      -1.090  13.492  23.004  0.00  0.00    +0.000 C 
ATOM     12  C   UNL     1      -0.781  13.076  21.533  0.00  0.00    +0.000 C 
ATOM     13  C   UNL     1      -1.710  12.379  20.424  0.00  0.00    +0.000 C 
ATOM     14  C   UNL     1      -0.924  11.446  19.456  0.00  0.00    +0.000 A 
ATOM     15  C   UNL     1      -1.518  10.518  18.595  0.00  0.00    +0.000 A 
ATOM     16  C   UNL     1      -0.722   9.655  17.814  0.00  0.00    +0.000 A 
ATOM     17  C   UNL     1       0.675   9.763  17.825  0.00  0.00    +0.000 A 
ATOM     18  C   UNL     1       1.271  10.652  18.688  0.00  0.00    +0.000 A 
ATOM     19  C   UNL     1       0.479  11.385  19.578  0.00  0.00    +0.000 A 
ATOM     20  C   UNL     1       1.133  11.962  20.788  0.00  0.00    +0.000 C 
ATOM     21  N   UNL     1       0.200  12.050  21.900  0.00  0.00    +0.000 NA
ATOM     22  C   UNL     1      -0.527  10.861  22.428  0.00  0.00    +0.000 C 
ATOM     23  C   UNL     1      -1.819  11.177  23.352  0.00  0.00    +0.000 C 
ATOM     24  C   UNL     1      -2.156  12.681  23.673  0.00  0.00    +0.000 C 
ATOM     25  H   UNL     1      -0.156  15.179  23.689  0.00  0.00    +0.000 HD
ENDROOT
TORSDOF 0
ENDMDL
MODEL 3
REMARK VINA RESULT:      -6.5      2.571      3.969
REMARK  Name = 
REMARK  2 active torsions:
REMARK  status: ('A' for Active; 'I' for Inactive)
REMARK    1  A    between atoms: C_1  and  C_2
REMARK    2  A    between atoms: C_2  and  C_3
REMARK                            x       y       z     vdW  Elec       q    Type
REMARK                         _______ _______ _______ _____ _____    ______ ____
ROOT
ATOM      1  C   UNL     1      -0.570   8.595  21.568  0.00  0.00    +0.000 C 
ATOM      2  C   UNL     1       0.374   9.486  20.738  0.00  0.00    +0.000 C 
ATOM      3  C   UNL     1       1.330  10.187  21.714  0.00  0.00    +0.000 C 
ATOM      4  C   UNL     1       1.306   8.645  19.814  0.00  0.00    +0.000 A 
ATOM      5  C   UNL     1       1.879   7.421  20.203  0.00  0.00    +0.000 A 
ATOM      6  C   UNL     1       2.710   6.700  19.335  0.00  0.00    +0.000 A 
ATOM      7  C   UNL     1       2.947   7.157  18.043  0.00  0.00    +0.000 A 
ATOM      8  C   UNL     1       2.433   8.385  17.661  0.00  0.00    +0.000 A 
ATOM      9  C   UNL     1       1.674   9.156  18.555  0.00  0.00    +0.000 A 
ATOM     10  N   UNL     1       1.506  10.505  18.243  0.00  0.00    +0.000 N 
ATOM     11  C   UNL     1       0.442  11.220  18.925  0.00  0.00    +0.000 C 
ATOM     12  C   UNL     1       0.817  12.626  19.486  0.00  0.00    +0.000 C 
ATOM     13  C   UNL     1       0.893  13.164  20.998  0.00  0.00    +0.000 C 
ATOM     14  C   UNL     1       0.520  14.669  21.139  0.00  0.00    +0.000 A 
ATOM     15  C   UNL     1       0.237  15.304  22.353  0.00  0.00    +0.000 A 
ATOM     16  C   UNL     1      -0.174  16.652  22.376  0.00  0.00    +0.000 A 
ATOM     17  C   UNL     1      -0.234  17.404  21.194  0.00  0.00    +0.000 A 
ATOM     18  C   UNL     1       0.014  16.783  19.993  0.00  0.00    +0.000 A 
ATOM     19  C   UNL     1       0.259  15.406  19.966  0.00  0.00    +0.000 A 
ATOM     20  C   UNL     1       0.057  14.681  18.678  0.00  0.00    +0.000 C 
ATOM     21  N   UNL     1      -0.346  13.303  18.906  0.00  0.00    +0.000 NA
ATOM     22  C   UNL     1      -1.554  12.947  19.702  0.00  0.00    +0.000 C 
ATOM     23  C   UNL     1      -1.629  11.414  20.222  0.00  0.00    +0.000 C 
ATOM     24  C   UNL     1      -0.482  10.425  19.793  0.00  0.00    +0.000 C 
ATOM     25  H   UNL     1       1.425  10.624  17.231  0.00  0.00    +0.000 HD
ENDROOT
TORSDOF 0
ENDMDL
MODEL 4
REMARK VINA RESULT:      -6.3      1.550      2.543
REMARK  Name = 
REMARK  2 active torsions:
REMARK  status: ('A' for Active; 'I' for Inactive)
REMARK    1  A    between atoms: C_1  and  C_2
REMARK    2  A    between atoms: C_2  and  C_3
REMARK                            x       y       z     vdW  Elec       q    Type
REMARK                         _______ _______ _______ _____ _____    ______ ____
ROOT
ATOM      1  C   UNL     1       0.025  12.933  19.226  0.00  0.00    +0.000 C 
ATOM      2  C   UNL     1      -0.812  12.189  20.283  0.00  0.00    +0.000 C 
ATOM      3  C   UNL     1      -2.102  11.710  19.602  0.00  0.00    +0.000 C 
ATOM      4  C   UNL     1      -0.114  10.880  20.762  0.00  0.00    +0.000 A 
ATOM      5  C   UNL     1       0.601  10.027  19.904  0.00  0.00    +0.000 A 
ATOM      6  C   UNL     1       1.214   8.861  20.383  0.00  0.00    +0.000 A 
ATOM      7  C   UNL     1       1.170   8.546  21.737  0.00  0.00    +0.000 A 
ATOM      8  C   UNL     1       0.426   9.347  22.588  0.00  0.00    +0.000 A 
ATOM      9  C   UNL     1      -0.265  10.467  22.100  0.00  0.00    +0.000 A 
ATOM     10  N   UNL     1      -1.264  10.998  22.915  0.00  0.00    +0.000 N 
ATOM     11  C   UNL     1      -1.723  12.343  22.617  0.00  0.00    +0.000 C 
ATOM     12  C   UNL     1      -3.268  12.553  22.620  0.00  0.00    +0.000 C 
ATOM     13  C   UNL     1      -4.274  12.938  21.429  0.00  0.00    +0.000 C 
ATOM     14  C   UNL     1      -5.488  13.796  21.897  0.00  0.00    +0.000 A 
ATOM     15  C   UNL     1      -6.345  14.490  21.037  0.00  0.00    +0.000 A 
ATOM     16  C   UNL     1      -7.368  15.310  21.556  0.00  0.00    +0.000 A 
ATOM     17  C   UNL     1      -7.595  15.386  22.936  0.00  0.00    +0.000 A 
ATOM     18  C   UNL     1      -6.742  14.731  23.792  0.00  0.00    +0.000 A 
ATOM     19  C   UNL     1      -5.631  14.055  23.275  0.00  0.00    +0.000 A 
ATOM     20  C   UNL     1      -4.492  13.769  24.195  0.00  0.00    +0.000 C 
ATOM     21  N   UNL     1      -3.228  13.742  23.476  0.00  0.00    +0.000 NA
ATOM     22  C   UNL     1      -2.745  14.898  22.669  0.00  0.00    +0.000 C 
ATOM     23  C   UNL     1      -1.567  14.571  21.606  0.00  0.00    +0.000 C 
ATOM     24  C   UNL     1      -0.988  13.108  21.560  0.00  0.00    +0.000 C 
ATOM     25  H   UNL     1      -0.995  10.922  23.897  0.00  0.00    +0.000 HD
ENDROOT
TORSDOF 0
ENDMDL
MODEL 5
REMARK VINA RESULT:      -6.3      2.700      4.607
REMARK  Name = 
REMARK  2 active torsions:
REMARK  status: ('A' for Active; 'I' for Inactive)
REMARK    1  A    between atoms: C_1  and  C_2
REMARK    2  A    between atoms: C_2  and  C_3
REMARK                            x       y       z     vdW  Elec       q    Type
REMARK                         _______ _______ _______ _____ _____    ______ ____
ROOT
ATOM      1  C   UNL     1       0.183   9.833  19.987  0.00  0.00    +0.000 C 
ATOM      2  C   UNL     1      -0.572  11.133  19.654  0.00  0.00    +0.000 C 
ATOM      3  C   UNL     1       0.437  12.111  19.034  0.00  0.00    +0.000 C 
ATOM      4  C   UNL     1      -1.641  10.917  18.539  0.00  0.00    +0.000 A 
ATOM      5  C   UNL     1      -1.440  10.078  17.429  0.00  0.00    +0.000 A 
ATOM      6  C   UNL     1      -2.434   9.914  16.454  0.00  0.00    +0.000 A 
ATOM      7  C   UNL     1      -3.667  10.542  16.590  0.00  0.00    +0.000 A 
ATOM      8  C   UNL     1      -3.863  11.412  17.651  0.00  0.00    +0.000 A 
ATOM      9  C   UNL     1      -2.841  11.651  18.583  0.00  0.00    +0.000 A 
ATOM     10  N   UNL     1      -2.970  12.784  19.387  0.00  0.00    +0.000 N 
ATOM     11  C   UNL     1      -2.150  12.850  20.583  0.00  0.00    +0.000 C 
ATOM     12  C   UNL     1      -1.433  14.209  20.845  0.00  0.00    +0.000 C 
ATOM     13  C   UNL     1       0.129  14.582  20.869  0.00  0.00    +0.000 C 
ATOM     14  C   UNL     1       0.479  15.715  21.879  0.00  0.00    +0.000 A 
ATOM     15  C   UNL     1       1.777  16.030  22.295  0.00  0.00    +0.000 A 
ATOM     16  C   UNL     1       1.992  17.018  23.279  0.00  0.00    +0.000 A 
ATOM     17  C   UNL     1       0.921  17.755  23.801  0.00  0.00    +0.000 A 
ATOM     18  C   UNL     1      -0.361  17.434  23.420  0.00  0.00    +0.000 A 
ATOM     19  C   UNL     1      -0.576  16.343  22.571  0.00  0.00    +0.000 A 
ATOM     20  C   UNL     1      -1.934  15.727  22.548  0.00  0.00    +0.000 C 
ATOM     21  N   UNL     1      -1.864  14.308  22.242  0.00  0.00    +0.000 NA
ATOM     22  C   UNL     1      -1.060  13.355  23.059  0.00  0.00    +0.000 C 
ATOM     23  C   UNL     1      -0.738  11.928  22.362  0.00  0.00    +0.000 C 
ATOM     24  C   UNL     1      -1.346  11.638  20.939  0.00  0.00    +0.000 C 
ATOM     25  H   UNL     1      -3.953  12.941  19.618  0.00  0.00    +0.000 HD
ENDROOT
TORSDOF 0
ENDMDL
MODEL 6
REMARK VINA RESULT:      -6.2      1.377      7.079
REMARK  Name = 
REMARK  2 active torsions:
REMARK  status: ('A' for Active; 'I' for Inactive)
REMARK    1  A    between atoms: C_1  and  C_2
REMARK    2  A    between atoms: C_2  and  C_3
REMARK                            x       y       z     vdW  Elec       q    Type
REMARK                         _______ _______ _______ _____ _____    ______ ____
ROOT
ATOM      1  C   UNL     1      -1.313  14.094  23.825  0.00  0.00    +0.000 C 
ATOM      2  C   UNL     1      -1.961  13.350  22.643  0.00  0.00    +0.000 C 
ATOM      3  C   UNL     1      -2.155  11.886  23.065  0.00  0.00    +0.000 C 
ATOM      4  C   UNL     1      -3.402  13.866  22.349  0.00  0.00    +0.000 A 
ATOM      5  C   UNL     1      -4.312  14.230  23.356  0.00  0.00    +0.000 A 
ATOM      6  C   UNL     1      -5.598  14.691  23.041  0.00  0.00    +0.000 A 
ATOM      7  C   UNL     1      -5.986  14.848  21.715  0.00  0.00    +0.000 A 
ATOM      8  C   UNL     1      -5.121  14.446  20.711  0.00  0.00    +0.000 A 
ATOM      9  C   UNL     1      -3.866  13.899  21.020  0.00  0.00    +0.000 A 
ATOM     10  N   UNL     1      -3.217  13.193  20.007  0.00  0.00    +0.000 N 
ATOM     11  C   UNL     1      -1.795  12.948  20.171  0.00  0.00    +0.000 C 
ATOM     12  C   UNL     1      -1.311  11.500  19.854  0.00  0.00    +0.000 C 
ATOM     13  C   UNL     1      -0.676  10.376  20.808  0.00  0.00    +0.000 C 
ATOM     14  C   UNL     1       0.354   9.459  20.084  0.00  0.00    +0.000 A 
ATOM     15  C   UNL     1       1.245   8.600  20.736  0.00  0.00    +0.000 A 
ATOM     16  C   UNL     1       2.201   7.869  20.001  0.00  0.00    +0.000 A 
ATOM     17  C   UNL     1       2.227   7.928  18.601  0.00  0.00    +0.000 A 
ATOM     18  C   UNL     1       1.376   8.790  17.951  0.00  0.00    +0.000 A 
ATOM     19  C   UNL     1       0.546   9.633  18.698  0.00  0.00    +0.000 A 
ATOM     20  C   UNL     1       0.001  10.852  18.033  0.00  0.00    +0.000 C 
ATOM     21  N   UNL     1      -0.207  11.927  18.990  0.00  0.00    +0.000 NA
ATOM     22  C   UNL     1       0.893  12.456  19.845  0.00  0.00    +0.000 C 
ATOM     23  C   UNL     1       0.429  13.325  21.131  0.00  0.00    +0.000 C 
ATOM     24  C   UNL     1      -1.109  13.598  21.332  0.00  0.00    +0.000 C 
ATOM     25  H   UNL     1      -3.403  13.626  19.101  0.00  0.00    +0.000 HD
ENDROOT
TORSDOF 0
ENDMDL
MODEL 7
REMARK VINA RESULT:      -6.1      7.663     10.359
REMARK  Name = 
REMARK  2 active torsions:
REMARK  status: ('A' for Active; 'I' for Inactive)
REMARK    1  A    between atoms: C_1  and  C_2
REMARK    2  A    between atoms: C_2  and  C_3
REMARK                            x       y       z     vdW  Elec       q    Type
REMARK                         _______ _______ _______ _____ _____    ______ ____
ROOT
ATOM      1  C   UNL     1       7.834   6.549  16.317  0.00  0.00    +0.000 C 
ATOM      2  C   UNL     1       6.668   5.662  15.843  0.00  0.00    +0.000 C 
ATOM      3  C   UNL     1       5.420   6.550  15.739  0.00  0.00    +0.000 C 
ATOM      4  C   UNL     1       6.891   5.131  14.394  0.00  0.00    +0.000 A 
ATOM      5  C   UNL     1       7.469   5.901  13.371  0.00  0.00    +0.000 A 
ATOM      6  C   UNL     1       7.651   5.379  12.083  0.00  0.00    +0.000 A 
ATOM      7  C   UNL     1       7.309   4.060  11.801  0.00  0.00    +0.000 A 
ATOM      8  C   UNL     1       6.691   3.304  12.784  0.00  0.00    +0.000 A 
ATOM      9  C   UNL     1       6.423   3.849  14.049  0.00  0.00    +0.000 A 
ATOM     10  N   UNL     1       5.494   3.178  14.844  0.00  0.00    +0.000 N 
ATOM     11  C   UNL     1       5.478   3.491  16.261  0.00  0.00    +0.000 C 
ATOM     12  C   UNL     1       4.072   3.718  16.894  0.00  0.00    +0.000 C 
ATOM     13  C   UNL     1       3.412   5.033  17.537  0.00  0.00    +0.000 C 
ATOM     14  C   UNL     1       2.425   4.725  18.702  0.00  0.00    +0.000 A 
ATOM     15  C   UNL     1       1.941   5.679  19.603  0.00  0.00    +0.000 A 
ATOM     16  C   UNL     1       1.117   5.293  20.680  0.00  0.00    +0.000 A 
ATOM     17  C   UNL     1       0.704   3.962  20.825  0.00  0.00    +0.000 A 
ATOM     18  C   UNL     1       1.196   3.011  19.963  0.00  0.00    +0.000 A 
ATOM     19  C   UNL     1       2.144   3.376  19.001  0.00  0.00    +0.000 A 
ATOM     20  C   UNL     1       2.999   2.304  18.414  0.00  0.00    +0.000 C 
ATOM     21  N   UNL     1       4.303   2.821  18.030  0.00  0.00    +0.000 NA
ATOM     22  C   UNL     1       5.208   3.500  19.000  0.00  0.00    +0.000 C 
ATOM     23  C   UNL     1       6.402   4.381  18.351  0.00  0.00    +0.000 C 
ATOM     24  C   UNL     1       6.553   4.393  16.783  0.00  0.00    +0.000 C 
ATOM     25  H   UNL     1       5.573   2.169  14.702  0.00  0.00    +0.000 HD
ENDROOT
TORSDOF 0
ENDMDL
MODEL 8
REMARK VINA RESULT:      -6.1      5.829      9.864
REMARK  Name = 
REMARK  2 active torsions:
REMARK  status: ('A' for Active; 'I' for Inactive)
REMARK    1  A    between atoms: C_1  and  C_2
REMARK    2  A    between atoms: C_2  and  C_3
REMARK                            x       y       z     vdW  Elec       q    Type
REMARK                         _______ _______ _______ _____ _____    ______ ____
ROOT
ATOM      1  C   UNL     1       2.221  13.400  20.608  0.00  0.00    +0.000 C 
ATOM      2  C   UNL     1       2.806  14.404  19.598  0.00  0.00    +0.000 C 
ATOM      3  C   UNL     1       3.144  13.631  18.316  0.00  0.00    +0.000 C 
ATOM      4  C   UNL     1       1.750  15.461  19.150  0.00  0.00    +0.000 A 
ATOM      5  C   UNL     1       0.398  15.153  18.924  0.00  0.00    +0.000 A 
ATOM      6  C   UNL     1      -0.515  16.139  18.523  0.00  0.00    +0.000 A 
ATOM      7  C   UNL     1      -0.109  17.462  18.389  0.00  0.00    +0.000 A 
ATOM      8  C   UNL     1       1.230  17.774  18.557  0.00  0.00    +0.000 A 
ATOM      9  C   UNL     1       2.166  16.776  18.870  0.00  0.00    +0.000 A 
ATOM     10  N   UNL     1       3.511  17.084  18.666  0.00  0.00    +0.000 N 
ATOM     11  C   UNL     1       4.496  16.239  19.318  0.00  0.00    +0.000 C 
ATOM     12  C   UNL     1       5.698  15.785  18.434  0.00  0.00    +0.000 C 
ATOM     13  C   UNL     1       6.134  14.324  17.930  0.00  0.00    +0.000 C 
ATOM     14  C   UNL     1       7.675  14.153  17.788  0.00  0.00    +0.000 A 
ATOM     15  C   UNL     1       8.324  12.922  17.642  0.00  0.00    +0.000 A 
ATOM     16  C   UNL     1       9.732  12.857  17.606  0.00  0.00    +0.000 A 
ATOM     17  C   UNL     1      10.506  14.025  17.638  0.00  0.00    +0.000 A 
ATOM     18  C   UNL     1       9.880  15.237  17.810  0.00  0.00    +0.000 A 
ATOM     19  C   UNL     1       8.496  15.277  18.012  0.00  0.00    +0.000 A 
ATOM     20  C   UNL     1       7.914  16.491  18.652  0.00  0.00    +0.000 C 
ATOM     21  N   UNL     1       6.719  16.164  19.414  0.00  0.00    +0.000 NA
ATOM     22  C   UNL     1       6.726  15.157  20.513  0.00  0.00    +0.000 C 
ATOM     23  C   UNL     1       5.274  14.599  20.965  0.00  0.00    +0.000 C 
ATOM     24  C   UNL     1       3.994  15.202  20.274  0.00  0.00    +0.000 C 
ATOM     25  H   UNL     1       3.684  18.067  18.882  0.00  0.00    +0.000 HD
ENDROOT
TORSDOF 0
ENDMDL
MODEL 9
REMARK VINA RESULT:      -6.1      2.768      6.273
REMARK  Name = 
REMARK  2 active torsions:
REMARK  status: ('A' for Active; 'I' for Inactive)
REMARK    1  A    between atoms: C_1  and  C_2
REMARK    2  A    between atoms: C_2  and  C_3
REMARK                            x       y       z     vdW  Elec       q    Type
REMARK                         _______ _______ _______ _____ _____    ______ ____
ROOT
ATOM      1  C   UNL     1      -2.353   9.576  17.806  0.00  0.00    +0.000 C 
ATOM      2  C   UNL     1      -2.457  11.040  18.273  0.00  0.00    +0.000 C 
ATOM      3  C   UNL     1      -1.960  11.930  17.125  0.00  0.00    +0.000 C 
ATOM      4  C   UNL     1      -3.938  11.477  18.493  0.00  0.00    +0.000 A 
ATOM      5  C   UNL     1      -4.994  11.072  17.660  0.00  0.00    +0.000 A 
ATOM      6  C   UNL     1      -6.310  11.491  17.900  0.00  0.00    +0.000 A 
ATOM      7  C   UNL     1      -6.609  12.281  19.005  0.00  0.00    +0.000 A 
ATOM      8  C   UNL     1      -5.573  12.731  19.807  0.00  0.00    +0.000 A 
ATOM      9  C   UNL     1      -4.242  12.390  19.521  0.00  0.00    +0.000 A 
ATOM     10  N   UNL     1      -3.247  13.156  20.129  0.00  0.00    +0.000 N 
ATOM     11  C   UNL     1      -1.903  12.607  20.154  0.00  0.00    +0.000 C 
ATOM     12  C   UNL     1      -0.757  13.590  19.766  0.00  0.00    +0.000 C 
ATOM     13  C   UNL     1       0.255  13.579  18.519  0.00  0.00    +0.000 C 
ATOM     14  C   UNL     1       1.657  14.167  18.855  0.00  0.00    +0.000 A 
ATOM     15  C   UNL     1       2.791  14.020  18.048  0.00  0.00    +0.000 A 
ATOM     16  C   UNL     1       4.040  14.515  18.474  0.00  0.00    +0.000 A 
ATOM     17  C   UNL     1       4.157  15.230  19.674  0.00  0.00    +0.000 A 
ATOM     18  C   UNL     1       3.057  15.355  20.488  0.00  0.00    +0.000 A 
ATOM     19  C   UNL     1       1.862  14.718  20.136  0.00  0.00    +0.000 A 
ATOM     20  C   UNL     1       0.858  14.463  21.209  0.00  0.00    +0.000 C 
ATOM     21  N   UNL     1       0.076  13.270  20.928  0.00  0.00    +0.000 NA
ATOM     22  C   UNL     1       0.706  11.937  20.713  0.00  0.00    +0.000 C 
ATOM     23  C   UNL     1      -0.229  10.823  20.000  0.00  0.00    +0.000 C 
ATOM     24  C   UNL     1      -1.719  11.204  19.663  0.00  0.00    +0.000 C 
ATOM     25  H   UNL     1      -3.539  13.430  21.068  0.00  0.00    +0.000 HD
ENDROOT
TORSDOF 0
ENDMDL
