MODEL 1
REMARK VINA RESULT:      -7.8      0.000      0.000
REMARK  Name = 
REMARK  11 active torsions:
REMARK  status: ('A' for Active; 'I' for Inactive)
REMARK    1  A    between atoms: C_1  and  C_2
REMARK    2  A    between atoms: C_2  and  C_3
REMARK    3  A    between atoms: C_2  and  C_4
REMARK    4  A    between atoms: C_2  and  N_5
REMARK    5  A    between atoms: N_8  and  C_9
REMARK    6  A    between atoms: C_9  and  N_11
REMARK    7  A    between atoms: C_12  and  C_14
REMARK    8  A    between atoms: C_15  and  C_16
REMARK    9  A    between atoms: C_17  and  C_19
REMARK   10  A    between atoms: C_23  and  C_24
REMARK   11  A    between atoms: C_23  and  C_25
REMARK                            x       y       z     vdW  Elec       q    Type
REMARK                         _______ _______ _______ _____ _____    ______ ____
ROOT
ATOM      1  N   UNL     1       5.625   4.840  18.166  0.00  0.00    +0.000 N 
ATOM      2  C   UNL     1       4.586   3.947  18.181  0.00  0.00    +0.000 C 
ATOM      3  O   UNL     1       4.304   3.255  17.203  0.00  0.00    +0.000 OA
ATOM      4  H   UNL     1       5.706   5.494  18.929  0.00  0.00    +0.000 HD
ENDROOT
BRANCH   2   5
ATOM      5  C   UNL     1       3.714   3.867  19.385  0.00  0.00    +0.000 C 
ATOM      6  C   UNL     1       3.118   5.152  19.932  0.00  0.00    +0.000 C 
ATOM      7  C   UNL     1       2.219   3.951  19.674  0.00  0.00    +0.000 C 
ATOM      8  C   UNL     1       1.155   3.957  18.602  0.00  0.00    +0.000 C 
ATOM      9  C   UNL     1       1.713   3.264  20.936  0.00  0.00    +0.000 C 
BRANCH   6  10
ATOM     10  C   UNL     1       2.879   6.387  19.164  0.00  0.00    +0.000 C 
ATOM     11  C   UNL     1       2.136   7.464  19.487  0.00  0.00    +0.000 C 
ATOM     12 CL   UNL     1       1.370   7.609  21.032  0.00  0.00    +0.000 Cl
BRANCH  11  13
ATOM     13  C   UNL     1       1.839   8.568  18.508  0.00  0.00    +0.000 C 
ATOM     14  F   UNL     1       2.943   9.186  18.019  0.00  0.00    +0.000 F 
ATOM     15  F   UNL     1       1.136   8.114  17.437  0.00  0.00    +0.000 F 
ATOM     16  F   UNL     1       1.077   9.534  19.087  0.00  0.00    +0.000 F 
ENDBRANCH  11  13
ENDBRANCH   6  10
ENDBRANCH   2   5
BRANCH   1  17
ATOM     17  C   UNL     1       6.538   5.071  17.156  0.00  0.00    +0.000 C 
ATOM     18  S   UNL     1       7.461   6.457  17.365  0.00  0.00    +0.000 S 
BRANCH  17  22
ATOM     19  N   UNL     1       6.370   3.286  13.970  0.00  0.00    +0.000 N 
ATOM     20  C   UNL     1       6.348   4.407  14.782  0.00  0.00    +0.000 C 
ATOM     21  O   UNL     1       6.177   5.526  14.328  0.00  0.00    +0.000 OA
ATOM     22  N   UNL     1       6.588   4.146  16.124  0.00  0.00    +0.000 N 
ATOM     23  H   UNL     1       6.628   2.393  14.359  0.00  0.00    +0.000 HD
ATOM     24  H   UNL     1       6.855   3.204  16.382  0.00  0.00    +0.000 HD
BRANCH  19  26
ATOM     25  C   UNL     1       7.220   4.386  11.899  0.00  0.00    +0.000 C 
ATOM     26  C   UNL     1       6.200   3.396  12.495  0.00  0.00    +0.000 C 
ATOM     27  C   UNL     1       4.764   3.834  12.137  0.00  0.00    +0.000 C 
ATOM     28  C   UNL     1       6.442   2.031  11.819  0.00  0.00    +0.000 C 
ENDBRANCH  19  26
ENDBRANCH  17  22
ENDBRANCH   1  17
TORSDOF 6
ENDMDL
MODEL 2
REMARK VINA RESULT:      -7.7      2.886      3.740
REMARK  Name = 
REMARK  11 active torsions:
REMARK  status: ('A' for Active; 'I' for Inactive)
REMARK    1  A    between atoms: C_1  and  C_2
REMARK    2  A    between atoms: C_2  and  C_3
REMARK    3  A    between atoms: C_2  and  C_4
REMARK    4  A    between atoms: C_2  and  N_5
REMARK    5  A    between atoms: N_8  and  C_9
REMARK    6  A    between atoms: C_9  and  N_11
REMARK    7  A    between atoms: C_12  and  C_14
REMARK    8  A    between atoms: C_15  and  C_16
REMARK    9  A    between atoms: C_17  and  C_19
REMARK   10  A    between atoms: C_23  and  C_24
REMARK   11  A    between atoms: C_23  and  C_25
REMARK                            x       y       z     vdW  Elec       q    Type
REMARK                         _______ _______ _______ _____ _____    ______ ____
ROOT
ATOM      1  N   UNL     1       5.354   5.687  17.085  0.00  0.00    +0.000 N 
ATOM      2  C   UNL     1       4.573   5.998  18.167  0.00  0.00    +0.000 C 
ATOM      3  O   UNL     1       4.784   5.525  19.284  0.00  0.00    +0.000 OA
ATOM      4  H   UNL     1       5.038   5.969  16.169  0.00  0.00    +0.000 HD
ENDROOT
BRANCH   2   5
ATOM      5  C   UNL     1       3.381   6.868  17.977  0.00  0.00    +0.000 C 
ATOM      6  C   UNL     1       2.005   6.227  18.013  0.00  0.00    +0.000 C 
ATOM      7  C   UNL     1       2.289   7.457  18.864  0.00  0.00    +0.000 C 
ATOM      8  C   UNL     1       2.314   7.403  20.374  0.00  0.00    +0.000 C 
ATOM      9  C   UNL     1       1.604   8.728  18.379  0.00  0.00    +0.000 C 
BRANCH   6  10
ATOM     10  C   UNL     1       1.659   4.967  18.692  0.00  0.00    +0.000 C 
ATOM     11  C   UNL     1       1.886   3.696  18.304  0.00  0.00    +0.000 C 
ATOM     12 CL   UNL     1       2.788   3.331  16.873  0.00  0.00    +0.000 Cl
BRANCH  11  13
ATOM     13  C   UNL     1       1.298   2.511  19.022  0.00  0.00    +0.000 C 
ATOM     14  F   UNL     1       0.077   2.137  18.566  0.00  0.00    +0.000 F 
ATOM     15  F   UNL     1       2.102   1.419  18.932  0.00  0.00    +0.000 F 
ATOM     16  F   UNL     1       1.154   2.774  20.349  0.00  0.00    +0.000 F 
ENDBRANCH  11  13
ENDBRANCH   6  10
ENDBRANCH   2   5
BRANCH   1  17
ATOM     17  C   UNL     1       6.488   4.900  17.047  0.00  0.00    +0.000 C 
ATOM     18  S   UNL     1       7.535   5.140  18.336  0.00  0.00    +0.000 S 
BRANCH  17  22
ATOM     19  N   UNL     1       6.487   3.237  13.792  0.00  0.00    +0.000 N 
ATOM     20  C   UNL     1       6.380   4.321  14.646  0.00  0.00    +0.000 C 
ATOM     21  O   UNL     1       6.146   5.444  14.233  0.00  0.00    +0.000 OA
ATOM     22  N   UNL     1       6.613   4.021  15.982  0.00  0.00    +0.000 N 
ATOM     23  H   UNL     1       6.795   2.347  14.151  0.00  0.00    +0.000 HD
ATOM     24  H   UNL     1       6.936   3.089  16.207  0.00  0.00    +0.000 HD
BRANCH  19  26
ATOM     25  C   UNL     1       7.189   4.570  11.804  0.00  0.00    +0.000 C 
ATOM     26  C   UNL     1       6.334   3.395  12.319  0.00  0.00    +0.000 C 
ATOM     27  C   UNL     1       4.854   3.607  11.938  0.00  0.00    +0.000 C 
ATOM     28  C   UNL     1       6.816   2.126  11.587  0.00  0.00    +0.000 C 
ENDBRANCH  19  26
ENDBRANCH  17  22
ENDBRANCH   1  17
TORSDOF 6
ENDMDL
MODEL 3
REMARK VINA RESULT:      -7.7      0.137      1.129
REMARK  Name = 
REMARK  11 active torsions:
REMARK  status: ('A' for Active; 'I' for Inactive)
REMARK    1  A    between atoms: C_1  and  C_2
REMARK    2  A    between atoms: C_2  and  C_3
REMARK    3  A    between atoms: C_2  and  C_4
REMARK    4  A    between atoms: C_2  and  N_5
REMARK    5  A    between atoms: N_8  and  C_9
REMARK    6  A    between atoms: C_9  and  N_11
REMARK    7  A    between atoms: C_12  and  C_14
REMARK    8  A    between atoms: C_15  and  C_16
REMARK    9  A    between atoms: C_17  and  C_19
REMARK   10  A    between atoms: C_23  and  C_24
REMARK   11  A    between atoms: C_23  and  C_25
REMARK                            x       y       z     vdW  Elec       q    Type
REMARK                         _______ _______ _______ _____ _____    ______ ____
ROOT
ATOM      1  N   UNL     1       5.595   4.748  18.174  0.00  0.00    +0.000 N 
ATOM      2  C   UNL     1       4.481   3.951  18.125  0.00  0.00    +0.000 C 
ATOM      3  O   UNL     1       4.146   3.358  17.100  0.00  0.00    +0.000 OA
ATOM      4  H   UNL     1       5.728   5.336  18.983  0.00  0.00    +0.000 HD
ENDROOT
BRANCH   2   5
ATOM      5  C   UNL     1       3.598   3.862  19.320  0.00  0.00    +0.000 C 
ATOM      6  C   UNL     1       2.968   5.138  19.849  0.00  0.00    +0.000 C 
ATOM      7  C   UNL     1       2.099   3.915  19.591  0.00  0.00    +0.000 C 
ATOM      8  C   UNL     1       1.047   3.888  18.508  0.00  0.00    +0.000 C 
ATOM      9  C   UNL     1       1.593   3.227  20.854  0.00  0.00    +0.000 C 
BRANCH   6  10
ATOM     10  C   UNL     1       2.710   6.360  19.069  0.00  0.00    +0.000 C 
ATOM     11  C   UNL     1       2.098   7.501  19.443  0.00  0.00    +0.000 C 
ATOM     12 CL   UNL     1       1.569   7.755  21.072  0.00  0.00    +0.000 Cl
BRANCH  11  13
ATOM     13  C   UNL     1       1.744   8.590  18.467  0.00  0.00    +0.000 C 
ATOM     14  F   UNL     1       1.177   8.143  17.320  0.00  0.00    +0.000 F 
ATOM     15  F   UNL     1       0.880   9.489  19.008  0.00  0.00    +0.000 F 
ATOM     16  F   UNL     1       2.852   9.292  18.105  0.00  0.00    +0.000 F 
ENDBRANCH  11  13
ENDBRANCH   6  10
ENDBRANCH   2   5
BRANCH   1  17
ATOM     17  C   UNL     1       6.532   4.970  17.184  0.00  0.00    +0.000 C 
ATOM     18  S   UNL     1       7.492   6.322  17.434  0.00  0.00    +0.000 S 
BRANCH  17  22
ATOM     19  N   UNL     1       6.363   3.249  13.963  0.00  0.00    +0.000 N 
ATOM     20  C   UNL     1       6.360   4.355  14.795  0.00  0.00    +0.000 C 
ATOM     21  O   UNL     1       6.229   5.487  14.360  0.00  0.00    +0.000 OA
ATOM     22  N   UNL     1       6.570   4.062  16.136  0.00  0.00    +0.000 N 
ATOM     23  H   UNL     1       6.588   2.341  14.339  0.00  0.00    +0.000 HD
ATOM     24  H   UNL     1       6.806   3.109  16.380  0.00  0.00    +0.000 HD
BRANCH  19  26
ATOM     25  C   UNL     1       6.502   2.051  11.780  0.00  0.00    +0.000 C 
ATOM     26  C   UNL     1       6.219   3.391  12.488  0.00  0.00    +0.000 C 
ATOM     27  C   UNL     1       7.159   4.487  11.945  0.00  0.00    +0.000 C 
ATOM     28  C   UNL     1       4.778   3.804  12.122  0.00  0.00    +0.000 C 
ENDBRANCH  19  26
ENDBRANCH  17  22
ENDBRANCH   1  17
TORSDOF 6
ENDMDL
MODEL 4
REMARK VINA RESULT:      -7.7      0.923      1.277
REMARK  Name = 
REMARK  11 active torsions:
REMARK  status: ('A' for Active; 'I' for Inactive)
REMARK    1  A    between atoms: C_1  and  C_2
REMARK    2  A    between atoms: C_2  and  C_3
REMARK    3  A    between atoms: C_2  and  C_4
REMARK    4  A    between atoms: C_2  and  N_5
REMARK    5  A    between atoms: N_8  and  C_9
REMARK    6  A    between atoms: C_9  and  N_11
REMARK    7  A    between atoms: C_12  and  C_14
REMARK    8  A    between atoms: C_15  and  C_16
REMARK    9  A    between atoms: C_17  and  C_19
REMARK   10  A    between atoms: C_23  and  C_24
REMARK   11  A    between atoms: C_23  and  C_25
REMARK                            x       y       z     vdW  Elec       q    Type
REMARK                         _______ _______ _______ _____ _____    ______ ____
ROOT
ATOM      1  N   UNL     1       4.776   4.761  17.770  0.00  0.00    +0.000 N 
ATOM      2  C   UNL     1       4.745   4.329  19.070  0.00  0.00    +0.000 C 
ATOM      3  O   UNL     1       5.761   3.971  19.666  0.00  0.00    +0.000 OA
ATOM      4  H   UNL     1       3.900   4.882  17.284  0.00  0.00    +0.000 HD
ENDROOT
BRANCH   2   5
ATOM      5  C   UNL     1       3.434   4.206  19.764  0.00  0.00    +0.000 C 
ATOM      6  C   UNL     1       2.552   5.438  19.866  0.00  0.00    +0.000 C 
ATOM      7  C   UNL     1       1.968   4.131  19.349  0.00  0.00    +0.000 C 
ATOM      8  C   UNL     1       1.506   3.965  17.921  0.00  0.00    +0.000 C 
ATOM      9  C   UNL     1       1.004   3.450  20.313  0.00  0.00    +0.000 C 
BRANCH   6  10
ATOM     10  C   UNL     1       2.586   6.600  18.961  0.00  0.00    +0.000 C 
ATOM     11  C   UNL     1       2.073   7.835  19.134  0.00  0.00    +0.000 C 
ATOM     12 CL   UNL     1       1.323   8.305  20.622  0.00  0.00    +0.000 Cl
BRANCH  11  13
ATOM     13  C   UNL     1       2.027   8.856  18.031  0.00  0.00    +0.000 C 
ATOM     14  F   UNL     1       2.463  10.087  18.398  0.00  0.00    +0.000 F 
ATOM     15  F   UNL     1       2.776   8.477  16.962  0.00  0.00    +0.000 F 
ATOM     16  F   UNL     1       0.756   9.015  17.573  0.00  0.00    +0.000 F 
ENDBRANCH  11  13
ENDBRANCH   6  10
ENDBRANCH   2   5
BRANCH   1  17
ATOM     17  C   UNL     1       5.876   4.938  16.955  0.00  0.00    +0.000 C 
ATOM     18  S   UNL     1       6.827   6.260  17.357  0.00  0.00    +0.000 S 
BRANCH  17  22
ATOM     19  N   UNL     1       6.145   3.166  13.768  0.00  0.00    +0.000 N 
ATOM     20  C   UNL     1       6.019   4.284  14.574  0.00  0.00    +0.000 C 
ATOM     21  O   UNL     1       5.924   5.406  14.107  0.00  0.00    +0.000 OA
ATOM     22  N   UNL     1       6.063   4.015  15.936  0.00  0.00    +0.000 N 
ATOM     23  H   UNL     1       6.337   2.268  14.186  0.00  0.00    +0.000 HD
ATOM     24  H   UNL     1       6.282   3.070  16.224  0.00  0.00    +0.000 HD
BRANCH  19  26
ATOM     25  C   UNL     1       6.621   1.950  11.643  0.00  0.00    +0.000 C 
ATOM     26  C   UNL     1       6.187   3.283  12.284  0.00  0.00    +0.000 C 
ATOM     27  C   UNL     1       7.137   4.417  11.847  0.00  0.00    +0.000 C 
ATOM     28  C   UNL     1       4.788   3.620  11.730  0.00  0.00    +0.000 C 
ENDBRANCH  19  26
ENDBRANCH  17  22
ENDBRANCH   1  17
TORSDOF 6
ENDMDL
MODEL 5
REMARK VINA RESULT:      -7.6      0.886      1.198
REMARK  Name = 
REMARK  11 active torsions:
REMARK  status: ('A' for Active; 'I' for Inactive)
REMARK    1  A    between atoms: C_1  and  C_2
REMARK    2  A    between atoms: C_2  and  C_3
REMARK    3  A    between atoms: C_2  and  C_4
REMARK    4  A    between atoms: C_2  and  N_5
REMARK    5  A    between atoms: N_8  and  C_9
REMARK    6  A    between atoms: C_9  and  N_11
REMARK    7  A    between atoms: C_12  and  C_14
REMARK    8  A    between atoms: C_15  and  C_16
REMARK    9  A    between atoms: C_17  and  C_19
REMARK   10  A    between atoms: C_23  and  C_24
REMARK   11  A    between atoms: C_23  and  C_25
REMARK                            x       y       z     vdW  Elec       q    Type
REMARK                         _______ _______ _______ _____ _____    ______ ____
ROOT
ATOM      1  N   UNL     1       4.946   4.674  17.746  0.00  0.00    +0.000 N 
ATOM      2  C   UNL     1       4.873   4.527  19.106  0.00  0.00    +0.000 C 
ATOM      3  O   UNL     1       5.874   4.546  19.821  0.00  0.00    +0.000 OA
ATOM      4  H   UNL     1       4.120   4.485  17.198  0.00  0.00    +0.000 HD
ENDROOT
BRANCH   2   5
ATOM      5  C   UNL     1       3.553   4.253  19.737  0.00  0.00    +0.000 C 
ATOM      6  C   UNL     1       2.581   5.407  19.912  0.00  0.00    +0.000 C 
ATOM      7  C   UNL     1       2.110   4.113  19.263  0.00  0.00    +0.000 C 
ATOM      8  C   UNL     1       1.706   4.042  17.810  0.00  0.00    +0.000 C 
ATOM      9  C   UNL     1       1.168   3.284  20.129  0.00  0.00    +0.000 C 
BRANCH   6  10
ATOM     10  C   UNL     1       2.558   6.643  19.112  0.00  0.00    +0.000 C 
ATOM     11  C   UNL     1       2.019   7.843  19.406  0.00  0.00    +0.000 C 
ATOM     12 CL   UNL     1       1.300   8.161  20.949  0.00  0.00    +0.000 Cl
BRANCH  11  13
ATOM     13  C   UNL     1       1.915   8.956  18.399  0.00  0.00    +0.000 C 
ATOM     14  F   UNL     1       0.878   8.824  17.534  0.00  0.00    +0.000 F 
ATOM     15  F   UNL     1       1.774  10.167  18.998  0.00  0.00    +0.000 F 
ATOM     16  F   UNL     1       3.043   9.029  17.643  0.00  0.00    +0.000 F 
ENDBRANCH  11  13
ENDBRANCH   6  10
ENDBRANCH   2   5
BRANCH   1  17
ATOM     17  C   UNL     1       6.062   4.925  16.972  0.00  0.00    +0.000 C 
ATOM     18  S   UNL     1       6.943   6.270  17.451  0.00  0.00    +0.000 S 
BRANCH  17  22
ATOM     19  N   UNL     1       6.379   3.236  13.746  0.00  0.00    +0.000 N 
ATOM     20  C   UNL     1       6.137   4.316  14.577  0.00  0.00    +0.000 C 
ATOM     21  O   UNL     1       5.836   5.412  14.136  0.00  0.00    +0.000 OA
ATOM     22  N   UNL     1       6.318   4.049  15.928  0.00  0.00    +0.000 N 
ATOM     23  H   UNL     1       6.737   2.377  14.134  0.00  0.00    +0.000 HD
ATOM     24  H   UNL     1       6.702   3.149  16.184  0.00  0.00    +0.000 HD
BRANCH  19  26
ATOM     25  C   UNL     1       7.198   4.514  11.766  0.00  0.00    +0.000 C 
ATOM     26  C   UNL     1       6.297   3.367  12.265  0.00  0.00    +0.000 C 
ATOM     27  C   UNL     1       4.841   3.601  11.812  0.00  0.00    +0.000 C 
ATOM     28  C   UNL     1       6.786   2.074  11.580  0.00  0.00    +0.000 C 
ENDBRANCH  19  26
ENDBRANCH  17  22
ENDBRANCH   1  17
TORSDOF 6
ENDMDL
MODEL 6
REMARK VINA RESULT:      -7.5      2.898      3.850
REMARK  Name = 
REMARK  11 active torsions:
REMARK  status: ('A' for Active; 'I' for Inactive)
REMARK    1  A    between atoms: C_1  and  C_2
REMARK    2  A    between atoms: C_2  and  C_3
REMARK    3  A    between atoms: C_2  and  C_4
REMARK    4  A    between atoms: C_2  and  N_5
REMARK    5  A    between atoms: N_8  and  C_9
REMARK    6  A    between atoms: C_9  and  N_11
REMARK    7  A    between atoms: C_12  and  C_14
REMARK    8  A    between atoms: C_15  and  C_16
REMARK    9  A    between atoms: C_17  and  C_19
REMARK   10  A    between atoms: C_23  and  C_24
REMARK   11  A    between atoms: C_23  and  C_25
REMARK                            x       y       z     vdW  Elec       q    Type
REMARK                         _______ _______ _______ _____ _____    ______ ____
ROOT
ATOM      1  N   UNL     1       5.322   5.700  17.106  0.00  0.00    +0.000 N 
ATOM      2  C   UNL     1       4.533   6.002  18.185  0.00  0.00    +0.000 C 
ATOM      3  O   UNL     1       4.732   5.517  19.298  0.00  0.00    +0.000 OA
ATOM      4  H   UNL     1       5.016   5.993  16.191  0.00  0.00    +0.000 HD
ENDROOT
BRANCH   2   5
ATOM      5  C   UNL     1       3.345   6.878  17.993  0.00  0.00    +0.000 C 
ATOM      6  C   UNL     1       1.966   6.243  18.022  0.00  0.00    +0.000 C 
ATOM      7  C   UNL     1       2.252   7.468  18.879  0.00  0.00    +0.000 C 
ATOM      8  C   UNL     1       2.271   7.409  20.387  0.00  0.00    +0.000 C 
ATOM      9  C   UNL     1       1.574   8.744  18.395  0.00  0.00    +0.000 C 
BRANCH   6  10
ATOM     10  C   UNL     1       1.612   4.981  18.695  0.00  0.00    +0.000 C 
ATOM     11  C   UNL     1       1.908   3.713  18.347  0.00  0.00    +0.000 C 
ATOM     12 CL   UNL     1       2.927   3.359  16.993  0.00  0.00    +0.000 Cl
BRANCH  11  13
ATOM     13  C   UNL     1       1.309   2.520  19.040  0.00  0.00    +0.000 C 
ATOM     14  F   UNL     1       1.121   2.690  20.372  0.00  0.00    +0.000 F 
ATOM     15  F   UNL     1       0.102   2.186  18.513  0.00  0.00    +0.000 F 
ATOM     16  F   UNL     1       2.106   1.428  18.897  0.00  0.00    +0.000 F 
ENDBRANCH  11  13
ENDBRANCH   6  10
ENDBRANCH   2   5
BRANCH   1  17
ATOM     17  C   UNL     1       6.454   4.910  17.071  0.00  0.00    +0.000 C 
ATOM     18  S   UNL     1       7.507   5.157  18.354  0.00  0.00    +0.000 S 
BRANCH  17  22
ATOM     19  N   UNL     1       6.450   3.226  13.826  0.00  0.00    +0.000 N 
ATOM     20  C   UNL     1       6.354   4.317  14.672  0.00  0.00    +0.000 C 
ATOM     21  O   UNL     1       6.140   5.441  14.251  0.00  0.00    +0.000 OA
ATOM     22  N   UNL     1       6.573   4.023  16.012  0.00  0.00    +0.000 N 
ATOM     23  H   UNL     1       6.742   2.334  14.193  0.00  0.00    +0.000 HD
ATOM     24  H   UNL     1       6.880   3.087  16.245  0.00  0.00    +0.000 HD
BRANCH  19  26
ATOM     25  C   UNL     1       4.848   3.685  11.970  0.00  0.00    +0.000 C 
ATOM     26  C   UNL     1       6.310   3.377  12.351  0.00  0.00    +0.000 C 
ATOM     27  C   UNL     1       6.793   2.108  11.619  0.00  0.00    +0.000 C 
ATOM     28  C   UNL     1       7.170   4.552  11.844  0.00  0.00    +0.000 C 
ENDBRANCH  19  26
ENDBRANCH  17  22
ENDBRANCH   1  17
TORSDOF 6
ENDMDL
MODEL 7
REMARK VINA RESULT:      -7.5      2.917      3.635
REMARK  Name = 
REMARK  11 active torsions:
REMARK  status: ('A' for Active; 'I' for Inactive)
REMARK    1  A    between atoms: C_1  and  C_2
REMARK    2  A    between atoms: C_2  and  C_3
REMARK    3  A    between atoms: C_2  and  C_4
REMARK    4  A    between atoms: C_2  and  N_5
REMARK    5  A    between atoms: N_8  and  C_9
REMARK    6  A    between atoms: C_9  and  N_11
REMARK    7  A    between atoms: C_12  and  C_14
REMARK    8  A    between atoms: C_15  and  C_16
REMARK    9  A    between atoms: C_17  and  C_19
REMARK   10  A    between atoms: C_23  and  C_24
REMARK   11  A    between atoms: C_23  and  C_25
REMARK                            x       y       z     vdW  Elec       q    Type
REMARK                         _______ _______ _______ _____ _____    ______ ____
ROOT
ATOM      1  N   UNL     1       5.210   5.150  17.544  0.00  0.00    +0.000 N 
ATOM      2  C   UNL     1       4.545   6.240  17.045  0.00  0.00    +0.000 C 
ATOM      3  O   UNL     1       4.901   6.809  16.014  0.00  0.00    +0.000 OA
ATOM      4  H   UNL     1       4.977   4.829  18.471  0.00  0.00    +0.000 HD
ENDROOT
BRANCH   2   5
ATOM      5  C   UNL     1       3.405   6.809  17.815  0.00  0.00    +0.000 C 
ATOM      6  C   UNL     1       2.135   5.986  17.940  0.00  0.00    +0.000 C 
ATOM      7  C   UNL     1       2.775   6.583  19.185  0.00  0.00    +0.000 C 
ATOM      8  C   UNL     1       3.393   5.725  20.263  0.00  0.00    +0.000 C 
ATOM      9  C   UNL     1       1.997   7.743  19.796  0.00  0.00    +0.000 C 
BRANCH   6  10
ATOM     10  C   UNL     1       2.043   4.520  17.831  0.00  0.00    +0.000 C 
ATOM     11  C   UNL     1       1.474   3.633  18.672  0.00  0.00    +0.000 C 
ATOM     12 CL   UNL     1       0.602   4.146  20.076  0.00  0.00    +0.000 Cl
BRANCH  11  13
ATOM     13  C   UNL     1       1.631   2.146  18.511  0.00  0.00    +0.000 C 
ATOM     14  F   UNL     1       2.385   1.561  19.475  0.00  0.00    +0.000 F 
ATOM     15  F   UNL     1       0.431   1.510  18.511  0.00  0.00    +0.000 F 
ATOM     16  F   UNL     1       2.223   1.849  17.322  0.00  0.00    +0.000 F 
ENDBRANCH  11  13
ENDBRANCH   6  10
ENDBRANCH   2   5
BRANCH   1  17
ATOM     17  C   UNL     1       6.285   4.480  16.994  0.00  0.00    +0.000 C 
ATOM     18  S   UNL     1       7.748   4.777  17.759  0.00  0.00    +0.000 S 
BRANCH  17  22
ATOM     19  N   UNL     1       5.774   3.015  13.684  0.00  0.00    +0.000 N 
ATOM     20  C   UNL     1       6.193   3.990  14.571  0.00  0.00    +0.000 C 
ATOM     21  O   UNL     1       6.704   5.030  14.191  0.00  0.00    +0.000 OA
ATOM     22  N   UNL     1       6.027   3.655  15.909  0.00  0.00    +0.000 N 
ATOM     23  H   UNL     1       5.463   2.122  14.033  0.00  0.00    +0.000 HD
ATOM     24  H   UNL     1       5.722   2.715  16.126  0.00  0.00    +0.000 HD
BRANCH  19  26
ATOM     25  C   UNL     1       7.127   4.119  11.903  0.00  0.00    +0.000 C 
ATOM     26  C   UNL     1       5.941   3.183  12.214  0.00  0.00    +0.000 C 
ATOM     27  C   UNL     1       4.650   3.731  11.571  0.00  0.00    +0.000 C 
ATOM     28  C   UNL     1       6.244   1.827  11.545  0.00  0.00    +0.000 C 
ENDBRANCH  19  26
ENDBRANCH  17  22
ENDBRANCH   1  17
TORSDOF 6
ENDMDL
MODEL 8
REMARK VINA RESULT:      -7.5      0.913      1.274
REMARK  Name = 
REMARK  11 active torsions:
REMARK  status: ('A' for Active; 'I' for Inactive)
REMARK    1  A    between atoms: C_1  and  C_2
REMARK    2  A    between atoms: C_2  and  C_3
REMARK    3  A    between atoms: C_2  and  C_4
REMARK    4  A    between atoms: C_2  and  N_5
REMARK    5  A    between atoms: N_8  and  C_9
REMARK    6  A    between atoms: C_9  and  N_11
REMARK    7  A    between atoms: C_12  and  C_14
REMARK    8  A    between atoms: C_15  and  C_16
REMARK    9  A    between atoms: C_17  and  C_19
REMARK   10  A    between atoms: C_23  and  C_24
REMARK   11  A    between atoms: C_23  and  C_25
REMARK                            x       y       z     vdW  Elec       q    Type
REMARK                         _______ _______ _______ _____ _____    ______ ____
ROOT
ATOM      1  N   UNL     1       4.866   4.495  17.838  0.00  0.00    +0.000 N 
ATOM      2  C   UNL     1       4.765   4.531  19.204  0.00  0.00    +0.000 C 
ATOM      3  O   UNL     1       5.744   4.710  19.928  0.00  0.00    +0.000 OA
ATOM      4  H   UNL     1       4.068   4.182  17.306  0.00  0.00    +0.000 HD
ENDROOT
BRANCH   2   5
ATOM      5  C   UNL     1       3.447   4.261  19.842  0.00  0.00    +0.000 C 
ATOM      6  C   UNL     1       2.498   5.427  20.059  0.00  0.00    +0.000 C 
ATOM      7  C   UNL     1       1.997   4.159  19.381  0.00  0.00    +0.000 C 
ATOM      8  C   UNL     1       1.576   4.133  17.931  0.00  0.00    +0.000 C 
ATOM      9  C   UNL     1       1.051   3.323  20.235  0.00  0.00    +0.000 C 
BRANCH   6  10
ATOM     10  C   UNL     1       2.487   6.684  19.293  0.00  0.00    +0.000 C 
ATOM     11  C   UNL     1       1.884   7.856  19.579  0.00  0.00    +0.000 C 
ATOM     12 CL   UNL     1       1.044   8.103  21.072  0.00  0.00    +0.000 Cl
BRANCH  11  13
ATOM     13  C   UNL     1       1.812   8.993  18.596  0.00  0.00    +0.000 C 
ATOM     14  F   UNL     1       2.986   9.261  17.973  0.00  0.00    +0.000 F 
ATOM     15  F   UNL     1       0.896   8.757  17.621  0.00  0.00    +0.000 F 
ATOM     16  F   UNL     1       1.428  10.141  19.215  0.00  0.00    +0.000 F 
ENDBRANCH  11  13
ENDBRANCH   6  10
ENDBRANCH   2   5
BRANCH   1  17
ATOM     17  C   UNL     1       5.985   4.709  17.058  0.00  0.00    +0.000 C 
ATOM     18  S   UNL     1       6.940   5.993  17.562  0.00  0.00    +0.000 S 
BRANCH  17  22
ATOM     19  N   UNL     1       6.155   3.084  13.788  0.00  0.00    +0.000 N 
ATOM     20  C   UNL     1       5.969   4.152  14.649  0.00  0.00    +0.000 C 
ATOM     21  O   UNL     1       5.687   5.266  14.241  0.00  0.00    +0.000 OA
ATOM     22  N   UNL     1       6.183   3.850  15.988  0.00  0.00    +0.000 N 
ATOM     23  H   UNL     1       6.500   2.207  14.146  0.00  0.00    +0.000 HD
ATOM     24  H   UNL     1       6.549   2.934  16.212  0.00  0.00    +0.000 HD
BRANCH  19  26
ATOM     25  C   UNL     1       4.588   3.625  11.924  0.00  0.00    +0.000 C 
ATOM     26  C   UNL     1       6.032   3.250  12.313  0.00  0.00    +0.000 C 
ATOM     27  C   UNL     1       6.463   1.965  11.576  0.00  0.00    +0.000 C 
ATOM     28  C   UNL     1       6.947   4.389  11.819  0.00  0.00    +0.000 C 
ENDBRANCH  19  26
ENDBRANCH  17  22
ENDBRANCH   1  17
TORSDOF 6
ENDMDL
MODEL 9
REMARK VINA RESULT:      -7.4      2.924      3.750
REMARK  Name = 
REMARK  11 active torsions:
REMARK  status: ('A' for Active; 'I' for Inactive)
REMARK    1  A    between atoms: C_1  and  C_2
REMARK    2  A    between atoms: C_2  and  C_3
REMARK    3  A    between atoms: C_2  and  C_4
REMARK    4  A    between atoms: C_2  and  N_5
REMARK    5  A    between atoms: N_8  and  C_9
REMARK    6  A    between atoms: C_9  and  N_11
REMARK    7  A    between atoms: C_12  and  C_14
REMARK    8  A    between atoms: C_15  and  C_16
REMARK    9  A    between atoms: C_17  and  C_19
REMARK   10  A    between atoms: C_23  and  C_24
REMARK   11  A    between atoms: C_23  and  C_25
REMARK                            x       y       z     vdW  Elec       q    Type
REMARK                         _______ _______ _______ _____ _____    ______ ____
ROOT
ATOM      1  N   UNL     1       5.206   5.137  17.513  0.00  0.00    +0.000 N 
ATOM      2  C   UNL     1       4.607   6.273  17.032  0.00  0.00    +0.000 C 
ATOM      3  O   UNL     1       5.042   6.878  16.053  0.00  0.00    +0.000 OA
ATOM      4  H   UNL     1       4.909   4.780  18.408  0.00  0.00    +0.000 HD
ENDROOT
BRANCH   2   5
ATOM      5  C   UNL     1       3.444   6.845  17.764  0.00  0.00    +0.000 C 
ATOM      6  C   UNL     1       2.178   6.014  17.870  0.00  0.00    +0.000 C 
ATOM      7  C   UNL     1       2.782   6.635  19.121  0.00  0.00    +0.000 C 
ATOM      8  C   UNL     1       3.379   5.799  20.228  0.00  0.00    +0.000 C 
ATOM      9  C   UNL     1       1.979   7.798  19.694  0.00  0.00    +0.000 C 
BRANCH   6  10
ATOM     10  C   UNL     1       2.100   4.546  17.782  0.00  0.00    +0.000 C 
ATOM     11  C   UNL     1       1.528   3.666  18.628  0.00  0.00    +0.000 C 
ATOM     12 CL   UNL     1       0.634   4.192  20.014  0.00  0.00    +0.000 Cl
BRANCH  11  13
ATOM     13  C   UNL     1       1.700   2.178  18.492  0.00  0.00    +0.000 C 
ATOM     14  F   UNL     1       0.539   1.479  18.544  0.00  0.00    +0.000 F 
ATOM     15  F   UNL     1       2.305   1.847  17.321  0.00  0.00    +0.000 F 
ATOM     16  F   UNL     1       2.492   1.691  19.485  0.00  0.00    +0.000 F 
ENDBRANCH  11  13
ENDBRANCH   6  10
ENDBRANCH   2   5
BRANCH   1  17
ATOM     17  C   UNL     1       6.289   4.457  16.991  0.00  0.00    +0.000 C 
ATOM     18  S   UNL     1       7.736   4.750  17.787  0.00  0.00    +0.000 S 
BRANCH  17  22
ATOM     19  N   UNL     1       5.793   2.981  13.683  0.00  0.00    +0.000 N 
ATOM     20  C   UNL     1       6.185   3.970  14.569  0.00  0.00    +0.000 C 
ATOM     21  O   UNL     1       6.650   5.029  14.185  0.00  0.00    +0.000 OA
ATOM     22  N   UNL     1       6.050   3.625  15.907  0.00  0.00    +0.000 N 
ATOM     23  H   UNL     1       5.522   2.075  14.034  0.00  0.00    +0.000 HD
ATOM     24  H   UNL     1       5.785   2.673  16.125  0.00  0.00    +0.000 HD
BRANCH  19  26
ATOM     25  C   UNL     1       6.186   1.806  11.519  0.00  0.00    +0.000 C 
ATOM     26  C   UNL     1       5.935   3.160  12.212  0.00  0.00    +0.000 C 
ATOM     27  C   UNL     1       7.078   4.144  11.884  0.00  0.00    +0.000 C 
ATOM     28  C   UNL     1       4.641   3.746  11.611  0.00  0.00    +0.000 C 
ENDBRANCH  19  26
ENDBRANCH  17  22
ENDBRANCH   1  17
TORSDOF 6
ENDMDL
