MODEL 1
REMARK VINA RESULT:      -8.0      0.000      0.000
REMARK  Name = 
REMARK  10 active torsions:
REMARK  status: ('A' for Active; 'I' for Inactive)
REMARK    1  A    between atoms: C_1  and  C_2
REMARK    2  A    between atoms: C_2  and  O_3
REMARK    3  A    between atoms: O_3  and  C_4
REMARK    4  A    between atoms: C_4  and  C_6
REMARK    5  A    between atoms: C_8  and  C_9
REMARK    6  A    between atoms: C_9  and  C_10
REMARK    7  A    between atoms: C_12  and  N_13
REMARK    8  A    between atoms: N_13  and  C_14
REMARK    9  A    between atoms: C_19  and  C_20
REMARK   10  A    between atoms: C_19  and  C_21
REMARK                            x       y       z     vdW  Elec       q    Type
REMARK                         _______ _______ _______ _____ _____    ______ ____
ROOT
ATOM      1  N   UNL     1       5.105   3.088  16.517  0.00  0.00    +0.000 N 
ATOM      2  H   UNL     1       5.258   2.093  16.705  0.00  0.00    +0.000 HD
ENDROOT
BRANCH   1   3
ATOM      3  C   UNL     1       3.868   3.556  16.942  0.00  0.00    +0.000 C 
ATOM      4  C   UNL     1       3.297   3.565  18.159  0.00  0.00    +0.000 C 
ATOM      5  C   UNL     1       4.062   3.240  19.387  0.00  0.00    +0.000 C 
ATOM      6  O   UNL     1       5.282   3.402  19.457  0.00  0.00    +0.000 OA
ATOM      7  C   UNL     1       3.295   2.674  20.557  0.00  0.00    +0.000 C 
ATOM      8  C   UNL     1       1.935   3.358  20.758  0.00  0.00    +0.000 C 
ATOM      9  C   UNL     1       1.151   2.619  21.862  0.00  0.00    +0.000 C 
ATOM     10  C   UNL     1       2.185   4.806  21.217  0.00  0.00    +0.000 C 
ATOM     11  C   UNL     1       1.086   3.365  19.474  0.00  0.00    +0.000 C 
ATOM     12  C   UNL     1       1.824   3.795  18.220  0.00  0.00    +0.000 C 
ATOM     13  O   UNL     1       1.187   4.208  17.249  0.00  0.00    +0.000 OA
ENDBRANCH   1   3
BRANCH   1  18
ATOM     14  C   UNL     1       7.073   4.554  16.043  0.00  0.00    +0.000 A 
ATOM     15  C   UNL     1       7.627   5.196  14.879  0.00  0.00    +0.000 A 
ATOM     16  C   UNL     1       7.045   4.802  13.702  0.00  0.00    +0.000 A 
ATOM     17  S   UNL     1       5.798   3.690  13.979  0.00  0.00    +0.000 S 
ATOM     18  C   UNL     1       5.982   3.752  15.702  0.00  0.00    +0.000 A 
BRANCH  14  19
ATOM     19  C   UNL     1       7.596   4.794  17.379  0.00  0.00    +0.000 C 
ATOM     20  O   UNL     1       8.439   4.071  17.929  0.00  0.00    +0.000 OA
BRANCH  19  21
ATOM     21  O   UNL     1       6.967   5.843  17.997  0.00  0.00    +0.000 OA
BRANCH  21  23
ATOM     22  C   UNL     1       7.762   8.059  17.556  0.00  0.00    +0.000 C 
ATOM     23  C   UNL     1       7.838   6.861  18.490  0.00  0.00    +0.000 C 
ENDBRANCH  21  23
ENDBRANCH  19  21
ENDBRANCH  14  19
BRANCH  16  24
ATOM     24  C   UNL     1       7.397   5.215  12.311  0.00  0.00    +0.000 C 
ATOM     25  C   UNL     1       8.601   6.141  12.280  0.00  0.00    +0.000 C 
ENDBRANCH  16  24
ENDBRANCH   1  18
TORSDOF 6
ENDMDL
MODEL 2
REMARK VINA RESULT:      -7.5      0.904      1.016
REMARK  Name = 
REMARK  10 active torsions:
REMARK  status: ('A' for Active; 'I' for Inactive)
REMARK    1  A    between atoms: C_1  and  C_2
REMARK    2  A    between atoms: C_2  and  O_3
REMARK    3  A    between atoms: O_3  and  C_4
REMARK    4  A    between atoms: C_4  and  C_6
REMARK    5  A    between atoms: C_8  and  C_9
REMARK    6  A    between atoms: C_9  and  C_10
REMARK    7  A    between atoms: C_12  and  N_13
REMARK    8  A    between atoms: N_13  and  C_14
REMARK    9  A    between atoms: C_19  and  C_20
REMARK   10  A    between atoms: C_19  and  C_21
REMARK                            x       y       z     vdW  Elec       q    Type
REMARK                         _______ _______ _______ _____ _____    ______ ____
ROOT
ATOM      1  N   UNL     1       5.115   3.091  16.592  0.00  0.00    +0.000 N 
ATOM      2  H   UNL     1       5.298   2.104  16.798  0.00  0.00    +0.000 HD
ENDROOT
BRANCH   1   3
ATOM      3  C   UNL     1       3.862   3.528  17.004  0.00  0.00    +0.000 C 
ATOM      4  C   UNL     1       3.277   3.519  18.215  0.00  0.00    +0.000 C 
ATOM      5  C   UNL     1       4.037   3.207  19.450  0.00  0.00    +0.000 C 
ATOM      6  O   UNL     1       5.251   3.398  19.535  0.00  0.00    +0.000 OA
ATOM      7  C   UNL     1       3.269   2.619  20.609  0.00  0.00    +0.000 C 
ATOM      8  C   UNL     1       1.892   3.271  20.797  0.00  0.00    +0.000 C 
ATOM      9  C   UNL     1       1.113   2.509  21.890  0.00  0.00    +0.000 C 
ATOM     10  C   UNL     1       2.102   4.722  21.264  0.00  0.00    +0.000 C 
ATOM     11  C   UNL     1       1.057   3.263  19.504  0.00  0.00    +0.000 C 
ATOM     12  C   UNL     1       1.799   3.715  18.260  0.00  0.00    +0.000 C 
ATOM     13  O   UNL     1       1.164   4.116  17.283  0.00  0.00    +0.000 OA
ENDBRANCH   1   3
BRANCH   1  18
ATOM     14  C   UNL     1       6.957   4.704  16.093  0.00  0.00    +0.000 A 
ATOM     15  C   UNL     1       7.522   5.294  14.906  0.00  0.00    +0.000 A 
ATOM     16  C   UNL     1       7.058   4.739  13.741  0.00  0.00    +0.000 A 
ATOM     17  S   UNL     1       5.911   3.533  14.051  0.00  0.00    +0.000 S 
ATOM     18  C   UNL     1       5.975   3.766  15.769  0.00  0.00    +0.000 A 
BRANCH  14  19
ATOM     19  C   UNL     1       7.366   5.114  17.428  0.00  0.00    +0.000 C 
ATOM     20  O   UNL     1       7.954   4.371  18.226  0.00  0.00    +0.000 OA
BRANCH  19  21
ATOM     21  O   UNL     1       6.926   6.375  17.735  0.00  0.00    +0.000 OA
BRANCH  21  23
ATOM     22  C   UNL     1       4.698   7.049  17.169  0.00  0.00    +0.000 C 
ATOM     23  C   UNL     1       5.592   6.440  18.239  0.00  0.00    +0.000 C 
ENDBRANCH  21  23
ENDBRANCH  19  21
ENDBRANCH  14  19
BRANCH  16  24
ATOM     24  C   UNL     1       7.459   5.062  12.339  0.00  0.00    +0.000 C 
ATOM     25  C   UNL     1       7.208   3.898  11.394  0.00  0.00    +0.000 C 
ENDBRANCH  16  24
ENDBRANCH   1  18
TORSDOF 6
ENDMDL
MODEL 3
REMARK VINA RESULT:      -7.1      4.324      6.199
REMARK  Name = 
REMARK  10 active torsions:
REMARK  status: ('A' for Active; 'I' for Inactive)
REMARK    1  A    between atoms: C_1  and  C_2
REMARK    2  A    between atoms: C_2  and  O_3
REMARK    3  A    between atoms: O_3  and  C_4
REMARK    4  A    between atoms: C_4  and  C_6
REMARK    5  A    between atoms: C_8  and  C_9
REMARK    6  A    between atoms: C_9  and  C_10
REMARK    7  A    between atoms: C_12  and  N_13
REMARK    8  A    between atoms: N_13  and  C_14
REMARK    9  A    between atoms: C_19  and  C_20
REMARK   10  A    between atoms: C_19  and  C_21
REMARK                            x       y       z     vdW  Elec       q    Type
REMARK                         _______ _______ _______ _____ _____    ______ ____
ROOT
ATOM      1  N   UNL     1       2.564   6.564  18.724  0.00  0.00    +0.000 N 
ATOM      2  H   UNL     1       1.894   6.211  19.414  0.00  0.00    +0.000 HD
ENDROOT
BRANCH   1   3
ATOM      3  C   UNL     1       2.442   7.924  18.468  0.00  0.00    +0.000 C 
ATOM      4  C   UNL     1       1.714   8.876  19.076  0.00  0.00    +0.000 C 
ATOM      5  C   UNL     1       1.030   8.634  20.370  0.00  0.00    +0.000 C 
ATOM      6  O   UNL     1       1.432   7.789  21.172  0.00  0.00    +0.000 OA
ATOM      7  C   UNL     1      -0.205   9.449  20.668  0.00  0.00    +0.000 C 
ATOM      8  C   UNL     1      -0.065  10.914  20.231  0.00  0.00    +0.000 C 
ATOM      9  C   UNL     1      -1.417  11.633  20.421  0.00  0.00    +0.000 C 
ATOM     10  C   UNL     1       0.983  11.591  21.131  0.00  0.00    +0.000 C 
ATOM     11  C   UNL     1       0.359  11.048  18.757  0.00  0.00    +0.000 C 
ATOM     12  C   UNL     1       1.514  10.158  18.339  0.00  0.00    +0.000 C 
ATOM     13  O   UNL     1       2.178  10.447  17.342  0.00  0.00    +0.000 OA
ENDBRANCH   1   3
BRANCH   1  18
ATOM     14  C   UNL     1       3.111   4.294  17.834  0.00  0.00    +0.000 A 
ATOM     15  C   UNL     1       4.214   3.702  17.120  0.00  0.00    +0.000 A 
ATOM     16  C   UNL     1       5.134   4.614  16.671  0.00  0.00    +0.000 A 
ATOM     17  S   UNL     1       4.712   6.187  17.135  0.00  0.00    +0.000 S 
ATOM     18  C   UNL     1       3.299   5.668  17.996  0.00  0.00    +0.000 A 
BRANCH  14  19
ATOM     19  C   UNL     1       2.001   3.500  18.336  0.00  0.00    +0.000 C 
ATOM     20  O   UNL     1       1.589   2.468  17.789  0.00  0.00    +0.000 OA
BRANCH  19  21
ATOM     21  O   UNL     1       1.398   4.087  19.418  0.00  0.00    +0.000 OA
BRANCH  21  23
ATOM     22  C   UNL     1       2.082   3.147  21.513  0.00  0.00    +0.000 C 
ATOM     23  C   UNL     1       0.997   3.182  20.447  0.00  0.00    +0.000 C 
ENDBRANCH  21  23
ENDBRANCH  19  21
ENDBRANCH  14  19
BRANCH  16  24
ATOM     24  C   UNL     1       6.363   4.367  15.859  0.00  0.00    +0.000 C 
ATOM     25  C   UNL     1       6.029   3.931  14.442  0.00  0.00    +0.000 C 
ENDBRANCH  16  24
ENDBRANCH   1  18
TORSDOF 6
ENDMDL
MODEL 4
REMARK VINA RESULT:      -7.0      4.685      6.372
REMARK  Name = 
REMARK  10 active torsions:
REMARK  status: ('A' for Active; 'I' for Inactive)
REMARK    1  A    between atoms: C_1  and  C_2
REMARK    2  A    between atoms: C_2  and  O_3
REMARK    3  A    between atoms: O_3  and  C_4
REMARK    4  A    between atoms: C_4  and  C_6
REMARK    5  A    between atoms: C_8  and  C_9
REMARK    6  A    between atoms: C_9  and  C_10
REMARK    7  A    between atoms: C_12  and  N_13
REMARK    8  A    between atoms: N_13  and  C_14
REMARK    9  A    between atoms: C_19  and  C_20
REMARK   10  A    between atoms: C_19  and  C_21
REMARK                            x       y       z     vdW  Elec       q    Type
REMARK                         _______ _______ _______ _____ _____    ______ ____
ROOT
ATOM      1  N   UNL     1       3.172   7.279  18.815  0.00  0.00    +0.000 N 
ATOM      2  H   UNL     1       3.971   7.921  18.854  0.00  0.00    +0.000 HD
ENDROOT
BRANCH   1   3
ATOM      3  C   UNL     1       2.064   7.719  19.528  0.00  0.00    +0.000 C 
ATOM      4  C   UNL     1       1.385   8.877  19.480  0.00  0.00    +0.000 C 
ATOM      5  C   UNL     1       1.607   9.873  18.403  0.00  0.00    +0.000 C 
ATOM      6  O   UNL     1       2.028   9.549  17.292  0.00  0.00    +0.000 OA
ATOM      7  C   UNL     1       1.318  11.320  18.723  0.00  0.00    +0.000 C 
ATOM      8  C   UNL     1       0.049  11.496  19.568  0.00  0.00    +0.000 C 
ATOM      9  C   UNL     1      -0.084  12.976  19.985  0.00  0.00    +0.000 C 
ATOM     10  C   UNL     1      -1.166  11.118  18.703  0.00  0.00    +0.000 C 
ATOM     11  C   UNL     1       0.066  10.629  20.840  0.00  0.00    +0.000 C 
ATOM     12  C   UNL     1       0.478   9.185  20.625  0.00  0.00    +0.000 C 
ATOM     13  O   UNL     1       0.161   8.330  21.454  0.00  0.00    +0.000 OA
ENDBRANCH   1   3
BRANCH   1  18
ATOM     14  C   UNL     1       4.185   5.611  17.254  0.00  0.00    +0.000 A 
ATOM     15  C   UNL     1       3.947   4.230  16.920  0.00  0.00    +0.000 A 
ATOM     16  C   UNL     1       3.053   3.608  17.753  0.00  0.00    +0.000 A 
ATOM     17  S   UNL     1       2.457   4.680  18.921  0.00  0.00    +0.000 S 
ATOM     18  C   UNL     1       3.354   6.026  18.297  0.00  0.00    +0.000 A 
BRANCH  14  19
ATOM     19  C   UNL     1       5.145   6.427  16.526  0.00  0.00    +0.000 C 
ATOM     20  O   UNL     1       5.229   6.454  15.290  0.00  0.00    +0.000 OA
BRANCH  19  21
ATOM     21  O   UNL     1       6.013   7.071  17.368  0.00  0.00    +0.000 OA
BRANCH  21  23
ATOM     22  C   UNL     1       7.723   6.144  18.767  0.00  0.00    +0.000 C 
ATOM     23  C   UNL     1       7.350   6.568  17.354  0.00  0.00    +0.000 C 
ENDBRANCH  21  23
ENDBRANCH  19  21
ENDBRANCH  14  19
BRANCH  16  24
ATOM     24  C   UNL     1       2.612   2.181  17.738  0.00  0.00    +0.000 C 
ATOM     25  C   UNL     1       1.751   1.840  18.943  0.00  0.00    +0.000 C 
ENDBRANCH  16  24
ENDBRANCH   1  18
TORSDOF 6
ENDMDL
MODEL 5
REMARK VINA RESULT:      -7.0      4.627      6.492
REMARK  Name = 
REMARK  10 active torsions:
REMARK  status: ('A' for Active; 'I' for Inactive)
REMARK    1  A    between atoms: C_1  and  C_2
REMARK    2  A    between atoms: C_2  and  O_3
REMARK    3  A    between atoms: O_3  and  C_4
REMARK    4  A    between atoms: C_4  and  C_6
REMARK    5  A    between atoms: C_8  and  C_9
REMARK    6  A    between atoms: C_9  and  C_10
REMARK    7  A    between atoms: C_12  and  N_13
REMARK    8  A    between atoms: N_13  and  C_14
REMARK    9  A    between atoms: C_19  and  C_20
REMARK   10  A    between atoms: C_19  and  C_21
REMARK                            x       y       z     vdW  Elec       q    Type
REMARK                         _______ _______ _______ _____ _____    ______ ____
ROOT
ATOM      1  N   UNL     1       3.152   6.998  19.556  0.00  0.00    +0.000 N 
ATOM      2  H   UNL     1       3.964   7.618  19.483  0.00  0.00    +0.000 HD
ENDROOT
BRANCH   1   3
ATOM      3  C   UNL     1       2.019   7.616  20.070  0.00  0.00    +0.000 C 
ATOM      4  C   UNL     1       1.366   8.726  19.685  0.00  0.00    +0.000 C 
ATOM      5  C   UNL     1       1.661   9.404  18.399  0.00  0.00    +0.000 C 
ATOM      6  O   UNL     1       2.131   8.798  17.435  0.00  0.00    +0.000 OA
ATOM      7  C   UNL     1       1.387  10.886  18.314  0.00  0.00    +0.000 C 
ATOM      8  C   UNL     1       0.081  11.286  19.015  0.00  0.00    +0.000 C 
ATOM      9  C   UNL     1      -0.042  12.824  19.023  0.00  0.00    +0.000 C 
ATOM     10  C   UNL     1      -1.097  10.702  18.215  0.00  0.00    +0.000 C 
ATOM     11  C   UNL     1       0.016  10.781  20.468  0.00  0.00    +0.000 C 
ATOM     12  C   UNL     1       0.410   9.329  20.659  0.00  0.00    +0.000 C 
ATOM     13  O   UNL     1       0.034   8.722  21.664  0.00  0.00    +0.000 OA
ENDBRANCH   1   3
BRANCH   1  18
ATOM     14  C   UNL     1       4.495   4.943  19.092  0.00  0.00    +0.000 A 
ATOM     15  C   UNL     1       4.206   3.559  18.817  0.00  0.00    +0.000 A 
ATOM     16  C   UNL     1       2.888   3.225  18.998  0.00  0.00    +0.000 A 
ATOM     17  S   UNL     1       1.973   4.573  19.459  0.00  0.00    +0.000 S 
ATOM     18  C   UNL     1       3.327   5.653  19.377  0.00  0.00    +0.000 A 
BRANCH  14  19
ATOM     19  C   UNL     1       5.845   5.479  19.016  0.00  0.00    +0.000 C 
ATOM     20  O   UNL     1       6.729   5.239  19.850  0.00  0.00    +0.000 OA
BRANCH  19  21
ATOM     21  O   UNL     1       5.989   6.364  17.979  0.00  0.00    +0.000 OA
BRANCH  21  23
ATOM     22  C   UNL     1       7.712   7.979  17.581  0.00  0.00    +0.000 C 
ATOM     23  C   UNL     1       7.324   6.511  17.495  0.00  0.00    +0.000 C 
ENDBRANCH  21  23
ENDBRANCH  19  21
ENDBRANCH  14  19
BRANCH  16  24
ATOM     24  C   UNL     1       2.245   1.884  18.858  0.00  0.00    +0.000 C 
ATOM     25  C   UNL     1       0.730   1.983  18.807  0.00  0.00    +0.000 C 
ENDBRANCH  16  24
ENDBRANCH   1  18
TORSDOF 6
ENDMDL
MODEL 6
REMARK VINA RESULT:      -6.9      4.341      6.288
REMARK  Name = 
REMARK  10 active torsions:
REMARK  status: ('A' for Active; 'I' for Inactive)
REMARK    1  A    between atoms: C_1  and  C_2
REMARK    2  A    between atoms: C_2  and  O_3
REMARK    3  A    between atoms: O_3  and  C_4
REMARK    4  A    between atoms: C_4  and  C_6
REMARK    5  A    between atoms: C_8  and  C_9
REMARK    6  A    between atoms: C_9  and  C_10
REMARK    7  A    between atoms: C_12  and  N_13
REMARK    8  A    between atoms: N_13  and  C_14
REMARK    9  A    between atoms: C_19  and  C_20
REMARK   10  A    between atoms: C_19  and  C_21
REMARK                            x       y       z     vdW  Elec       q    Type
REMARK                         _______ _______ _______ _____ _____    ______ ____
ROOT
ATOM      1  N   UNL     1       2.491   6.580  18.655  0.00  0.00    +0.000 N 
ATOM      2  H   UNL     1       1.728   6.199  19.223  0.00  0.00    +0.000 HD
ENDROOT
BRANCH   1   3
ATOM      3  C   UNL     1       2.390   7.946  18.423  0.00  0.00    +0.000 C 
ATOM      4  C   UNL     1       1.682   8.899  19.052  0.00  0.00    +0.000 C 
ATOM      5  C   UNL     1       1.003   8.647  20.347  0.00  0.00    +0.000 C 
ATOM      6  O   UNL     1       1.396   7.783  21.132  0.00  0.00    +0.000 OA
ATOM      7  C   UNL     1      -0.216   9.477  20.667  0.00  0.00    +0.000 C 
ATOM      8  C   UNL     1      -0.056  10.947  20.253  0.00  0.00    +0.000 C 
ATOM      9  C   UNL     1      -1.394  11.685  20.464  0.00  0.00    +0.000 C 
ATOM     10  C   UNL     1       1.010  11.591  21.157  0.00  0.00    +0.000 C 
ATOM     11  C   UNL     1       0.361  11.099  18.779  0.00  0.00    +0.000 C 
ATOM     12  C   UNL     1       1.498  10.197  18.338  0.00  0.00    +0.000 C 
ATOM     13  O   UNL     1       2.159  10.491  17.341  0.00  0.00    +0.000 OA
ENDBRANCH   1   3
BRANCH   1  18
ATOM     14  C   UNL     1       3.132   4.389  17.639  0.00  0.00    +0.000 A 
ATOM     15  C   UNL     1       4.350   3.791  17.155  0.00  0.00    +0.000 A 
ATOM     16  C   UNL     1       5.402   4.668  17.077  0.00  0.00    +0.000 A 
ATOM     17  S   UNL     1       4.956   6.207  17.623  0.00  0.00    +0.000 S 
ATOM     18  C   UNL     1       3.343   5.714  18.025  0.00  0.00    +0.000 A 
BRANCH  14  19
ATOM     19  C   UNL     1       1.890   3.639  17.736  0.00  0.00    +0.000 C 
ATOM     20  O   UNL     1       0.804   4.046  17.301  0.00  0.00    +0.000 OA
BRANCH  19  21
ATOM     21  O   UNL     1       2.041   2.486  18.462  0.00  0.00    +0.000 OA
BRANCH  21  23
ATOM     22  C   UNL     1       1.100   3.250  20.528  0.00  0.00    +0.000 C 
ATOM     23  C   UNL     1       2.335   2.680  19.846  0.00  0.00    +0.000 C 
ENDBRANCH  21  23
ENDBRANCH  19  21
ENDBRANCH  14  19
BRANCH  16  24
ATOM     24  C   UNL     1       6.785   4.412  16.575  0.00  0.00    +0.000 C 
ATOM     25  C   UNL     1       7.825   4.570  17.671  0.00  0.00    +0.000 C 
ENDBRANCH  16  24
ENDBRANCH   1  18
TORSDOF 6
ENDMDL
MODEL 7
REMARK VINA RESULT:      -6.9      0.901      1.375
REMARK  Name = 
REMARK  10 active torsions:
REMARK  status: ('A' for Active; 'I' for Inactive)
REMARK    1  A    between atoms: C_1  and  C_2
REMARK    2  A    between atoms: C_2  and  O_3
REMARK    3  A    between atoms: O_3  and  C_4
REMARK    4  A    between atoms: C_4  and  C_6
REMARK    5  A    between atoms: C_8  and  C_9
REMARK    6  A    between atoms: C_9  and  C_10
REMARK    7  A    between atoms: C_12  and  N_13
REMARK    8  A    between atoms: N_13  and  C_14
REMARK    9  A    between atoms: C_19  and  C_20
REMARK   10  A    between atoms: C_19  and  C_21
REMARK                            x       y       z     vdW  Elec       q    Type
REMARK                         _______ _______ _______ _____ _____    ______ ____
ROOT
ATOM      1  N   UNL     1       5.035   3.307  16.511  0.00  0.00    +0.000 N 
ATOM      2  H   UNL     1       5.316   2.373  16.823  0.00  0.00    +0.000 HD
ENDROOT
BRANCH   1   3
ATOM      3  C   UNL     1       3.779   3.695  16.961  0.00  0.00    +0.000 C 
ATOM      4  C   UNL     1       3.229   3.658  18.187  0.00  0.00    +0.000 C 
ATOM      5  C   UNL     1       4.034   3.367  19.399  0.00  0.00    +0.000 C 
ATOM      6  O   UNL     1       5.242   3.602  19.451  0.00  0.00    +0.000 OA
ATOM      7  C   UNL     1       3.321   2.744  20.575  0.00  0.00    +0.000 C 
ATOM      8  C   UNL     1       1.926   3.344  20.805  0.00  0.00    +0.000 C 
ATOM      9  C   UNL     1       1.207   2.548  21.914  0.00  0.00    +0.000 C 
ATOM     10  C   UNL     1       2.097   4.799  21.276  0.00  0.00    +0.000 C 
ATOM     11  C   UNL     1       1.057   3.312  19.535  0.00  0.00    +0.000 C 
ATOM     12  C   UNL     1       1.746   3.799  18.275  0.00  0.00    +0.000 C 
ATOM     13  O   UNL     1       1.070   4.182  17.318  0.00  0.00    +0.000 OA
ENDBRANCH   1   3
BRANCH   1  18
ATOM     14  C   UNL     1       6.421   5.172  15.592  0.00  0.00    +0.000 A 
ATOM     15  C   UNL     1       6.949   5.528  14.300  0.00  0.00    +0.000 A 
ATOM     16  C   UNL     1       6.802   4.546  13.354  0.00  0.00    +0.000 A 
ATOM     17  S   UNL     1       5.992   3.202  13.990  0.00  0.00    +0.000 S 
ATOM     18  C   UNL     1       5.776   3.934  15.546  0.00  0.00    +0.000 A 
BRANCH  14  19
ATOM     19  C   UNL     1       6.534   6.055  16.742  0.00  0.00    +0.000 C 
ATOM     20  O   UNL     1       5.635   6.823  17.112  0.00  0.00    +0.000 OA
BRANCH  19  21
ATOM     21  O   UNL     1       7.787   6.018  17.297  0.00  0.00    +0.000 OA
BRANCH  21  23
ATOM     22  C   UNL     1       8.005   5.724  19.664  0.00  0.00    +0.000 C 
ATOM     23  C   UNL     1       7.922   6.731  18.526  0.00  0.00    +0.000 C 
ENDBRANCH  21  23
ENDBRANCH  19  21
ENDBRANCH  14  19
BRANCH  16  24
ATOM     24  C   UNL     1       7.272   4.548  11.936  0.00  0.00    +0.000 C 
ATOM     25  C   UNL     1       7.275   3.151  11.337  0.00  0.00    +0.000 C 
ENDBRANCH  16  24
ENDBRANCH   1  18
TORSDOF 6
ENDMDL
MODEL 8
REMARK VINA RESULT:      -6.7      4.353      6.182
REMARK  Name = 
REMARK  10 active torsions:
REMARK  status: ('A' for Active; 'I' for Inactive)
REMARK    1  A    between atoms: C_1  and  C_2
REMARK    2  A    between atoms: C_2  and  O_3
REMARK    3  A    between atoms: O_3  and  C_4
REMARK    4  A    between atoms: C_4  and  C_6
REMARK    5  A    between atoms: C_8  and  C_9
REMARK    6  A    between atoms: C_9  and  C_10
REMARK    7  A    between atoms: C_12  and  N_13
REMARK    8  A    between atoms: N_13  and  C_14
REMARK    9  A    between atoms: C_19  and  C_20
REMARK   10  A    between atoms: C_19  and  C_21
REMARK                            x       y       z     vdW  Elec       q    Type
REMARK                         _______ _______ _______ _____ _____    ______ ____
ROOT
ATOM      1  N   UNL     1       2.553   6.467  19.018  0.00  0.00    +0.000 N 
ATOM      2  H   UNL     1       1.762   6.095  19.552  0.00  0.00    +0.000 HD
ENDROOT
BRANCH   1   3
ATOM      3  C   UNL     1       2.405   7.798  18.649  0.00  0.00    +0.000 C 
ATOM      4  C   UNL     1       1.679   8.790  19.191  0.00  0.00    +0.000 C 
ATOM      5  C   UNL     1       1.031   8.653  20.519  0.00  0.00    +0.000 C 
ATOM      6  O   UNL     1       1.465   7.886  21.380  0.00  0.00    +0.000 OA
ATOM      7  C   UNL     1      -0.208   9.475  20.777  0.00  0.00    +0.000 C 
ATOM      8  C   UNL     1      -0.101  10.899  20.211  0.00  0.00    +0.000 C 
ATOM      9  C   UNL     1      -1.457  11.614  20.373  0.00  0.00    +0.000 C 
ATOM     10  C   UNL     1       0.960  11.664  21.022  0.00  0.00    +0.000 C 
ATOM     11  C   UNL     1       0.285  10.909  18.721  0.00  0.00    +0.000 C 
ATOM     12  C   UNL     1       1.442  10.001  18.351  0.00  0.00    +0.000 C 
ATOM     13  O   UNL     1       2.076  10.210  17.316  0.00  0.00    +0.000 OA
ENDBRANCH   1   3
BRANCH   1  18
ATOM     14  C   UNL     1       3.843   4.326  19.010  0.00  0.00    +0.000 A 
ATOM     15  C   UNL     1       5.012   3.826  18.333  0.00  0.00    +0.000 A 
ATOM     16  C   UNL     1       5.460   4.645  17.328  0.00  0.00    +0.000 A 
ATOM     17  S   UNL     1       4.512   6.043  17.210  0.00  0.00    +0.000 S 
ATOM     18  C   UNL     1       3.502   5.599  18.548  0.00  0.00    +0.000 A 
BRANCH  14  19
ATOM     19  C   UNL     1       3.181   3.574  20.065  0.00  0.00    +0.000 C 
ATOM     20  O   UNL     1       3.670   2.575  20.609  0.00  0.00    +0.000 OA
BRANCH  19  21
ATOM     21  O   UNL     1       1.913   4.035  20.306  0.00  0.00    +0.000 OA
BRANCH  21  23
ATOM     22  C   UNL     1       0.728   2.561  18.835  0.00  0.00    +0.000 C 
ATOM     23  C   UNL     1       0.894   3.035  20.271  0.00  0.00    +0.000 C 
ENDBRANCH  21  23
ENDBRANCH  19  21
ENDBRANCH  14  19
BRANCH  16  24
ATOM     24  C   UNL     1       6.602   4.422  16.392  0.00  0.00    +0.000 C 
ATOM     25  C   UNL     1       6.130   4.005  15.009  0.00  0.00    +0.000 C 
ENDBRANCH  16  24
ENDBRANCH   1  18
TORSDOF 6
ENDMDL
MODEL 9
REMARK VINA RESULT:      -6.7      5.314      7.199
REMARK  Name = 
REMARK  10 active torsions:
REMARK  status: ('A' for Active; 'I' for Inactive)
REMARK    1  A    between atoms: C_1  and  C_2
REMARK    2  A    between atoms: C_2  and  O_3
REMARK    3  A    between atoms: O_3  and  C_4
REMARK    4  A    between atoms: C_4  and  C_6
REMARK    5  A    between atoms: C_8  and  C_9
REMARK    6  A    between atoms: C_9  and  C_10
REMARK    7  A    between atoms: C_12  and  N_13
REMARK    8  A    between atoms: N_13  and  C_14
REMARK    9  A    between atoms: C_19  and  C_20
REMARK   10  A    between atoms: C_19  and  C_21
REMARK                            x       y       z     vdW  Elec       q    Type
REMARK                         _______ _______ _______ _____ _____    ______ ____
ROOT
ATOM      1  N   UNL     1       2.018   7.490  20.567  0.00  0.00    +0.000 N 
ATOM      2  H   UNL     1       2.170   7.553  21.579  0.00  0.00    +0.000 HD
ENDROOT
BRANCH   1   3
ATOM      3  C   UNL     1       1.360   8.590  20.030  0.00  0.00    +0.000 C 
ATOM      4  C   UNL     1       0.678   9.586  20.619  0.00  0.00    +0.000 C 
ATOM      5  C   UNL     1       0.710   9.798  22.087  0.00  0.00    +0.000 C 
ATOM      6  O   UNL     1       1.660   9.429  22.779  0.00  0.00    +0.000 OA
ATOM      7  C   UNL     1      -0.486  10.468  22.720  0.00  0.00    +0.000 C 
ATOM      8  C   UNL     1      -1.031  11.626  21.873  0.00  0.00    +0.000 C 
ATOM      9  C   UNL     1      -2.339  12.147  22.505  0.00  0.00    +0.000 C 
ATOM     10  C   UNL     1       0.006  12.763  21.881  0.00  0.00    +0.000 C 
ATOM     11  C   UNL     1      -1.322  11.204  20.421  0.00  0.00    +0.000 C 
ATOM     12  C   UNL     1      -0.219  10.406  19.753  0.00  0.00    +0.000 C 
ATOM     13  O   UNL     1      -0.162  10.355  18.523  0.00  0.00    +0.000 OA
ENDBRANCH   1   3
BRANCH   1  18
ATOM     14  C   UNL     1       2.904   6.052  18.726  0.00  0.00    +0.000 A 
ATOM     15  C   UNL     1       2.779   4.669  18.343  0.00  0.00    +0.000 A 
ATOM     16  C   UNL     1       2.152   3.891  19.283  0.00  0.00    +0.000 A 
ATOM     17  S   UNL     1       1.668   4.815  20.616  0.00  0.00    +0.000 S 
ATOM     18  C   UNL     1       2.250   6.299  19.934  0.00  0.00    +0.000 A 
BRANCH  14  19
ATOM     19  C   UNL     1       3.592   7.024  17.891  0.00  0.00    +0.000 C 
ATOM     20  O   UNL     1       3.063   8.056  17.455  0.00  0.00    +0.000 OA
BRANCH  19  21
ATOM     21  O   UNL     1       4.855   6.610  17.555  0.00  0.00    +0.000 OA
BRANCH  21  23
ATOM     22  C   UNL     1       5.390   5.170  15.717  0.00  0.00    +0.000 C 
ATOM     23  C   UNL     1       5.133   6.604  16.155  0.00  0.00    +0.000 C 
ENDBRANCH  21  23
ENDBRANCH  19  21
ENDBRANCH  14  19
BRANCH  16  24
ATOM     24  C   UNL     1       1.897   2.420  19.247  0.00  0.00    +0.000 C 
ATOM     25  C   UNL     1       2.906   1.690  18.377  0.00  0.00    +0.000 C 
ENDBRANCH  16  24
ENDBRANCH   1  18
TORSDOF 6
ENDMDL
