MODEL 1
REMARK VINA RESULT:      -7.0      0.000      0.000
REMARK  Name = 
REMARK  9 active torsions:
REMARK  status: ('A' for Active; 'I' for Inactive)
REMARK    1  A    between atoms: C_1  and  O_2
REMARK    2  A    between atoms: O_2  and  C_3
REMARK    3  A    between atoms: C_3  and  C_4
REMARK    4  A    between atoms: C_3  and  C_18
REMARK    5  A    between atoms: C_4  and  N_13
REMARK    6  A    between atoms: C_5  and  C_6
REMARK    7  A    between atoms: C_18  and  C_19
REMARK    8  A    between atoms: C_18  and  C_20
REMARK    9  A    between atoms: C_18  and  C_21
REMARK                            x       y       z     vdW  Elec       q    Type
REMARK                         _______ _______ _______ _____ _____    ______ ____
ROOT
ATOM      1  C   UNL     1       5.324   4.520  15.961  0.00  0.00    +0.000 C 
ATOM      2  C   UNL     1       4.571   3.458  16.365  0.00  0.00    +0.000 C 
ENDROOT
BRANCH   2   3
ATOM      3  C   UNL     1       3.744   3.308  17.570  0.00  0.00    +0.000 A 
ATOM      4  C   UNL     1       2.385   3.640  17.503  0.00  0.00    +0.000 A 
ATOM      5  C   UNL     1       1.574   3.569  18.636  0.00  0.00    +0.000 A 
ATOM      6  C   UNL     1       2.108   3.100  19.831  0.00  0.00    +0.000 A 
ATOM      7 CL   UNL     1       1.122   3.046  21.239  0.00  0.00    +0.000 Cl
ATOM      8  C   UNL     1       3.436   2.679  19.890  0.00  0.00    +0.000 A 
ATOM      9  C   UNL     1       4.258   2.787  18.761  0.00  0.00    +0.000 A 
ENDBRANCH   2   3
BRANCH   1  10
ATOM     10  N   UNL     1       5.978   4.473  14.688  0.00  0.00    +0.000 N 
ATOM     11  C   UNL     1       5.598   3.702  13.596  0.00  0.00    +0.000 A 
ATOM     12  C   UNL     1       6.532   3.883  12.611  0.00  0.00    +0.000 A 
ATOM     13  N   UNL     1       7.475   4.771  13.014  0.00  0.00    +0.000 NA
ATOM     14  C   UNL     1       7.102   5.132  14.222  0.00  0.00    +0.000 A 
ENDBRANCH   1  10
BRANCH   1  15
ATOM     15  C   UNL     1       5.513   5.767  16.868  0.00  0.00    +0.000 C 
BRANCH  15  16
ATOM     16  C   UNL     1       6.709   5.675  17.908  0.00  0.00    +0.000 C 
ATOM     17  C   UNL     1       7.659   4.509  17.598  0.00  0.00    +0.000 C 
ATOM     18  C   UNL     1       7.561   6.968  17.857  0.00  0.00    +0.000 C 
ATOM     19  C   UNL     1       6.220   5.494  19.357  0.00  0.00    +0.000 C 
ENDBRANCH  15  16
BRANCH  15  21
ATOM     20  C   UNL     1       3.786   7.372  17.439  0.00  0.00    +0.000 C 
ATOM     21  O   UNL     1       4.320   6.068  17.616  0.00  0.00    +0.000 OA
ENDBRANCH  15  21
ENDBRANCH   1  15
TORSDOF 5
ENDMDL
MODEL 2
REMARK VINA RESULT:      -7.0      0.113      1.058
REMARK  Name = 
REMARK  9 active torsions:
REMARK  status: ('A' for Active; 'I' for Inactive)
REMARK    1  A    between atoms: C_1  and  O_2
REMARK    2  A    between atoms: O_2  and  C_3
REMARK    3  A    between atoms: C_3  and  C_4
REMARK    4  A    between atoms: C_3  and  C_18
REMARK    5  A    between atoms: C_4  and  N_13
REMARK    6  A    between atoms: C_5  and  C_6
REMARK    7  A    between atoms: C_18  and  C_19
REMARK    8  A    between atoms: C_18  and  C_20
REMARK    9  A    between atoms: C_18  and  C_21
REMARK                            x       y       z     vdW  Elec       q    Type
REMARK                         _______ _______ _______ _____ _____    ______ ____
ROOT
ATOM      1  C   UNL     1       5.293   4.572  15.997  0.00  0.00    +0.000 C 
ATOM      2  C   UNL     1       4.502   3.538  16.401  0.00  0.00    +0.000 C 
ENDROOT
BRANCH   2   3
ATOM      3  C   UNL     1       3.670   3.418  17.605  0.00  0.00    +0.000 A 
ATOM      4  C   UNL     1       4.246   2.908  18.777  0.00  0.00    +0.000 A 
ATOM      5  C   UNL     1       3.481   2.721  19.928  0.00  0.00    +0.000 A 
ATOM      6  C   UNL     1       2.145   3.109  19.932  0.00  0.00    +0.000 A 
ATOM      7 CL   UNL     1       1.189   2.847  21.337  0.00  0.00    +0.000 Cl
ATOM      8  C   UNL     1       1.583   3.704  18.803  0.00  0.00    +0.000 A 
ATOM      9  C   UNL     1       2.343   3.855  17.636  0.00  0.00    +0.000 A 
ENDBRANCH   2   3
BRANCH   1  10
ATOM     10  N   UNL     1       5.946   4.501  14.724  0.00  0.00    +0.000 N 
ATOM     11  C   UNL     1       5.566   3.707  13.648  0.00  0.00    +0.000 A 
ATOM     12  C   UNL     1       6.498   3.870  12.658  0.00  0.00    +0.000 A 
ATOM     13  N   UNL     1       7.439   4.768  13.042  0.00  0.00    +0.000 NA
ATOM     14  C   UNL     1       7.067   5.153  14.243  0.00  0.00    +0.000 A 
ENDBRANCH   1  10
BRANCH   1  15
ATOM     15  C   UNL     1       5.527   5.812  16.903  0.00  0.00    +0.000 C 
BRANCH  15  16
ATOM     16  C   UNL     1       6.737   5.690  17.922  0.00  0.00    +0.000 C 
ATOM     17  C   UNL     1       7.656   4.505  17.591  0.00  0.00    +0.000 C 
ATOM     18  C   UNL     1       7.616   6.964  17.862  0.00  0.00    +0.000 C 
ATOM     19  C   UNL     1       6.269   5.512  19.378  0.00  0.00    +0.000 C 
ENDBRANCH  15  16
BRANCH  15  21
ATOM     20  C   UNL     1       3.776   7.411  17.416  0.00  0.00    +0.000 C 
ATOM     21  O   UNL     1       4.353   6.138  17.671  0.00  0.00    +0.000 OA
ENDBRANCH  15  21
ENDBRANCH   1  15
TORSDOF 5
ENDMDL
MODEL 3
REMARK VINA RESULT:      -6.9      0.407      1.227
REMARK  Name = 
REMARK  9 active torsions:
REMARK  status: ('A' for Active; 'I' for Inactive)
REMARK    1  A    between atoms: C_1  and  O_2
REMARK    2  A    between atoms: O_2  and  C_3
REMARK    3  A    between atoms: C_3  and  C_4
REMARK    4  A    between atoms: C_3  and  C_18
REMARK    5  A    between atoms: C_4  and  N_13
REMARK    6  A    between atoms: C_5  and  C_6
REMARK    7  A    between atoms: C_18  and  C_19
REMARK    8  A    between atoms: C_18  and  C_20
REMARK    9  A    between atoms: C_18  and  C_21
REMARK                            x       y       z     vdW  Elec       q    Type
REMARK                         _______ _______ _______ _____ _____    ______ ____
ROOT
ATOM      1  C   UNL     1       5.409   4.508  15.944  0.00  0.00    +0.000 C 
ATOM      2  C   UNL     1       4.640   3.454  16.338  0.00  0.00    +0.000 C 
ENDROOT
BRANCH   2   3
ATOM      3  C   UNL     1       3.789   3.316  17.528  0.00  0.00    +0.000 A 
ATOM      4  C   UNL     1       2.431   3.647  17.430  0.00  0.00    +0.000 A 
ATOM      5  C   UNL     1       1.598   3.588  18.547  0.00  0.00    +0.000 A 
ATOM      6  C   UNL     1       2.108   3.133  19.758  0.00  0.00    +0.000 A 
ATOM      7 CL   UNL     1       1.093   3.093  21.146  0.00  0.00    +0.000 Cl
ATOM      8  C   UNL     1       3.435   2.712  19.848  0.00  0.00    +0.000 A 
ATOM      9  C   UNL     1       4.279   2.808  18.734  0.00  0.00    +0.000 A 
ENDBRANCH   2   3
BRANCH   1  10
ATOM     10  N   UNL     1       6.088   4.449  14.684  0.00  0.00    +0.000 N 
ATOM     11  C   UNL     1       7.183   5.216  14.303  0.00  0.00    +0.000 A 
ATOM     12  C   UNL     1       7.472   4.913  12.999  0.00  0.00    +0.000 A 
ATOM     13  N   UNL     1       6.631   3.953  12.541  0.00  0.00    +0.000 NA
ATOM     14  C   UNL     1       5.855   3.671  13.565  0.00  0.00    +0.000 A 
ENDBRANCH   1  10
BRANCH   1  15
ATOM     15  C   UNL     1       5.592   5.757  16.848  0.00  0.00    +0.000 C 
BRANCH  15  16
ATOM     16  C   UNL     1       6.776   5.666  17.901  0.00  0.00    +0.000 C 
ATOM     17  C   UNL     1       7.641   6.935  17.914  0.00  0.00    +0.000 C 
ATOM     18  C   UNL     1       6.205   5.503  19.332  0.00  0.00    +0.000 C 
ATOM     19  C   UNL     1       7.716   4.475  17.634  0.00  0.00    +0.000 C 
ENDBRANCH  15  16
BRANCH  15  21
ATOM     20  C   UNL     1       3.831   7.348  17.351  0.00  0.00    +0.000 C 
ATOM     21  O   UNL     1       4.392   6.063  17.582  0.00  0.00    +0.000 OA
ENDBRANCH  15  21
ENDBRANCH   1  15
TORSDOF 5
ENDMDL
MODEL 4
REMARK VINA RESULT:      -6.2      2.241      3.271
REMARK  Name = 
REMARK  9 active torsions:
REMARK  status: ('A' for Active; 'I' for Inactive)
REMARK    1  A    between atoms: C_1  and  O_2
REMARK    2  A    between atoms: O_2  and  C_3
REMARK    3  A    between atoms: C_3  and  C_4
REMARK    4  A    between atoms: C_3  and  C_18
REMARK    5  A    between atoms: C_4  and  N_13
REMARK    6  A    between atoms: C_5  and  C_6
REMARK    7  A    between atoms: C_18  and  C_19
REMARK    8  A    between atoms: C_18  and  C_20
REMARK    9  A    between atoms: C_18  and  C_21
REMARK                            x       y       z     vdW  Elec       q    Type
REMARK                         _______ _______ _______ _____ _____    ______ ____
ROOT
ATOM      1  C   UNL     1       4.836   5.371  17.275  0.00  0.00    +0.000 C 
ATOM      2  C   UNL     1       3.624   5.994  17.279  0.00  0.00    +0.000 C 
ENDROOT
BRANCH   2   3
ATOM      3  C   UNL     1       2.907   6.626  18.393  0.00  0.00    +0.000 A 
ATOM      4  C   UNL     1       2.508   7.964  18.269  0.00  0.00    +0.000 A 
ATOM      5  C   UNL     1       1.876   8.624  19.323  0.00  0.00    +0.000 A 
ATOM      6  C   UNL     1       1.580   7.924  20.488  0.00  0.00    +0.000 A 
ATOM      7 CL   UNL     1       0.833   8.743  21.804  0.00  0.00    +0.000 Cl
ATOM      8  C   UNL     1       1.887   6.568  20.591  0.00  0.00    +0.000 A 
ATOM      9  C   UNL     1       2.555   5.918  19.546  0.00  0.00    +0.000 A 
ENDBRANCH   2   3
BRANCH   1  10
ATOM     10  N   UNL     1       5.383   4.907  16.035  0.00  0.00    +0.000 N 
ATOM     11  C   UNL     1       5.485   3.582  15.626  0.00  0.00    +0.000 A 
ATOM     12  C   UNL     1       6.139   3.565  14.423  0.00  0.00    +0.000 A 
ATOM     13  N   UNL     1       6.426   4.829  14.026  0.00  0.00    +0.000 NA
ATOM     14  C   UNL     1       5.934   5.598  14.972  0.00  0.00    +0.000 A 
ENDBRANCH   1  10
BRANCH   1  15
ATOM     15  C   UNL     1       5.622   5.124  18.592  0.00  0.00    +0.000 C 
BRANCH  15  16
ATOM     16  C   UNL     1       7.135   5.604  18.580  0.00  0.00    +0.000 C 
ATOM     17  C   UNL     1       7.714   5.732  19.996  0.00  0.00    +0.000 C 
ATOM     18  C   UNL     1       8.015   4.572  17.831  0.00  0.00    +0.000 C 
ATOM     19  C   UNL     1       7.318   6.966  17.886  0.00  0.00    +0.000 C 
ENDBRANCH  15  16
BRANCH  15  21
ATOM     20  C   UNL     1       4.415   3.243  19.535  0.00  0.00    +0.000 C 
ATOM     21  O   UNL     1       5.619   3.733  18.961  0.00  0.00    +0.000 OA
ENDBRANCH  15  21
ENDBRANCH   1  15
TORSDOF 5
ENDMDL
MODEL 5
REMARK VINA RESULT:      -6.2      1.051      1.958
REMARK  Name = 
REMARK  9 active torsions:
REMARK  status: ('A' for Active; 'I' for Inactive)
REMARK    1  A    between atoms: C_1  and  O_2
REMARK    2  A    between atoms: O_2  and  C_3
REMARK    3  A    between atoms: C_3  and  C_4
REMARK    4  A    between atoms: C_3  and  C_18
REMARK    5  A    between atoms: C_4  and  N_13
REMARK    6  A    between atoms: C_5  and  C_6
REMARK    7  A    between atoms: C_18  and  C_19
REMARK    8  A    between atoms: C_18  and  C_20
REMARK    9  A    between atoms: C_18  and  C_21
REMARK                            x       y       z     vdW  Elec       q    Type
REMARK                         _______ _______ _______ _____ _____    ______ ____
ROOT
ATOM      1  C   UNL     1       5.385   4.193  15.915  0.00  0.00    +0.000 C 
ATOM      2  C   UNL     1       4.341   3.358  16.177  0.00  0.00    +0.000 C 
ENDROOT
BRANCH   2   3
ATOM      3  C   UNL     1       3.536   3.230  17.399  0.00  0.00    +0.000 A 
ATOM      4  C   UNL     1       2.263   3.816  17.435  0.00  0.00    +0.000 A 
ATOM      5  C   UNL     1       1.487   3.771  18.594  0.00  0.00    +0.000 A 
ATOM      6  C   UNL     1       1.956   3.078  19.705  0.00  0.00    +0.000 A 
ATOM      7 CL   UNL     1       1.018   3.051  21.146  0.00  0.00    +0.000 Cl
ATOM      8  C   UNL     1       3.180   2.411  19.652  0.00  0.00    +0.000 A 
ATOM      9  C   UNL     1       3.974   2.490  18.501  0.00  0.00    +0.000 A 
ENDBRANCH   2   3
BRANCH   1  10
ATOM     10  N   UNL     1       5.963   4.205  14.604  0.00  0.00    +0.000 N 
ATOM     11  C   UNL     1       5.462   3.559  13.479  0.00  0.00    +0.000 A 
ATOM     12  C   UNL     1       6.352   3.753  12.456  0.00  0.00    +0.000 A 
ATOM     13  N   UNL     1       7.383   4.530  12.870  0.00  0.00    +0.000 NA
ATOM     14  C   UNL     1       7.107   4.814  14.124  0.00  0.00    +0.000 A 
ENDBRANCH   1  10
BRANCH   1  15
ATOM     15  C   UNL     1       5.984   5.109  17.018  0.00  0.00    +0.000 C 
BRANCH  15  16
ATOM     16  C   UNL     1       5.474   6.612  17.003  0.00  0.00    +0.000 C 
ATOM     17  C   UNL     1       4.892   7.013  15.641  0.00  0.00    +0.000 C 
ATOM     18  C   UNL     1       4.342   6.801  18.044  0.00  0.00    +0.000 C 
ATOM     19  C   UNL     1       6.590   7.619  17.338  0.00  0.00    +0.000 C 
ENDBRANCH  15  16
BRANCH  15  21
ATOM     20  C   UNL     1       8.108   4.456  17.990  0.00  0.00    +0.000 C 
ATOM     21  O   UNL     1       7.422   5.146  16.955  0.00  0.00    +0.000 OA
ENDBRANCH  15  21
ENDBRANCH   1  15
TORSDOF 5
ENDMDL
MODEL 6
REMARK VINA RESULT:      -6.2      1.054      2.209
REMARK  Name = 
REMARK  9 active torsions:
REMARK  status: ('A' for Active; 'I' for Inactive)
REMARK    1  A    between atoms: C_1  and  O_2
REMARK    2  A    between atoms: O_2  and  C_3
REMARK    3  A    between atoms: C_3  and  C_4
REMARK    4  A    between atoms: C_3  and  C_18
REMARK    5  A    between atoms: C_4  and  N_13
REMARK    6  A    between atoms: C_5  and  C_6
REMARK    7  A    between atoms: C_18  and  C_19
REMARK    8  A    between atoms: C_18  and  C_20
REMARK    9  A    between atoms: C_18  and  C_21
REMARK                            x       y       z     vdW  Elec       q    Type
REMARK                         _______ _______ _______ _____ _____    ______ ____
ROOT
ATOM      1  C   UNL     1       5.353   4.214  15.928  0.00  0.00    +0.000 C 
ATOM      2  C   UNL     1       4.271   3.427  16.189  0.00  0.00    +0.000 C 
ENDROOT
BRANCH   2   3
ATOM      3  C   UNL     1       3.460   3.336  17.410  0.00  0.00    +0.000 A 
ATOM      4  C   UNL     1       3.988   2.671  18.524  0.00  0.00    +0.000 A 
ATOM      5  C   UNL     1       3.232   2.509  19.686  0.00  0.00    +0.000 A 
ATOM      6  C   UNL     1       1.962   3.072  19.760  0.00  0.00    +0.000 A 
ATOM      7 CL   UNL     1       1.013   2.844  21.176  0.00  0.00    +0.000 Cl
ATOM      8  C   UNL     1       1.460   3.817  18.693  0.00  0.00    +0.000 A 
ATOM      9  C   UNL     1       2.206   3.946  17.514  0.00  0.00    +0.000 A 
ENDBRANCH   2   3
BRANCH   1  10
ATOM     10  N   UNL     1       5.932   4.199  14.618  0.00  0.00    +0.000 N 
ATOM     11  C   UNL     1       5.443   3.514  13.511  0.00  0.00    +0.000 A 
ATOM     12  C   UNL     1       6.331   3.695  12.483  0.00  0.00    +0.000 A 
ATOM     13  N   UNL     1       7.349   4.500  12.876  0.00  0.00    +0.000 NA
ATOM     14  C   UNL     1       7.067   4.814  14.122  0.00  0.00    +0.000 A 
ENDBRANCH   1  10
BRANCH   1  15
ATOM     15  C   UNL     1       5.993   5.100  17.032  0.00  0.00    +0.000 C 
BRANCH  15  16
ATOM     16  C   UNL     1       5.529   6.618  17.037  0.00  0.00    +0.000 C 
ATOM     17  C   UNL     1       4.909   7.040  15.697  0.00  0.00    +0.000 C 
ATOM     18  C   UNL     1       4.442   6.840  18.119  0.00  0.00    +0.000 C 
ATOM     19  C   UNL     1       6.687   7.590  17.331  0.00  0.00    +0.000 C 
ENDBRANCH  15  16
BRANCH  15  21
ATOM     20  C   UNL     1       8.111   4.480  18.037  0.00  0.00    +0.000 C 
ATOM     21  O   UNL     1       7.430   5.094  16.952  0.00  0.00    +0.000 OA
ENDBRANCH  15  21
ENDBRANCH   1  15
TORSDOF 5
ENDMDL
MODEL 7
REMARK VINA RESULT:      -6.0      2.657      4.459
REMARK  Name = 
REMARK  9 active torsions:
REMARK  status: ('A' for Active; 'I' for Inactive)
REMARK    1  A    between atoms: C_1  and  O_2
REMARK    2  A    between atoms: O_2  and  C_3
REMARK    3  A    between atoms: C_3  and  C_4
REMARK    4  A    between atoms: C_3  and  C_18
REMARK    5  A    between atoms: C_4  and  N_13
REMARK    6  A    between atoms: C_5  and  C_6
REMARK    7  A    between atoms: C_18  and  C_19
REMARK    8  A    between atoms: C_18  and  C_20
REMARK    9  A    between atoms: C_18  and  C_21
REMARK                            x       y       z     vdW  Elec       q    Type
REMARK                         _______ _______ _______ _____ _____    ______ ____
ROOT
ATOM      1  C   UNL     1       4.009   5.903  17.450  0.00  0.00    +0.000 C 
ATOM      2  C   UNL     1       3.727   7.236  17.490  0.00  0.00    +0.000 C 
ENDROOT
BRANCH   2   3
ATOM      3  C   UNL     1       2.717   7.950  18.282  0.00  0.00    +0.000 A 
ATOM      4  C   UNL     1       2.040   9.030  17.699  0.00  0.00    +0.000 A 
ATOM      5  C   UNL     1       1.115   9.774  18.432  0.00  0.00    +0.000 A 
ATOM      6  C   UNL     1       0.813   9.398  19.736  0.00  0.00    +0.000 A 
ATOM      7 CL   UNL     1      -0.299  10.334  20.655  0.00  0.00    +0.000 Cl
ATOM      8  C   UNL     1       1.410   8.269  20.298  0.00  0.00    +0.000 A 
ATOM      9  C   UNL     1       2.367   7.546  19.573  0.00  0.00    +0.000 A 
ENDBRANCH   2   3
BRANCH   1  10
ATOM     10  N   UNL     1       5.113   5.442  16.662  0.00  0.00    +0.000 N 
ATOM     11  C   UNL     1       5.091   4.394  15.749  0.00  0.00    +0.000 A 
ATOM     12  C   UNL     1       6.366   4.225  15.276  0.00  0.00    +0.000 A 
ATOM     13  N   UNL     1       7.196   5.149  15.821  0.00  0.00    +0.000 NA
ATOM     14  C   UNL     1       6.425   5.876  16.600  0.00  0.00    +0.000 A 
ENDBRANCH   1  10
BRANCH   1  15
ATOM     15  C   UNL     1       3.137   4.869  18.215  0.00  0.00    +0.000 C 
BRANCH  15  16
ATOM     16  C   UNL     1       3.913   3.977  19.273  0.00  0.00    +0.000 C 
ATOM     17  C   UNL     1       3.122   3.805  20.578  0.00  0.00    +0.000 C 
ATOM     18  C   UNL     1       4.146   2.555  18.703  0.00  0.00    +0.000 C 
ATOM     19  C   UNL     1       5.288   4.563  19.646  0.00  0.00    +0.000 C 
ENDBRANCH  15  16
BRANCH  15  21
ATOM     20  C   UNL     1       1.057   3.856  17.484  0.00  0.00    +0.000 C 
ATOM     21  O   UNL     1       2.463   3.972  17.313  0.00  0.00    +0.000 OA
ENDBRANCH  15  21
ENDBRANCH   1  15
TORSDOF 5
ENDMDL
MODEL 8
REMARK VINA RESULT:      -6.0      8.811     10.834
REMARK  Name = 
REMARK  9 active torsions:
REMARK  status: ('A' for Active; 'I' for Inactive)
REMARK    1  A    between atoms: C_1  and  O_2
REMARK    2  A    between atoms: O_2  and  C_3
REMARK    3  A    between atoms: C_3  and  C_4
REMARK    4  A    between atoms: C_3  and  C_18
REMARK    5  A    between atoms: C_4  and  N_13
REMARK    6  A    between atoms: C_5  and  C_6
REMARK    7  A    between atoms: C_18  and  C_19
REMARK    8  A    between atoms: C_18  and  C_20
REMARK    9  A    between atoms: C_18  and  C_21
REMARK                            x       y       z     vdW  Elec       q    Type
REMARK                         _______ _______ _______ _____ _____    ______ ____
ROOT
ATOM      1  C   UNL     1       9.572  14.132  20.035  0.00  0.00    +0.000 C 
ATOM      2  C   UNL     1       9.185  14.337  21.325  0.00  0.00    +0.000 C 
ENDROOT
BRANCH   2   3
ATOM      3  C   UNL     1       8.362  13.486  22.195  0.00  0.00    +0.000 A 
ATOM      4  C   UNL     1       6.981  13.716  22.256  0.00  0.00    +0.000 A 
ATOM      5  C   UNL     1       6.169  12.973  23.112  0.00  0.00    +0.000 A 
ATOM      6  C   UNL     1       6.728  11.946  23.866  0.00  0.00    +0.000 A 
ATOM      7 CL   UNL     1       5.736  11.051  24.950  0.00  0.00    +0.000 Cl
ATOM      8  C   UNL     1       8.084  11.645  23.747  0.00  0.00    +0.000 A 
ATOM      9  C   UNL     1       8.904  12.418  22.915  0.00  0.00    +0.000 A 
ENDBRANCH   2   3
BRANCH   1  10
ATOM     10  N   UNL     1      10.462  15.066  19.412  0.00  0.00    +0.000 N 
ATOM     11  C   UNL     1      10.113  16.298  18.870  0.00  0.00    +0.000 A 
ATOM     12  C   UNL     1      11.237  16.838  18.303  0.00  0.00    +0.000 A 
ATOM     13  N   UNL     1      12.300  16.019  18.494  0.00  0.00    +0.000 NA
ATOM     14  C   UNL     1      11.825  15.006  19.183  0.00  0.00    +0.000 A 
ENDBRANCH   1  10
BRANCH   1  15
ATOM     15  C   UNL     1       9.043  12.923  19.214  0.00  0.00    +0.000 C 
BRANCH  15  16
ATOM     16  C   UNL     1      10.034  11.688  19.110  0.00  0.00    +0.000 C 
ATOM     17  C   UNL     1      10.781  11.655  17.769  0.00  0.00    +0.000 C 
ATOM     18  C   UNL     1      11.113  11.775  20.218  0.00  0.00    +0.000 C 
ATOM     19  C   UNL     1       9.312  10.336  19.264  0.00  0.00    +0.000 C 
ENDBRANCH  15  16
BRANCH  15  21
ATOM     20  C   UNL     1       7.421  13.913  17.706  0.00  0.00    +0.000 C 
ATOM     21  O   UNL     1       8.695  13.305  17.870  0.00  0.00    +0.000 OA
ENDBRANCH  15  21
ENDBRANCH   1  15
TORSDOF 5
ENDMDL
MODEL 9
REMARK VINA RESULT:      -6.0      2.599      4.497
REMARK  Name = 
REMARK  9 active torsions:
REMARK  status: ('A' for Active; 'I' for Inactive)
REMARK    1  A    between atoms: C_1  and  O_2
REMARK    2  A    between atoms: O_2  and  C_3
REMARK    3  A    between atoms: C_3  and  C_4
REMARK    4  A    between atoms: C_3  and  C_18
REMARK    5  A    between atoms: C_4  and  N_13
REMARK    6  A    between atoms: C_5  and  C_6
REMARK    7  A    between atoms: C_18  and  C_19
REMARK    8  A    between atoms: C_18  and  C_20
REMARK    9  A    between atoms: C_18  and  C_21
REMARK                            x       y       z     vdW  Elec       q    Type
REMARK                         _______ _______ _______ _____ _____    ______ ____
ROOT
ATOM      1  C   UNL     1       4.036   5.872  17.412  0.00  0.00    +0.000 C 
ATOM      2  C   UNL     1       3.768   7.208  17.427  0.00  0.00    +0.000 C 
ENDROOT
BRANCH   2   3
ATOM      3  C   UNL     1       2.766   7.948  18.206  0.00  0.00    +0.000 A 
ATOM      4  C   UNL     1       2.500   7.544  19.521  0.00  0.00    +0.000 A 
ATOM      5  C   UNL     1       1.516   8.179  20.279  0.00  0.00    +0.000 A 
ATOM      6  C   UNL     1       0.836   9.269  19.744  0.00  0.00    +0.000 A 
ATOM      7 CL   UNL     1      -0.403  10.031  20.661  0.00  0.00    +0.000 Cl
ATOM      8  C   UNL     1       1.156   9.740  18.471  0.00  0.00    +0.000 A 
ATOM      9  C   UNL     1       2.118   9.076  17.698  0.00  0.00    +0.000 A 
ENDBRANCH   2   3
BRANCH   1  10
ATOM     10  N   UNL     1       5.134   5.384  16.633  0.00  0.00    +0.000 N 
ATOM     11  C   UNL     1       5.088   4.355  15.699  0.00  0.00    +0.000 A 
ATOM     12  C   UNL     1       6.362   4.147  15.243  0.00  0.00    +0.000 A 
ATOM     13  N   UNL     1       7.218   5.029  15.818  0.00  0.00    +0.000 NA
ATOM     14  C   UNL     1       6.462   5.769  16.598  0.00  0.00    +0.000 A 
ENDBRANCH   1  10
BRANCH   1  15
ATOM     15  C   UNL     1       3.154   4.862  18.197  0.00  0.00    +0.000 C 
BRANCH  15  16
ATOM     16  C   UNL     1       3.914   4.008  19.298  0.00  0.00    +0.000 C 
ATOM     17  C   UNL     1       3.088   3.850  20.582  0.00  0.00    +0.000 C 
ATOM     18  C   UNL     1       4.190   2.579  18.767  0.00  0.00    +0.000 C 
ATOM     19  C   UNL     1       5.266   4.628  19.697  0.00  0.00    +0.000 C 
ENDBRANCH  15  16
BRANCH  15  21
ATOM     20  C   UNL     1       1.083   3.855  17.434  0.00  0.00    +0.000 C 
ATOM     21  O   UNL     1       2.496   3.933  17.315  0.00  0.00    +0.000 OA
ENDBRANCH  15  21
ENDBRANCH   1  15
TORSDOF 5
ENDMDL
