MODEL 1
REMARK VINA RESULT:      -8.0      0.000      0.000
REMARK  Name = 
REMARK  8 active torsions:
REMARK  status: ('A' for Active; 'I' for Inactive)
REMARK    1  A    between atoms: C_1  and  O_2
REMARK    2  A    between atoms: O_2  and  C_3
REMARK    3  A    between atoms: C_3  and  C_4
REMARK    4  A    between atoms: C_4  and  C_5
REMARK    5  A    between atoms: C_5  and  N_6
REMARK    6  A    between atoms: C_9  and  C_10
REMARK    7  A    between atoms: C_13  and  C_14
REMARK    8  A    between atoms: C_21  and  C_22
REMARK                            x       y       z     vdW  Elec       q    Type
REMARK                         _______ _______ _______ _____ _____    ______ ____
ROOT
ATOM      1  C   UNL     1       4.667   5.710  17.969  0.00  0.00    +0.000 A 
ATOM      2  N   UNL     1       4.975   6.887  17.327  0.00  0.00    +0.000 N 
ATOM      3  N   UNL     1       4.119   7.886  17.505  0.00  0.00    +0.000 NA
ATOM      4  C   UNL     1       3.172   7.377  18.300  0.00  0.00    +0.000 A 
ATOM      5  C   UNL     1       3.427   5.976  18.579  0.00  0.00    +0.000 A 
ATOM      6  H   UNL     1       5.746   7.071  16.699  0.00  0.00    +0.000 HD
ENDROOT
BRANCH   4   7
ATOM      7  C   UNL     1       2.074   8.251  18.728  0.00  0.00    +0.000 A 
ATOM      8  C   UNL     1       1.379   9.040  17.793  0.00  0.00    +0.000 A 
ATOM      9  C   UNL     1       0.344   9.887  18.199  0.00  0.00    +0.000 A 
ATOM     10  C   UNL     1      -0.001   9.956  19.546  0.00  0.00    +0.000 A 
ATOM     11 CL   UNL     1      -1.256  11.013  20.060  0.00  0.00    +0.000 Cl
ATOM     12  C   UNL     1       0.677   9.179  20.488  0.00  0.00    +0.000 A 
ATOM     13  C   UNL     1       1.717   8.338  20.080  0.00  0.00    +0.000 A 
ENDBRANCH   4   7
BRANCH   1  17
ATOM     14  N   UNL     1       6.592   4.140  14.935  0.00  0.00    +0.000 NA
ATOM     15  C   UNL     1       7.107   5.162  15.847  0.00  0.00    +0.000 C 
ATOM     16  C   UNL     1       6.994   4.736  17.299  0.00  0.00    +0.000 C 
ATOM     17  C   UNL     1       5.557   4.476  17.766  0.00  0.00    +0.000 C 
ATOM     18  C   UNL     1       4.996   3.419  16.779  0.00  0.00    +0.000 C 
ATOM     19  C   UNL     1       5.213   3.762  15.287  0.00  0.00    +0.000 C 
BRANCH  14  20
ATOM     20  C   UNL     1       6.638   4.627  13.531  0.00  0.00    +0.000 C 
BRANCH  20  21
ATOM     21  C   UNL     1       6.731   3.515  12.469  0.00  0.00    +0.000 C 
BRANCH  21  22
ATOM     22  C   UNL     1       5.375   3.191  11.844  0.00  0.00    +0.000 C 
BRANCH  22  24
ATOM     23  C   UNL     1       6.689   1.387  11.067  0.00  0.00    +0.000 C 
ATOM     24  O   UNL     1       5.378   1.841  11.380  0.00  0.00    +0.000 OA
ENDBRANCH  22  24
ENDBRANCH  21  22
ENDBRANCH  20  21
ENDBRANCH  14  20
ENDBRANCH   1  17
BRANCH   5  25
ATOM     25  C   UNL     1       2.533   5.035  19.284  0.00  0.00    +0.000 A 
ATOM     26  C   UNL     1       2.609   4.884  20.674  0.00  0.00    +0.000 A 
ATOM     27  C   UNL     1       1.840   3.914  21.306  0.00  0.00    +0.000 A 
ATOM     28  N   UNL     1       0.957   3.122  20.670  0.00  0.00    +0.000 NA
ATOM     29  C   UNL     1       0.867   3.293  19.343  0.00  0.00    +0.000 A 
ATOM     30  C   UNL     1       1.637   4.200  18.628  0.00  0.00    +0.000 A 
ENDBRANCH   5  25
TORSDOF 7
ENDMDL
MODEL 2
REMARK VINA RESULT:      -7.9      0.437      1.114
REMARK  Name = 
REMARK  8 active torsions:
REMARK  status: ('A' for Active; 'I' for Inactive)
REMARK    1  A    between atoms: C_1  and  O_2
REMARK    2  A    between atoms: O_2  and  C_3
REMARK    3  A    between atoms: C_3  and  C_4
REMARK    4  A    between atoms: C_4  and  C_5
REMARK    5  A    between atoms: C_5  and  N_6
REMARK    6  A    between atoms: C_9  and  C_10
REMARK    7  A    between atoms: C_13  and  C_14
REMARK    8  A    between atoms: C_21  and  C_22
REMARK                            x       y       z     vdW  Elec       q    Type
REMARK                         _______ _______ _______ _____ _____    ______ ____
ROOT
ATOM      1  C   UNL     1       4.710   5.668  18.036  0.00  0.00    +0.000 A 
ATOM      2  N   UNL     1       5.065   6.838  17.409  0.00  0.00    +0.000 N 
ATOM      3  N   UNL     1       4.221   7.853  17.553  0.00  0.00    +0.000 NA
ATOM      4  C   UNL     1       3.233   7.361  18.307  0.00  0.00    +0.000 A 
ATOM      5  C   UNL     1       3.450   5.956  18.595  0.00  0.00    +0.000 A 
ATOM      6  H   UNL     1       5.866   7.009  16.813  0.00  0.00    +0.000 HD
ENDROOT
BRANCH   4   7
ATOM      7  C   UNL     1       2.135   8.255  18.690  0.00  0.00    +0.000 A 
ATOM      8  C   UNL     1       1.734   8.363  20.035  0.00  0.00    +0.000 A 
ATOM      9  C   UNL     1       0.676   9.199  20.403  0.00  0.00    +0.000 A 
ATOM     10  C   UNL     1       0.006   9.932  19.426  0.00  0.00    +0.000 A 
ATOM     11 CL   UNL     1      -1.312  10.945  19.864  0.00  0.00    +0.000 Cl
ATOM     12  C   UNL     1       0.391   9.839  18.088  0.00  0.00    +0.000 A 
ATOM     13  C   UNL     1       1.444   8.995  17.721  0.00  0.00    +0.000 A 
ENDBRANCH   4   7
BRANCH   1  17
ATOM     14  N   UNL     1       6.735   4.067  15.084  0.00  0.00    +0.000 NA
ATOM     15  C   UNL     1       7.229   5.078  16.021  0.00  0.00    +0.000 C 
ATOM     16  C   UNL     1       7.045   4.652  17.466  0.00  0.00    +0.000 C 
ATOM     17  C   UNL     1       5.585   4.417  17.868  0.00  0.00    +0.000 C 
ATOM     18  C   UNL     1       5.047   3.373  16.856  0.00  0.00    +0.000 C 
ATOM     19  C   UNL     1       5.335   3.715  15.375  0.00  0.00    +0.000 C 
BRANCH  14  20
ATOM     20  C   UNL     1       6.851   4.557  13.685  0.00  0.00    +0.000 C 
BRANCH  20  21
ATOM     21  C   UNL     1       5.777   4.011  12.725  0.00  0.00    +0.000 C 
BRANCH  21  22
ATOM     22  C   UNL     1       6.256   2.783  11.952  0.00  0.00    +0.000 C 
BRANCH  22  24
ATOM     23  C   UNL     1       4.042   3.052  11.171  0.00  0.00    +0.000 C 
ATOM     24  O   UNL     1       5.141   2.161  11.314  0.00  0.00    +0.000 OA
ENDBRANCH  22  24
ENDBRANCH  21  22
ENDBRANCH  20  21
ENDBRANCH  14  20
ENDBRANCH   1  17
BRANCH   5  25
ATOM     25  C   UNL     1       2.511   5.032  19.261  0.00  0.00    +0.000 A 
ATOM     26  C   UNL     1       2.533   4.870  20.652  0.00  0.00    +0.000 A 
ATOM     27  C   UNL     1       1.720   3.915  21.249  0.00  0.00    +0.000 A 
ATOM     28  N   UNL     1       0.843   3.146  20.576  0.00  0.00    +0.000 NA
ATOM     29  C   UNL     1       0.806   3.326  19.248  0.00  0.00    +0.000 A 
ATOM     30  C   UNL     1       1.621   4.220  18.567  0.00  0.00    +0.000 A 
ENDBRANCH   5  25
TORSDOF 7
ENDMDL
MODEL 3
REMARK VINA RESULT:      -7.8      0.204      1.261
REMARK  Name = 
REMARK  8 active torsions:
REMARK  status: ('A' for Active; 'I' for Inactive)
REMARK    1  A    between atoms: C_1  and  O_2
REMARK    2  A    between atoms: O_2  and  C_3
REMARK    3  A    between atoms: C_3  and  C_4
REMARK    4  A    between atoms: C_4  and  C_5
REMARK    5  A    between atoms: C_5  and  N_6
REMARK    6  A    between atoms: C_9  and  C_10
REMARK    7  A    between atoms: C_13  and  C_14
REMARK    8  A    between atoms: C_21  and  C_22
REMARK                            x       y       z     vdW  Elec       q    Type
REMARK                         _______ _______ _______ _____ _____    ______ ____
ROOT
ATOM      1  C   UNL     1       4.777   5.638  17.803  0.00  0.00    +0.000 A 
ATOM      2  N   UNL     1       5.084   6.823  17.175  0.00  0.00    +0.000 N 
ATOM      3  N   UNL     1       4.237   7.824  17.380  0.00  0.00    +0.000 NA
ATOM      4  C   UNL     1       3.297   7.309  18.178  0.00  0.00    +0.000 A 
ATOM      5  C   UNL     1       3.546   5.902  18.432  0.00  0.00    +0.000 A 
ATOM      6  H   UNL     1       5.849   7.013  16.541  0.00  0.00    +0.000 HD
ENDROOT
BRANCH   4   7
ATOM      7  C   UNL     1       2.210   8.182  18.634  0.00  0.00    +0.000 A 
ATOM      8  C   UNL     1       1.815   8.191  19.985  0.00  0.00    +0.000 A 
ATOM      9  C   UNL     1       0.768   9.008  20.420  0.00  0.00    +0.000 A 
ATOM     10  C   UNL     1       0.103   9.821  19.505  0.00  0.00    +0.000 A 
ATOM     11 CL   UNL     1      -1.202  10.812  20.025  0.00  0.00    +0.000 Cl
ATOM     12  C   UNL     1       0.482   9.827  18.162  0.00  0.00    +0.000 A 
ATOM     13  C   UNL     1       1.525   9.002  17.727  0.00  0.00    +0.000 A 
ENDBRANCH   4   7
BRANCH   1  17
ATOM     14  N   UNL     1       6.681   4.122  14.728  0.00  0.00    +0.000 NA
ATOM     15  C   UNL     1       7.207   5.119  15.662  0.00  0.00    +0.000 C 
ATOM     16  C   UNL     1       7.094   4.662  17.104  0.00  0.00    +0.000 C 
ATOM     17  C   UNL     1       5.657   4.402  17.569  0.00  0.00    +0.000 C 
ATOM     18  C   UNL     1       5.084   3.372  16.561  0.00  0.00    +0.000 C 
ATOM     19  C   UNL     1       5.300   3.747  15.076  0.00  0.00    +0.000 C 
BRANCH  14  20
ATOM     20  C   UNL     1       6.727   4.641  13.335  0.00  0.00    +0.000 C 
BRANCH  20  21
ATOM     21  C   UNL     1       6.744   3.551  12.247  0.00  0.00    +0.000 C 
BRANCH  21  22
ATOM     22  C   UNL     1       5.338   3.107  11.844  0.00  0.00    +0.000 C 
BRANCH  22  24
ATOM     23  C   UNL     1       6.720   1.358  11.062  0.00  0.00    +0.000 C 
ATOM     24  O   UNL     1       5.389   1.773  11.340  0.00  0.00    +0.000 OA
ENDBRANCH  22  24
ENDBRANCH  21  22
ENDBRANCH  20  21
ENDBRANCH  14  20
ENDBRANCH   1  17
BRANCH   5  25
ATOM     25  C   UNL     1       2.655   4.956  19.133  0.00  0.00    +0.000 A 
ATOM     26  C   UNL     1       1.744   4.169  18.418  0.00  0.00    +0.000 A 
ATOM     27  C   UNL     1       0.837   3.368  19.102  0.00  0.00    +0.000 A 
ATOM     28  N   UNL     1       0.806   3.243  20.442  0.00  0.00    +0.000 NA
ATOM     29  C   UNL     1       1.701   3.975  21.120  0.00  0.00    +0.000 A 
ATOM     30  C   UNL     1       2.604   4.841  20.518  0.00  0.00    +0.000 A 
ENDBRANCH   5  25
TORSDOF 7
ENDMDL
MODEL 4
REMARK VINA RESULT:      -7.5      0.520      1.049
REMARK  Name = 
REMARK  8 active torsions:
REMARK  status: ('A' for Active; 'I' for Inactive)
REMARK    1  A    between atoms: C_1  and  O_2
REMARK    2  A    between atoms: O_2  and  C_3
REMARK    3  A    between atoms: C_3  and  C_4
REMARK    4  A    between atoms: C_4  and  C_5
REMARK    5  A    between atoms: C_5  and  N_6
REMARK    6  A    between atoms: C_9  and  C_10
REMARK    7  A    between atoms: C_13  and  C_14
REMARK    8  A    between atoms: C_21  and  C_22
REMARK                            x       y       z     vdW  Elec       q    Type
REMARK                         _______ _______ _______ _____ _____    ______ ____
ROOT
ATOM      1  C   UNL     1       4.795   5.622  17.816  0.00  0.00    +0.000 A 
ATOM      2  N   UNL     1       5.095   6.803  17.180  0.00  0.00    +0.000 N 
ATOM      3  N   UNL     1       4.239   7.800  17.374  0.00  0.00    +0.000 NA
ATOM      4  C   UNL     1       3.301   7.284  18.175  0.00  0.00    +0.000 A 
ATOM      5  C   UNL     1       3.561   5.881  18.441  0.00  0.00    +0.000 A 
ATOM      6  H   UNL     1       5.859   6.994  16.545  0.00  0.00    +0.000 HD
ENDROOT
BRANCH   4   7
ATOM      7  C   UNL     1       2.207   8.152  18.621  0.00  0.00    +0.000 A 
ATOM      8  C   UNL     1       1.516   8.965  17.702  0.00  0.00    +0.000 A 
ATOM      9  C   UNL     1       0.484   9.808  18.126  0.00  0.00    +0.000 A 
ATOM     10  C   UNL     1       0.138   9.848  19.474  0.00  0.00    +0.000 A 
ATOM     11 CL   UNL     1      -1.113  10.900  20.010  0.00  0.00    +0.000 Cl
ATOM     12  C   UNL     1       0.811   9.049  20.399  0.00  0.00    +0.000 A 
ATOM     13  C   UNL     1       1.849   8.212  19.975  0.00  0.00    +0.000 A 
ENDBRANCH   4   7
BRANCH   1  17
ATOM     14  N   UNL     1       6.554   3.984  14.718  0.00  0.00    +0.000 NA
ATOM     15  C   UNL     1       7.112   5.036  15.569  0.00  0.00    +0.000 C 
ATOM     16  C   UNL     1       7.088   4.650  17.037  0.00  0.00    +0.000 C 
ATOM     17  C   UNL     1       5.685   4.390  17.595  0.00  0.00    +0.000 C 
ATOM     18  C   UNL     1       5.077   3.301  16.673  0.00  0.00    +0.000 C 
ATOM     19  C   UNL     1       5.203   3.604  15.161  0.00  0.00    +0.000 C 
BRANCH  14  20
ATOM     20  C   UNL     1       6.512   4.433  13.301  0.00  0.00    +0.000 C 
BRANCH  20  21
ATOM     21  C   UNL     1       6.191   3.319  12.286  0.00  0.00    +0.000 C 
BRANCH  21  22
ATOM     22  C   UNL     1       7.414   2.906  11.468  0.00  0.00    +0.000 C 
BRANCH  22  24
ATOM     23  C   UNL     1       5.914   1.102  11.189  0.00  0.00    +0.000 C 
ATOM     24  O   UNL     1       7.247   1.565  11.011  0.00  0.00    +0.000 OA
ENDBRANCH  22  24
ENDBRANCH  21  22
ENDBRANCH  20  21
ENDBRANCH  14  20
ENDBRANCH   1  17
BRANCH   5  25
ATOM     25  C   UNL     1       2.676   4.934  19.148  0.00  0.00    +0.000 A 
ATOM     26  C   UNL     1       1.739   4.169  18.443  0.00  0.00    +0.000 A 
ATOM     27  C   UNL     1       0.839   3.367  19.135  0.00  0.00    +0.000 A 
ATOM     28  N   UNL     1       0.838   3.222  20.474  0.00  0.00    +0.000 NA
ATOM     29  C   UNL     1       1.757   3.933  21.142  0.00  0.00    +0.000 A 
ATOM     30  C   UNL     1       2.656   4.798  20.532  0.00  0.00    +0.000 A 
ENDBRANCH   5  25
TORSDOF 7
ENDMDL
MODEL 5
REMARK VINA RESULT:      -7.4      2.896      4.080
REMARK  Name = 
REMARK  8 active torsions:
REMARK  status: ('A' for Active; 'I' for Inactive)
REMARK    1  A    between atoms: C_1  and  O_2
REMARK    2  A    between atoms: O_2  and  C_3
REMARK    3  A    between atoms: C_3  and  C_4
REMARK    4  A    between atoms: C_4  and  C_5
REMARK    5  A    between atoms: C_5  and  N_6
REMARK    6  A    between atoms: C_9  and  C_10
REMARK    7  A    between atoms: C_13  and  C_14
REMARK    8  A    between atoms: C_21  and  C_22
REMARK                            x       y       z     vdW  Elec       q    Type
REMARK                         _______ _______ _______ _____ _____    ______ ____
ROOT
ATOM      1  C   UNL     1       3.382   6.107  17.620  0.00  0.00    +0.000 A 
ATOM      2  N   UNL     1       3.408   7.389  17.123  0.00  0.00    +0.000 N 
ATOM      3  N   UNL     1       2.756   8.300  17.835  0.00  0.00    +0.000 NA
ATOM      4  C   UNL     1       2.249   7.618  18.866  0.00  0.00    +0.000 A 
ATOM      5  C   UNL     1       2.555   6.205  18.755  0.00  0.00    +0.000 A 
ATOM      6  H   UNL     1       3.823   7.716  16.260  0.00  0.00    +0.000 HD
ENDROOT
BRANCH   4   7
ATOM      7  C   UNL     1       1.488   8.351  19.884  0.00  0.00    +0.000 A 
ATOM      8  C   UNL     1       1.683   8.089  21.253  0.00  0.00    +0.000 A 
ATOM      9  C   UNL     1       0.947   8.772  22.226  0.00  0.00    +0.000 A 
ATOM     10  C   UNL     1       0.006   9.721  21.836  0.00  0.00    +0.000 A 
ATOM     11 CL   UNL     1      -0.922  10.550  23.023  0.00  0.00    +0.000 Cl
ATOM     12  C   UNL     1      -0.200   9.996  20.483  0.00  0.00    +0.000 A 
ATOM     13  C   UNL     1       0.532   9.306  19.511  0.00  0.00    +0.000 A 
ENDBRANCH   4   7
BRANCH   1  17
ATOM     14  N   UNL     1       6.976   4.543  17.487  0.00  0.00    +0.000 NA
ATOM     15  C   UNL     1       5.897   4.151  18.396  0.00  0.00    +0.000 C 
ATOM     16  C   UNL     1       4.621   3.811  17.649  0.00  0.00    +0.000 C 
ATOM     17  C   UNL     1       4.046   4.971  16.829  0.00  0.00    +0.000 C 
ATOM     18  C   UNL     1       5.198   5.413  15.889  0.00  0.00    +0.000 C 
ATOM     19  C   UNL     1       6.550   5.642  16.604  0.00  0.00    +0.000 C 
BRANCH  14  20
ATOM     20  C   UNL     1       8.179   4.953  18.258  0.00  0.00    +0.000 C 
BRANCH  20  21
ATOM     21  C   UNL     1       8.010   6.254  19.066  0.00  0.00    +0.000 C 
BRANCH  21  22
ATOM     22  C   UNL     1       8.101   7.501  18.188  0.00  0.00    +0.000 C 
BRANCH  22  24
ATOM     23  C   UNL     1       8.628   9.803  18.255  0.00  0.00    +0.000 C 
ATOM     24  O   UNL     1       8.731   8.551  18.921  0.00  0.00    +0.000 OA
ENDBRANCH  22  24
ENDBRANCH  21  22
ENDBRANCH  20  21
ENDBRANCH  14  20
ENDBRANCH   1  17
BRANCH   5  25
ATOM     25  C   UNL     1       2.042   5.115  19.609  0.00  0.00    +0.000 A 
ATOM     26  C   UNL     1       2.572   4.898  20.886  0.00  0.00    +0.000 A 
ATOM     27  C   UNL     1       2.156   3.800  21.630  0.00  0.00    +0.000 A 
ATOM     28  N   UNL     1       1.208   2.934  21.225  0.00  0.00    +0.000 NA
ATOM     29  C   UNL     1       0.682   3.164  20.014  0.00  0.00    +0.000 A 
ATOM     30  C   UNL     1       1.080   4.205  19.185  0.00  0.00    +0.000 A 
ENDBRANCH   5  25
TORSDOF 7
ENDMDL
MODEL 6
REMARK VINA RESULT:      -7.1      1.390      1.892
REMARK  Name = 
REMARK  8 active torsions:
REMARK  status: ('A' for Active; 'I' for Inactive)
REMARK    1  A    between atoms: C_1  and  O_2
REMARK    2  A    between atoms: O_2  and  C_3
REMARK    3  A    between atoms: C_3  and  C_4
REMARK    4  A    between atoms: C_4  and  C_5
REMARK    5  A    between atoms: C_5  and  N_6
REMARK    6  A    between atoms: C_9  and  C_10
REMARK    7  A    between atoms: C_13  and  C_14
REMARK    8  A    between atoms: C_21  and  C_22
REMARK                            x       y       z     vdW  Elec       q    Type
REMARK                         _______ _______ _______ _____ _____    ______ ____
ROOT
ATOM      1  C   UNL     1       5.389   5.566  17.044  0.00  0.00    +0.000 A 
ATOM      2  N   UNL     1       5.619   6.840  16.581  0.00  0.00    +0.000 N 
ATOM      3  N   UNL     1       4.737   7.760  16.951  0.00  0.00    +0.000 NA
ATOM      4  C   UNL     1       3.851   7.093  17.698  0.00  0.00    +0.000 A 
ATOM      5  C   UNL     1       4.172   5.678  17.744  0.00  0.00    +0.000 A 
ATOM      6  H   UNL     1       6.350   7.154  15.956  0.00  0.00    +0.000 HD
ENDROOT
BRANCH   4   7
ATOM      7  C   UNL     1       2.745   7.839  18.306  0.00  0.00    +0.000 A 
ATOM      8  C   UNL     1       2.121   8.892  17.610  0.00  0.00    +0.000 A 
ATOM      9  C   UNL     1       1.079   9.618  18.192  0.00  0.00    +0.000 A 
ATOM     10  C   UNL     1       0.654   9.300  19.480  0.00  0.00    +0.000 A 
ATOM     11 CL   UNL     1      -0.611  10.203  20.215  0.00  0.00    +0.000 Cl
ATOM     12  C   UNL     1       1.259   8.258  20.185  0.00  0.00    +0.000 A 
ATOM     13  C   UNL     1       2.307   7.538  19.603  0.00  0.00    +0.000 A 
ENDBRANCH   4   7
BRANCH   1  17
ATOM     14  N   UNL     1       6.152   3.738  13.660  0.00  0.00    +0.000 NA
ATOM     15  C   UNL     1       6.814   4.945  14.156  0.00  0.00    +0.000 C 
ATOM     16  C   UNL     1       7.371   4.754  15.555  0.00  0.00    +0.000 C 
ATOM     17  C   UNL     1       6.313   4.419  16.611  0.00  0.00    +0.000 C 
ATOM     18  C   UNL     1       5.585   3.160  16.072  0.00  0.00    +0.000 C 
ATOM     19  C   UNL     1       5.119   3.275  14.602  0.00  0.00    +0.000 C 
BRANCH  14  20
ATOM     20  C   UNL     1       5.543   3.991  12.328  0.00  0.00    +0.000 C 
BRANCH  20  21
ATOM     21  C   UNL     1       5.051   2.726  11.599  0.00  0.00    +0.000 C 
BRANCH  21  22
ATOM     22  C   UNL     1       3.683   2.925  10.947  0.00  0.00    +0.000 C 
BRANCH  22  24
ATOM     23  C   UNL     1       2.762   4.421   9.367  0.00  0.00    +0.000 C 
ATOM     24  O   UNL     1       3.542   4.288  10.548  0.00  0.00    +0.000 OA
ENDBRANCH  22  24
ENDBRANCH  21  22
ENDBRANCH  20  21
ENDBRANCH  14  20
ENDBRANCH   1  17
BRANCH   5  25
ATOM     25  C   UNL     1       3.351   4.601  18.332  0.00  0.00    +0.000 A 
ATOM     26  C   UNL     1       2.139   4.223  17.742  0.00  0.00    +0.000 A 
ATOM     27  C   UNL     1       1.326   3.287  18.371  0.00  0.00    +0.000 A 
ATOM     28  N   UNL     1       1.655   2.653  19.512  0.00  0.00    +0.000 NA
ATOM     29  C   UNL     1       2.831   2.996  20.056  0.00  0.00    +0.000 A 
ATOM     30  C   UNL     1       3.676   3.960  19.522  0.00  0.00    +0.000 A 
ENDBRANCH   5  25
TORSDOF 7
ENDMDL
MODEL 7
REMARK VINA RESULT:      -7.1      1.056      1.776
REMARK  Name = 
REMARK  8 active torsions:
REMARK  status: ('A' for Active; 'I' for Inactive)
REMARK    1  A    between atoms: C_1  and  O_2
REMARK    2  A    between atoms: O_2  and  C_3
REMARK    3  A    between atoms: C_3  and  C_4
REMARK    4  A    between atoms: C_4  and  C_5
REMARK    5  A    between atoms: C_5  and  N_6
REMARK    6  A    between atoms: C_9  and  C_10
REMARK    7  A    between atoms: C_13  and  C_14
REMARK    8  A    between atoms: C_21  and  C_22
REMARK                            x       y       z     vdW  Elec       q    Type
REMARK                         _______ _______ _______ _____ _____    ______ ____
ROOT
ATOM      1  C   UNL     1       5.113   5.591  17.457  0.00  0.00    +0.000 A 
ATOM      2  N   UNL     1       5.407   6.801  16.875  0.00  0.00    +0.000 N 
ATOM      3  N   UNL     1       4.552   7.786  17.122  0.00  0.00    +0.000 NA
ATOM      4  C   UNL     1       3.619   7.232  17.902  0.00  0.00    +0.000 A 
ATOM      5  C   UNL     1       3.882   5.818  18.101  0.00  0.00    +0.000 A 
ATOM      6  H   UNL     1       6.168   7.023  16.246  0.00  0.00    +0.000 HD
ENDROOT
BRANCH   4   7
ATOM      7  C   UNL     1       2.526   8.077  18.396  0.00  0.00    +0.000 A 
ATOM      8  C   UNL     1       2.087   7.975  19.729  0.00  0.00    +0.000 A 
ATOM      9  C   UNL     1       1.034   8.765  20.199  0.00  0.00    +0.000 A 
ATOM     10  C   UNL     1       0.408   9.662  19.336  0.00  0.00    +0.000 A 
ATOM     11 CL   UNL     1      -0.904  10.621  19.897  0.00  0.00    +0.000 Cl
ATOM     12  C   UNL     1       0.832   9.778  18.011  0.00  0.00    +0.000 A 
ATOM     13  C   UNL     1       1.880   8.980  17.541  0.00  0.00    +0.000 A 
ENDBRANCH   4   7
BRANCH   1  17
ATOM     14  N   UNL     1       6.389   3.776  14.223  0.00  0.00    +0.000 NA
ATOM     15  C   UNL     1       7.038   4.905  14.892  0.00  0.00    +0.000 C 
ATOM     16  C   UNL     1       7.280   4.630  16.365  0.00  0.00    +0.000 C 
ATOM     17  C   UNL     1       6.003   4.372  17.171  0.00  0.00    +0.000 C 
ATOM     18  C   UNL     1       5.294   3.199  16.445  0.00  0.00    +0.000 C 
ATOM     19  C   UNL     1       5.149   3.391  14.918  0.00  0.00    +0.000 C 
BRANCH  14  20
ATOM     20  C   UNL     1       6.090   4.115  12.807  0.00  0.00    +0.000 C 
BRANCH  20  21
ATOM     21  C   UNL     1       5.541   2.943  11.971  0.00  0.00    +0.000 C 
BRANCH  21  22
ATOM     22  C   UNL     1       4.120   3.200  11.469  0.00  0.00    +0.000 C 
BRANCH  22  24
ATOM     23  C   UNL     1       2.880   4.175   9.710  0.00  0.00    +0.000 C 
ATOM     24  O   UNL     1       4.176   3.916  10.236  0.00  0.00    +0.000 OA
ENDBRANCH  22  24
ENDBRANCH  21  22
ENDBRANCH  20  21
ENDBRANCH  14  20
ENDBRANCH   1  17
BRANCH   5  25
ATOM     25  C   UNL     1       3.002   4.837  18.767  0.00  0.00    +0.000 A 
ATOM     26  C   UNL     1       1.933   4.253  18.078  0.00  0.00    +0.000 A 
ATOM     27  C   UNL     1       1.049   3.419  18.753  0.00  0.00    +0.000 A 
ATOM     28  N   UNL     1       1.181   3.073  20.047  0.00  0.00    +0.000 NA
ATOM     29  C   UNL     1       2.224   3.612  20.694  0.00  0.00    +0.000 A 
ATOM     30  C   UNL     1       3.122   4.497  20.109  0.00  0.00    +0.000 A 
ENDBRANCH   5  25
TORSDOF 7
ENDMDL
MODEL 8
REMARK VINA RESULT:      -7.1      0.920      1.435
REMARK  Name = 
REMARK  8 active torsions:
REMARK  status: ('A' for Active; 'I' for Inactive)
REMARK    1  A    between atoms: C_1  and  O_2
REMARK    2  A    between atoms: O_2  and  C_3
REMARK    3  A    between atoms: C_3  and  C_4
REMARK    4  A    between atoms: C_4  and  C_5
REMARK    5  A    between atoms: C_5  and  N_6
REMARK    6  A    between atoms: C_9  and  C_10
REMARK    7  A    between atoms: C_13  and  C_14
REMARK    8  A    between atoms: C_21  and  C_22
REMARK                            x       y       z     vdW  Elec       q    Type
REMARK                         _______ _______ _______ _____ _____    ______ ____
ROOT
ATOM      1  C   UNL     1       4.863   5.738  17.827  0.00  0.00    +0.000 A 
ATOM      2  N   UNL     1       5.132   6.922  17.182  0.00  0.00    +0.000 N 
ATOM      3  N   UNL     1       4.247   7.894  17.361  0.00  0.00    +0.000 NA
ATOM      4  C   UNL     1       3.318   7.358  18.159  0.00  0.00    +0.000 A 
ATOM      5  C   UNL     1       3.616   5.966  18.441  0.00  0.00    +0.000 A 
ATOM      6  H   UNL     1       5.896   7.129  16.551  0.00  0.00    +0.000 HD
ENDROOT
BRANCH   4   7
ATOM      7  C   UNL     1       2.195   8.198  18.589  0.00  0.00    +0.000 A 
ATOM      8  C   UNL     1       1.488   8.983  17.658  0.00  0.00    +0.000 A 
ATOM      9  C   UNL     1       0.429   9.798  18.066  0.00  0.00    +0.000 A 
ATOM     10  C   UNL     1       0.071   9.840  19.411  0.00  0.00    +0.000 A 
ATOM     11 CL   UNL     1      -1.215  10.859  19.928  0.00  0.00    +0.000 Cl
ATOM     12  C   UNL     1       0.759   9.068  20.349  0.00  0.00    +0.000 A 
ATOM     13  C   UNL     1       1.824   8.258  19.939  0.00  0.00    +0.000 A 
ENDBRANCH   4   7
BRANCH   1  17
ATOM     14  N   UNL     1       6.225   3.771  14.720  0.00  0.00    +0.000 NA
ATOM     15  C   UNL     1       6.834   4.957  15.325  0.00  0.00    +0.000 C 
ATOM     16  C   UNL     1       7.067   4.778  16.814  0.00  0.00    +0.000 C 
ATOM     17  C   UNL     1       5.790   4.531  17.623  0.00  0.00    +0.000 C 
ATOM     18  C   UNL     1       5.123   3.297  16.963  0.00  0.00    +0.000 C 
ATOM     19  C   UNL     1       4.988   3.393  15.425  0.00  0.00    +0.000 C 
BRANCH  14  20
ATOM     20  C   UNL     1       5.930   4.016  13.283  0.00  0.00    +0.000 C 
BRANCH  20  21
ATOM     21  C   UNL     1       4.784   3.161  12.710  0.00  0.00    +0.000 C 
BRANCH  21  22
ATOM     22  C   UNL     1       4.703   3.242  11.186  0.00  0.00    +0.000 C 
BRANCH  22  24
ATOM     23  C   UNL     1       2.993   3.832   9.666  0.00  0.00    +0.000 C 
ATOM     24  O   UNL     1       3.734   4.221  10.815  0.00  0.00    +0.000 OA
ENDBRANCH  22  24
ENDBRANCH  21  22
ENDBRANCH  20  21
ENDBRANCH  14  20
ENDBRANCH   1  17
BRANCH   5  25
ATOM     25  C   UNL     1       2.754   5.000  19.150  0.00  0.00    +0.000 A 
ATOM     26  C   UNL     1       1.809   4.239  18.451  0.00  0.00    +0.000 A 
ATOM     27  C   UNL     1       0.931   3.418  19.148  0.00  0.00    +0.000 A 
ATOM     28  N   UNL     1       0.959   3.250  20.484  0.00  0.00    +0.000 NA
ATOM     29  C   UNL     1       1.885   3.958  21.144  0.00  0.00    +0.000 A 
ATOM     30  C   UNL     1       2.764   4.841  20.530  0.00  0.00    +0.000 A 
ENDBRANCH   5  25
TORSDOF 7
ENDMDL
MODEL 9
REMARK VINA RESULT:      -6.9      2.903      4.746
REMARK  Name = 
REMARK  8 active torsions:
REMARK  status: ('A' for Active; 'I' for Inactive)
REMARK    1  A    between atoms: C_1  and  O_2
REMARK    2  A    between atoms: O_2  and  C_3
REMARK    3  A    between atoms: C_3  and  C_4
REMARK    4  A    between atoms: C_4  and  C_5
REMARK    5  A    between atoms: C_5  and  N_6
REMARK    6  A    between atoms: C_9  and  C_10
REMARK    7  A    between atoms: C_13  and  C_14
REMARK    8  A    between atoms: C_21  and  C_22
REMARK                            x       y       z     vdW  Elec       q    Type
REMARK                         _______ _______ _______ _____ _____    ______ ____
ROOT
ATOM      1  C   UNL     1       2.005   7.366  19.187  0.00  0.00    +0.000 A 
ATOM      2  N   UNL     1       2.135   7.640  17.846  0.00  0.00    +0.000 N 
ATOM      3  N   UNL     1       1.849   8.883  17.478  0.00  0.00    +0.000 NA
ATOM      4  C   UNL     1       1.498   9.495  18.613  0.00  0.00    +0.000 A 
ATOM      5  C   UNL     1       1.513   8.568  19.729  0.00  0.00    +0.000 A 
ATOM      6  H   UNL     1       2.376   7.002  17.098  0.00  0.00    +0.000 HD
ENDROOT
BRANCH   4   7
ATOM      7  C   UNL     1       1.152  10.920  18.563  0.00  0.00    +0.000 A 
ATOM      8  C   UNL     1       2.158  11.899  18.449  0.00  0.00    +0.000 A 
ATOM      9  C   UNL     1       1.834  13.258  18.418  0.00  0.00    +0.000 A 
ATOM     10  C   UNL     1       0.501  13.651  18.506  0.00  0.00    +0.000 A 
ATOM     11 CL   UNL     1       0.094  15.321  18.494  0.00  0.00    +0.000 Cl
ATOM     12  C   UNL     1      -0.509  12.694  18.618  0.00  0.00    +0.000 A 
ATOM     13  C   UNL     1      -0.183  11.335  18.656  0.00  0.00    +0.000 A 
ENDBRANCH   4   7
BRANCH   1  17
ATOM     14  N   UNL     1       3.989   4.242  17.889  0.00  0.00    +0.000 NA
ATOM     15  C   UNL     1       4.527   5.321  18.719  0.00  0.00    +0.000 C 
ATOM     16  C   UNL     1       3.698   5.541  19.971  0.00  0.00    +0.000 C 
ATOM     17  C   UNL     1       2.243   5.938  19.698  0.00  0.00    +0.000 C 
ATOM     18  C   UNL     1       1.680   4.814  18.790  0.00  0.00    +0.000 C 
ATOM     19  C   UNL     1       2.570   4.475  17.571  0.00  0.00    +0.000 C 
BRANCH  14  20
ATOM     20  C   UNL     1       4.772   4.115  16.632  0.00  0.00    +0.000 C 
BRANCH  20  21
ATOM     21  C   UNL     1       5.304   5.448  16.072  0.00  0.00    +0.000 C 
BRANCH  21  22
ATOM     22  C   UNL     1       6.831   5.510  16.067  0.00  0.00    +0.000 C 
BRANCH  22  24
ATOM     23  C   UNL     1       7.545   6.919  17.824  0.00  0.00    +0.000 C 
ATOM     24  O   UNL     1       7.253   6.822  16.436  0.00  0.00    +0.000 OA
ENDBRANCH  22  24
ENDBRANCH  21  22
ENDBRANCH  20  21
ENDBRANCH  14  20
ENDBRANCH   1  17
BRANCH   5  25
ATOM     25  C   UNL     1       1.040   8.826  21.104  0.00  0.00    +0.000 A 
ATOM     26  C   UNL     1      -0.329   8.922  21.382  0.00  0.00    +0.000 A 
ATOM     27  C   UNL     1      -0.752   9.276  22.658  0.00  0.00    +0.000 A 
ATOM     28  N   UNL     1       0.081   9.485  23.695  0.00  0.00    +0.000 NA
ATOM     29  C   UNL     1       1.389   9.362  23.430  0.00  0.00    +0.000 A 
ATOM     30  C   UNL     1       1.897   9.065  22.172  0.00  0.00    +0.000 A 
ENDBRANCH   5  25
TORSDOF 7
ENDMDL
