MODEL 1
REMARK VINA RESULT:      -7.4      0.000      0.000
REMARK  Name = 
REMARK  3 active torsions:
REMARK  status: ('A' for Active; 'I' for Inactive)
REMARK    1  A    between atoms: C_1  and  N_2
REMARK    2  A    between atoms: N_5  and  C_6
REMARK    3  A    between atoms: C_11  and  C_12
REMARK                            x       y       z     vdW  Elec       q    Type
REMARK                         _______ _______ _______ _____ _____    ______ ____
ROOT
ATOM      1  C   UNL     1      -1.082  11.669  20.428  0.00  0.00    +0.000 C 
ATOM      2  C   UNL     1      -0.975  11.117  19.208  0.00  0.00    +0.000 C 
ATOM      3 CL   UNL     1      -1.994  11.616  17.892  0.00  0.00    +0.000 Cl
ATOM      4  C   UNL     1       0.043  10.099  18.871  0.00  0.00    +0.000 C 
ATOM      5  O   UNL     1       0.269   9.770  17.710  0.00  0.00    +0.000 OA
ATOM      6  C   UNL     1       0.771   9.464  19.998  0.00  0.00    +0.000 C 
ATOM      7  C   UNL     1       0.706  10.003  21.221  0.00  0.00    +0.000 C 
ATOM      8 CL   UNL     1       1.537   9.333  22.593  0.00  0.00    +0.000 Cl
ATOM      9  C   UNL     1      -0.103  11.230  21.493  0.00  0.00    +0.000 C 
ATOM     10  O   UNL     1       0.000  11.844  22.553  0.00  0.00    +0.000 OA
ENDROOT
BRANCH   6  11
ATOM     11  C   UNL     1       1.514   8.283  19.713  0.00  0.00    +0.000 A 
ATOM     12  C   UNL     1       1.601   7.085  20.391  0.00  0.00    +0.000 A 
ATOM     13  N   UNL     1       2.456   6.143  19.853  0.00  0.00    +0.000 NA
ATOM     14  C   UNL     1       3.090   6.622  18.804  0.00  0.00    +0.000 A 
ATOM     15  N   UNL     1       3.993   5.916  18.070  0.00  0.00    +0.000 N 
ATOM     16  C   UNL     1       5.092   6.541  17.348  0.00  0.00    +0.000 C 
ATOM     17  C   UNL     1       5.110   5.984  15.926  0.00  0.00    +0.000 C 
ATOM     18  C   UNL     1       5.193   4.456  15.935  0.00  0.00    +0.000 C 
ATOM     19  C   UNL     1       4.121   3.835  16.834  0.00  0.00    +0.000 C 
ATOM     20  C   UNL     1       4.096   4.469  18.229  0.00  0.00    +0.000 C 
ATOM     21  S   UNL     1       2.590   8.228  18.377  0.00  0.00    +0.000 S 
ENDBRANCH   6  11
BRANCH   1  26
ATOM     22  C   UNL     1      -4.126  15.380  23.241  0.00  0.00    +0.000 C 
ATOM     23  N   UNL     1      -3.719  14.640  22.048  0.00  0.00    +0.000 NA
ATOM     24  C   UNL     1      -3.939  13.185  22.227  0.00  0.00    +0.000 C 
ATOM     25  C   UNL     1      -3.453  12.345  21.015  0.00  0.00    +0.000 C 
ATOM     26  N   UNL     1      -2.033  12.644  20.760  0.00  0.00    +0.000 N 
ATOM     27  C   UNL     1      -1.794  14.083  20.532  0.00  0.00    +0.000 C 
ATOM     28  C   UNL     1      -2.291  14.894  21.748  0.00  0.00    +0.000 C 
ENDBRANCH   1  26
TORSDOF 2
ENDMDL
MODEL 2
REMARK VINA RESULT:      -7.1      2.081      3.248
REMARK  Name = 
REMARK  3 active torsions:
REMARK  status: ('A' for Active; 'I' for Inactive)
REMARK    1  A    between atoms: C_1  and  N_2
REMARK    2  A    between atoms: N_5  and  C_6
REMARK    3  A    between atoms: C_11  and  C_12
REMARK                            x       y       z     vdW  Elec       q    Type
REMARK                         _______ _______ _______ _____ _____    ______ ____
ROOT
ATOM      1  C   UNL     1      -1.314  13.456  20.861  0.00  0.00    +0.000 C 
ATOM      2  C   UNL     1      -0.012  13.294  21.149  0.00  0.00    +0.000 C 
ATOM      3 CL   UNL     1       0.862  14.462  22.094  0.00  0.00    +0.000 Cl
ATOM      4  C   UNL     1       0.761  12.099  20.745  0.00  0.00    +0.000 C 
ATOM      5  O   UNL     1       1.876  11.866  21.200  0.00  0.00    +0.000 OA
ATOM      6  C   UNL     1       0.143  11.197  19.741  0.00  0.00    +0.000 C 
ATOM      7  C   UNL     1      -1.158  11.315  19.449  0.00  0.00    +0.000 C 
ATOM      8 CL   UNL     1      -1.963  10.291  18.298  0.00  0.00    +0.000 Cl
ATOM      9  C   UNL     1      -2.014  12.354  20.099  0.00  0.00    +0.000 C 
ATOM     10  O   UNL     1      -3.238  12.332  19.995  0.00  0.00    +0.000 OA
ENDROOT
BRANCH   6  11
ATOM     11  C   UNL     1       0.989  10.233  19.122  0.00  0.00    +0.000 A 
ATOM     12  C   UNL     1       1.633  10.247  17.901  0.00  0.00    +0.000 A 
ATOM     13  N   UNL     1       2.360   9.117  17.585  0.00  0.00    +0.000 NA
ATOM     14  C   UNL     1       2.230   8.194  18.515  0.00  0.00    +0.000 A 
ATOM     15  N   UNL     1       2.837   6.976  18.470  0.00  0.00    +0.000 N 
ATOM     16  C   UNL     1       2.279   5.787  19.098  0.00  0.00    +0.000 C 
ATOM     17  C   UNL     1       3.380   5.113  19.914  0.00  0.00    +0.000 C 
ATOM     18  C   UNL     1       4.602   4.811  19.044  0.00  0.00    +0.000 C 
ATOM     19  C   UNL     1       5.067   6.048  18.271  0.00  0.00    +0.000 C 
ATOM     20  C   UNL     1       3.917   6.728  17.521  0.00  0.00    +0.000 C 
ATOM     21  S   UNL     1       1.277   8.715  19.868  0.00  0.00    +0.000 S 
ENDBRANCH   6  11
BRANCH   1  26
ATOM     22  C   UNL     1      -5.472  17.088  21.541  0.00  0.00    +0.000 C 
ATOM     23  N   UNL     1      -4.113  16.588  21.735  0.00  0.00    +0.000 NA
ATOM     24  C   UNL     1      -3.397  16.487  20.440  0.00  0.00    +0.000 C 
ATOM     25  C   UNL     1      -1.971  15.888  20.581  0.00  0.00    +0.000 C 
ATOM     26  N   UNL     1      -2.063  14.576  21.247  0.00  0.00    +0.000 N 
ATOM     27  C   UNL     1      -2.731  14.658  22.561  0.00  0.00    +0.000 C 
ATOM     28  C   UNL     1      -4.142  15.261  22.392  0.00  0.00    +0.000 C 
ENDBRANCH   1  26
TORSDOF 2
ENDMDL
MODEL 3
REMARK VINA RESULT:      -7.0      2.406      9.465
REMARK  Name = 
REMARK  3 active torsions:
REMARK  status: ('A' for Active; 'I' for Inactive)
REMARK    1  A    between atoms: C_1  and  N_2
REMARK    2  A    between atoms: N_5  and  C_6
REMARK    3  A    between atoms: C_11  and  C_12
REMARK                            x       y       z     vdW  Elec       q    Type
REMARK                         _______ _______ _______ _____ _____    ______ ____
ROOT
ATOM      1  C   UNL     1       2.590   6.491  19.086  0.00  0.00    +0.000 C 
ATOM      2  C   UNL     1       1.877   6.609  20.217  0.00  0.00    +0.000 C 
ATOM      3 CL   UNL     1       1.628   5.257  21.280  0.00  0.00    +0.000 Cl
ATOM      4  C   UNL     1       1.303   7.892  20.679  0.00  0.00    +0.000 C 
ATOM      5  O   UNL     1       0.849   8.027  21.811  0.00  0.00    +0.000 OA
ATOM      6  C   UNL     1       1.273   9.013  19.706  0.00  0.00    +0.000 C 
ATOM      7  C   UNL     1       1.993   8.939  18.580  0.00  0.00    +0.000 C 
ATOM      8 CL   UNL     1       2.026  10.211  17.396  0.00  0.00    +0.000 Cl
ATOM      9  C   UNL     1       2.822   7.737  18.261  0.00  0.00    +0.000 C 
ATOM     10  O   UNL     1       3.639   7.748  17.343  0.00  0.00    +0.000 OA
ENDROOT
BRANCH   6  11
ATOM     11  C   UNL     1       0.456  10.134  20.029  0.00  0.00    +0.000 A 
ATOM     12  C   UNL     1      -0.891  10.357  19.829  0.00  0.00    +0.000 A 
ATOM     13  N   UNL     1      -1.369  11.588  20.233  0.00  0.00    +0.000 NA
ATOM     14  C   UNL     1      -0.395  12.352  20.679  0.00  0.00    +0.000 A 
ATOM     15  N   UNL     1      -0.573  13.619  21.146  0.00  0.00    +0.000 N 
ATOM     16  C   UNL     1       0.457  14.645  21.069  0.00  0.00    +0.000 C 
ATOM     17  C   UNL     1       0.583  15.303  22.442  0.00  0.00    +0.000 C 
ATOM     18  C   UNL     1      -0.767  15.845  22.917  0.00  0.00    +0.000 C 
ATOM     19  C   UNL     1      -1.866  14.783  22.834  0.00  0.00    +0.000 C 
ATOM     20  C   UNL     1      -1.912  14.104  21.460  0.00  0.00    +0.000 C 
ATOM     21  S   UNL     1       1.145  11.553  20.705  0.00  0.00    +0.000 S 
ENDBRANCH   6  11
BRANCH   1  26
ATOM     22  C   UNL     1       3.887   1.106  18.570  0.00  0.00    +0.000 C 
ATOM     23  N   UNL     1       3.939   2.517  18.194  0.00  0.00    +0.000 NA
ATOM     24  C   UNL     1       4.514   3.335  19.290  0.00  0.00    +0.000 C 
ATOM     25  C   UNL     1       4.522   4.855  18.970  0.00  0.00    +0.000 C 
ATOM     26  N   UNL     1       3.151   5.286  18.641  0.00  0.00    +0.000 N 
ATOM     27  C   UNL     1       2.574   4.517  17.522  0.00  0.00    +0.000 C 
ATOM     28  C   UNL     1       2.583   3.011  17.863  0.00  0.00    +0.000 C 
ENDBRANCH   1  26
TORSDOF 2
ENDMDL
MODEL 4
REMARK VINA RESULT:      -7.0      2.242      9.449
REMARK  Name = 
REMARK  3 active torsions:
REMARK  status: ('A' for Active; 'I' for Inactive)
REMARK    1  A    between atoms: C_1  and  N_2
REMARK    2  A    between atoms: N_5  and  C_6
REMARK    3  A    between atoms: C_11  and  C_12
REMARK                            x       y       z     vdW  Elec       q    Type
REMARK                         _______ _______ _______ _____ _____    ______ ____
ROOT
ATOM      1  C   UNL     1       2.344   6.794  18.916  0.00  0.00    +0.000 C 
ATOM      2  C   UNL     1       1.844   6.910  20.157  0.00  0.00    +0.000 C 
ATOM      3 CL   UNL     1       1.637   5.526  21.187  0.00  0.00    +0.000 Cl
ATOM      4  C   UNL     1       1.490   8.211  20.765  0.00  0.00    +0.000 C 
ATOM      5  O   UNL     1       1.247   8.320  21.963  0.00  0.00    +0.000 OA
ATOM      6  C   UNL     1       1.416   9.387  19.861  0.00  0.00    +0.000 C 
ATOM      7  C   UNL     1       1.927   9.312  18.627  0.00  0.00    +0.000 C 
ATOM      8 CL   UNL     1       1.894  10.645  17.511  0.00  0.00    +0.000 Cl
ATOM      9  C   UNL     1       2.563   8.059  18.119  0.00  0.00    +0.000 C 
ATOM     10  O   UNL     1       3.214   8.049  17.076  0.00  0.00    +0.000 OA
ENDROOT
BRANCH   6  11
ATOM     11  C   UNL     1       0.783  10.558  20.367  0.00  0.00    +0.000 A 
ATOM     12  C   UNL     1       1.292  11.622  21.083  0.00  0.00    +0.000 A 
ATOM     13  N   UNL     1       0.384  12.594  21.456  0.00  0.00    +0.000 NA
ATOM     14  C   UNL     1      -0.839  12.261  21.101  0.00  0.00    +0.000 A 
ATOM     15  N   UNL     1      -1.937  13.030  21.336  0.00  0.00    +0.000 N 
ATOM     16  C   UNL     1      -3.272  12.476  21.514  0.00  0.00    +0.000 C 
ATOM     17  C   UNL     1      -4.238  13.257  20.625  0.00  0.00    +0.000 C 
ATOM     18  C   UNL     1      -4.169  14.756  20.924  0.00  0.00    +0.000 C 
ATOM     19  C   UNL     1      -2.729  15.277  20.887  0.00  0.00    +0.000 C 
ATOM     20  C   UNL     1      -1.784  14.423  21.740  0.00  0.00    +0.000 C 
ATOM     21  S   UNL     1      -0.912  10.775  20.207  0.00  0.00    +0.000 S 
ENDBRANCH   6  11
BRANCH   1  26
ATOM     22  C   UNL     1       3.576   1.420  18.169  0.00  0.00    +0.000 C 
ATOM     23  N   UNL     1       3.348   2.795  17.729  0.00  0.00    +0.000 NA
ATOM     24  C   UNL     1       4.326   3.719  18.352  0.00  0.00    +0.000 C 
ATOM     25  C   UNL     1       4.080   5.205  17.975  0.00  0.00    +0.000 C 
ATOM     26  N   UNL     1       2.697   5.570  18.330  0.00  0.00    +0.000 N 
ATOM     27  C   UNL     1       1.701   4.693  17.685  0.00  0.00    +0.000 C 
ATOM     28  C   UNL     1       1.972   3.222  18.071  0.00  0.00    +0.000 C 
ENDBRANCH   1  26
TORSDOF 2
ENDMDL
MODEL 5
REMARK VINA RESULT:      -7.0      2.107      3.131
REMARK  Name = 
REMARK  3 active torsions:
REMARK  status: ('A' for Active; 'I' for Inactive)
REMARK    1  A    between atoms: C_1  and  N_2
REMARK    2  A    between atoms: N_5  and  C_6
REMARK    3  A    between atoms: C_11  and  C_12
REMARK                            x       y       z     vdW  Elec       q    Type
REMARK                         _______ _______ _______ _____ _____    ______ ____
ROOT
ATOM      1  C   UNL     1      -1.317  13.353  20.662  0.00  0.00    +0.000 C 
ATOM      2  C   UNL     1      -0.030  13.180  21.000  0.00  0.00    +0.000 C 
ATOM      3 CL   UNL     1       0.820  14.346  21.969  0.00  0.00    +0.000 Cl
ATOM      4  C   UNL     1       0.745  11.974  20.635  0.00  0.00    +0.000 C 
ATOM      5  O   UNL     1       1.841  11.733  21.134  0.00  0.00    +0.000 OA
ATOM      6  C   UNL     1       0.156  11.070  19.616  0.00  0.00    +0.000 C 
ATOM      7  C   UNL     1      -1.131  11.198  19.274  0.00  0.00    +0.000 C 
ATOM      8 CL   UNL     1      -1.902  10.173  18.101  0.00  0.00    +0.000 Cl
ATOM      9  C   UNL     1      -2.000  12.251  19.883  0.00  0.00    +0.000 C 
ATOM     10  O   UNL     1      -3.219  12.240  19.733  0.00  0.00    +0.000 OA
ENDROOT
BRANCH   6  11
ATOM     11  C   UNL     1       1.016  10.092  19.037  0.00  0.00    +0.000 A 
ATOM     12  C   UNL     1       1.693  10.084  17.835  0.00  0.00    +0.000 A 
ATOM     13  N   UNL     1       2.424   8.945  17.558  0.00  0.00    +0.000 NA
ATOM     14  C   UNL     1       2.264   8.038  18.498  0.00  0.00    +0.000 A 
ATOM     15  N   UNL     1       2.866   6.817  18.491  0.00  0.00    +0.000 N 
ATOM     16  C   UNL     1       2.285   5.641  19.122  0.00  0.00    +0.000 C 
ATOM     17  C   UNL     1       3.360   4.976  19.980  0.00  0.00    +0.000 C 
ATOM     18  C   UNL     1       4.604   4.655  19.150  0.00  0.00    +0.000 C 
ATOM     19  C   UNL     1       5.097   5.877  18.369  0.00  0.00    +0.000 C 
ATOM     20  C   UNL     1       3.971   6.550  17.577  0.00  0.00    +0.000 C 
ATOM     21  S   UNL     1       1.276   8.585  19.816  0.00  0.00    +0.000 S 
ENDBRANCH   6  11
BRANCH   1  26
ATOM     22  C   UNL     1      -2.949  18.141  22.978  0.00  0.00    +0.000 C 
ATOM     23  N   UNL     1      -3.096  16.983  22.097  0.00  0.00    +0.000 NA
ATOM     24  C   UNL     1      -3.099  15.722  22.878  0.00  0.00    +0.000 C 
ATOM     25  C   UNL     1      -3.178  14.456  21.983  0.00  0.00    +0.000 C 
ATOM     26  N   UNL     1      -2.070  14.483  21.011  0.00  0.00    +0.000 N 
ATOM     27  C   UNL     1      -2.073  15.708  20.189  0.00  0.00    +0.000 C 
ATOM     28  C   UNL     1      -1.999  16.950  21.104  0.00  0.00    +0.000 C 
ENDBRANCH   1  26
TORSDOF 2
ENDMDL
MODEL 6
REMARK VINA RESULT:      -7.0      1.793      2.894
REMARK  Name = 
REMARK  3 active torsions:
REMARK  status: ('A' for Active; 'I' for Inactive)
REMARK    1  A    between atoms: C_1  and  N_2
REMARK    2  A    between atoms: N_5  and  C_6
REMARK    3  A    between atoms: C_11  and  C_12
REMARK                            x       y       z     vdW  Elec       q    Type
REMARK                         _______ _______ _______ _____ _____    ______ ____
ROOT
ATOM      1  C   UNL     1      -1.968  12.361  20.591  0.00  0.00    +0.000 C 
ATOM      2  C   UNL     1      -0.809  12.097  21.215  0.00  0.00    +0.000 C 
ATOM      3 CL   UNL     1      -0.341  12.942  22.659  0.00  0.00    +0.000 Cl
ATOM      4  C   UNL     1       0.125  11.040  20.768  0.00  0.00    +0.000 C 
ATOM      5  O   UNL     1       1.061  10.666  21.468  0.00  0.00    +0.000 OA
ATOM      6  C   UNL     1      -0.099  10.460  19.420  0.00  0.00    +0.000 C 
ATOM      7  C   UNL     1      -1.253  10.683  18.781  0.00  0.00    +0.000 C 
ATOM      8 CL   UNL     1      -1.602  10.030  17.209  0.00  0.00    +0.000 Cl
ATOM      9  C   UNL     1      -2.331  11.524  19.385  0.00  0.00    +0.000 C 
ATOM     10  O   UNL     1      -3.461  11.560  18.904  0.00  0.00    +0.000 OA
ENDROOT
BRANCH   6  11
ATOM     11  C   UNL     1       0.956   9.682  18.862  0.00  0.00    +0.000 A 
ATOM     12  C   UNL     1       1.780   9.921  17.781  0.00  0.00    +0.000 A 
ATOM     13  N   UNL     1       2.691   8.927  17.481  0.00  0.00    +0.000 NA
ATOM     14  C   UNL     1       2.535   7.886  18.271  0.00  0.00    +0.000 A 
ATOM     15  N   UNL     1       3.295   6.759  18.206  0.00  0.00    +0.000 N 
ATOM     16  C   UNL     1       2.804   5.446  18.599  0.00  0.00    +0.000 C 
ATOM     17  C   UNL     1       3.838   4.802  19.520  0.00  0.00    +0.000 C 
ATOM     18  C   UNL     1       5.213   4.750  18.851  0.00  0.00    +0.000 C 
ATOM     19  C   UNL     1       5.631   6.118  18.306  0.00  0.00    +0.000 C 
ATOM     20  C   UNL     1       4.537   6.755  17.441  0.00  0.00    +0.000 C 
ATOM     21  S   UNL     1       1.316   8.123  19.484  0.00  0.00    +0.000 S 
ENDBRANCH   6  11
BRANCH   1  26
ATOM     22  C   UNL     1      -4.530  16.297  23.574  0.00  0.00    +0.000 C 
ATOM     23  N   UNL     1      -4.340  15.442  22.403  0.00  0.00    +0.000 NA
ATOM     24  C   UNL     1      -4.466  14.010  22.769  0.00  0.00    +0.000 C 
ATOM     25  C   UNL     1      -4.199  13.055  21.574  0.00  0.00    +0.000 C 
ATOM     26  N   UNL     1      -2.869  13.351  21.009  0.00  0.00    +0.000 N 
ATOM     27  C   UNL     1      -2.736  14.760  20.594  0.00  0.00    +0.000 C 
ATOM     28  C   UNL     1      -3.011  15.687  21.798  0.00  0.00    +0.000 C 
ENDBRANCH   1  26
TORSDOF 2
ENDMDL
MODEL 7
REMARK VINA RESULT:      -6.9      0.721      1.168
REMARK  Name = 
REMARK  3 active torsions:
REMARK  status: ('A' for Active; 'I' for Inactive)
REMARK    1  A    between atoms: C_1  and  N_2
REMARK    2  A    between atoms: N_5  and  C_6
REMARK    3  A    between atoms: C_11  and  C_12
REMARK                            x       y       z     vdW  Elec       q    Type
REMARK                         _______ _______ _______ _____ _____    ______ ____
ROOT
ATOM      1  C   UNL     1      -1.140  11.672  20.653  0.00  0.00    +0.000 C 
ATOM      2  C   UNL     1      -1.078  11.141  19.421  0.00  0.00    +0.000 C 
ATOM      3 CL   UNL     1      -2.156  11.650  18.157  0.00  0.00    +0.000 Cl
ATOM      4  C   UNL     1      -0.066  10.138  19.026  0.00  0.00    +0.000 C 
ATOM      5  O   UNL     1       0.115   9.830  17.851  0.00  0.00    +0.000 OA
ATOM      6  C   UNL     1       0.713   9.492  20.112  0.00  0.00    +0.000 C 
ATOM      7  C   UNL     1       0.694  10.011  21.345  0.00  0.00    +0.000 C 
ATOM      8 CL   UNL     1       1.588   9.328  22.670  0.00  0.00    +0.000 Cl
ATOM      9  C   UNL     1      -0.113  11.226  21.670  0.00  0.00    +0.000 C 
ATOM     10  O   UNL     1       0.028  11.824  22.734  0.00  0.00    +0.000 OA
ENDROOT
BRANCH   6  11
ATOM     11  C   UNL     1       1.454   8.323  19.777  0.00  0.00    +0.000 A 
ATOM     12  C   UNL     1       1.527   7.092  20.396  0.00  0.00    +0.000 A 
ATOM     13  N   UNL     1       2.384   6.173  19.822  0.00  0.00    +0.000 NA
ATOM     14  C   UNL     1       3.033   6.701  18.806  0.00  0.00    +0.000 A 
ATOM     15  N   UNL     1       3.943   6.027  18.050  0.00  0.00    +0.000 N 
ATOM     16  C   UNL     1       5.054   6.681  17.373  0.00  0.00    +0.000 C 
ATOM     17  C   UNL     1       5.087   6.196  15.926  0.00  0.00    +0.000 C 
ATOM     18  C   UNL     1       5.163   4.670  15.859  0.00  0.00    +0.000 C 
ATOM     19  C   UNL     1       4.076   4.010  16.712  0.00  0.00    +0.000 C 
ATOM     20  C   UNL     1       4.037   4.574  18.136  0.00  0.00    +0.000 C 
ATOM     21  S   UNL     1       2.547   8.329  18.454  0.00  0.00    +0.000 S 
ENDBRANCH   6  11
BRANCH   1  26
ATOM     22  C   UNL     1      -5.411  15.237  20.624  0.00  0.00    +0.000 C 
ATOM     23  N   UNL     1      -4.285  14.532  21.234  0.00  0.00    +0.000 NA
ATOM     24  C   UNL     1      -3.016  14.861  20.539  0.00  0.00    +0.000 C 
ATOM     25  C   UNL     1      -1.799  14.079  21.101  0.00  0.00    +0.000 C 
ATOM     26  N   UNL     1      -2.084  12.634  21.040  0.00  0.00    +0.000 N 
ATOM     27  C   UNL     1      -3.319  12.274  21.764  0.00  0.00    +0.000 C 
ATOM     28  C   UNL     1      -4.511  13.069  21.190  0.00  0.00    +0.000 C 
ENDBRANCH   1  26
TORSDOF 2
ENDMDL
MODEL 8
REMARK VINA RESULT:      -6.8      1.906      3.144
REMARK  Name = 
REMARK  3 active torsions:
REMARK  status: ('A' for Active; 'I' for Inactive)
REMARK    1  A    between atoms: C_1  and  N_2
REMARK    2  A    between atoms: N_5  and  C_6
REMARK    3  A    between atoms: C_11  and  C_12
REMARK                            x       y       z     vdW  Elec       q    Type
REMARK                         _______ _______ _______ _____ _____    ______ ____
ROOT
ATOM      1  C   UNL     1      -2.034  12.360  20.660  0.00  0.00    +0.000 C 
ATOM      2  C   UNL     1      -0.867  12.109  21.276  0.00  0.00    +0.000 C 
ATOM      3 CL   UNL     1      -0.408  12.942  22.730  0.00  0.00    +0.000 Cl
ATOM      4  C   UNL     1       0.084  11.076  20.810  0.00  0.00    +0.000 C 
ATOM      5  O   UNL     1       1.030  10.710  21.501  0.00  0.00    +0.000 OA
ATOM      6  C   UNL     1      -0.135  10.511  19.455  0.00  0.00    +0.000 C 
ATOM      7  C   UNL     1      -1.296  10.721  18.824  0.00  0.00    +0.000 C 
ATOM      8 CL   UNL     1      -1.640  10.085  17.244  0.00  0.00    +0.000 Cl
ATOM      9  C   UNL     1      -2.386  11.534  19.444  0.00  0.00    +0.000 C 
ATOM     10  O   UNL     1      -3.519  11.555  18.968  0.00  0.00    +0.000 OA
ENDROOT
BRANCH   6  11
ATOM     11  C   UNL     1       0.932   9.761  18.881  0.00  0.00    +0.000 A 
ATOM     12  C   UNL     1       1.767  10.045  17.820  0.00  0.00    +0.000 A 
ATOM     13  N   UNL     1       2.688   9.069  17.494  0.00  0.00    +0.000 NA
ATOM     14  C   UNL     1       2.530   7.998  18.244  0.00  0.00    +0.000 A 
ATOM     15  N   UNL     1       3.298   6.879  18.146  0.00  0.00    +0.000 N 
ATOM     16  C   UNL     1       2.811   5.549  18.483  0.00  0.00    +0.000 C 
ATOM     17  C   UNL     1       3.838   4.878  19.393  0.00  0.00    +0.000 C 
ATOM     18  C   UNL     1       5.222   4.859  18.739  0.00  0.00    +0.000 C 
ATOM     19  C   UNL     1       5.637   6.249  18.250  0.00  0.00    +0.000 C 
ATOM     20  C   UNL     1       4.549   6.911  17.397  0.00  0.00    +0.000 C 
ATOM     21  S   UNL     1       1.295   8.182  19.449  0.00  0.00    +0.000 S 
ENDBRANCH   6  11
BRANCH   1  26
ATOM     22  C   UNL     1      -6.462  15.710  20.998  0.00  0.00    +0.000 C 
ATOM     23  N   UNL     1      -5.200  15.142  21.465  0.00  0.00    +0.000 NA
ATOM     24  C   UNL     1      -4.105  15.424  20.504  0.00  0.00    +0.000 C 
ATOM     25  C   UNL     1      -2.756  14.776  20.917  0.00  0.00    +0.000 C 
ATOM     26  N   UNL     1      -2.952  13.326  21.096  0.00  0.00    +0.000 N 
ATOM     27  C   UNL     1      -4.005  13.019  22.083  0.00  0.00    +0.000 C 
ATOM     28  C   UNL     1      -5.332  13.679  21.652  0.00  0.00    +0.000 C 
ENDBRANCH   1  26
TORSDOF 2
ENDMDL
MODEL 9
REMARK VINA RESULT:      -6.8      1.448      2.316
REMARK  Name = 
REMARK  3 active torsions:
REMARK  status: ('A' for Active; 'I' for Inactive)
REMARK    1  A    between atoms: C_1  and  N_2
REMARK    2  A    between atoms: N_5  and  C_6
REMARK    3  A    between atoms: C_11  and  C_12
REMARK                            x       y       z     vdW  Elec       q    Type
REMARK                         _______ _______ _______ _____ _____    ______ ____
ROOT
ATOM      1  C   UNL     1      -1.277  11.715  20.850  0.00  0.00    +0.000 C 
ATOM      2  C   UNL     1      -1.270  11.277  19.581  0.00  0.00    +0.000 C 
ATOM      3 CL   UNL     1      -2.434  11.838  18.419  0.00  0.00    +0.000 Cl
ATOM      4  C   UNL     1      -0.252  10.340  19.057  0.00  0.00    +0.000 C 
ATOM      5  O   UNL     1      -0.130  10.124  17.855  0.00  0.00    +0.000 OA
ATOM      6  C   UNL     1       0.608   9.646  20.048  0.00  0.00    +0.000 C 
ATOM      7  C   UNL     1       0.644  10.074  21.315  0.00  0.00    +0.000 C 
ATOM      8 CL   UNL     1       1.633   9.328  22.534  0.00  0.00    +0.000 Cl
ATOM      9  C   UNL     1      -0.180  11.234  21.772  0.00  0.00    +0.000 C 
ATOM     10  O   UNL     1       0.004  11.757  22.869  0.00  0.00    +0.000 OA
ENDROOT
BRANCH   6  11
ATOM     11  C   UNL     1       1.364   8.530  19.587  0.00  0.00    +0.000 A 
ATOM     12  C   UNL     1       2.193   8.392  18.493  0.00  0.00    +0.000 A 
ATOM     13  N   UNL     1       2.753   7.143  18.310  0.00  0.00    +0.000 NA
ATOM     14  C   UNL     1       2.312   6.289  19.209  0.00  0.00    +0.000 A 
ATOM     15  N   UNL     1       2.695   4.984  19.274  0.00  0.00    +0.000 N 
ATOM     16  C   UNL     1       1.841   3.931  19.805  0.00  0.00    +0.000 C 
ATOM     17  C   UNL     1       2.657   3.107  20.799  0.00  0.00    +0.000 C 
ATOM     18  C   UNL     1       3.934   2.570  20.150  0.00  0.00    +0.000 C 
ATOM     19  C   UNL     1       4.731   3.681  19.461  0.00  0.00    +0.000 C 
ATOM     20  C   UNL     1       3.857   4.522  18.523  0.00  0.00    +0.000 C 
ATOM     21  S   UNL     1       1.254   7.012  20.379  0.00  0.00    +0.000 S 
ENDBRANCH   6  11
BRANCH   1  26
ATOM     22  C   UNL     1      -5.885  14.760  21.521  0.00  0.00    +0.000 C 
ATOM     23  N   UNL     1      -4.560  14.270  21.899  0.00  0.00    +0.000 NA
ATOM     24  C   UNL     1      -3.550  14.637  20.877  0.00  0.00    +0.000 C 
ATOM     25  C   UNL     1      -2.138  14.075  21.193  0.00  0.00    +0.000 C 
ATOM     26  N   UNL     1      -2.227  12.613  21.359  0.00  0.00    +0.000 N 
ATOM     27  C   UNL     1      -3.193  12.224  22.404  0.00  0.00    +0.000 C 
ATOM     28  C   UNL     1      -4.585  12.800  22.068  0.00  0.00    +0.000 C 
ENDBRANCH   1  26
TORSDOF 2
ENDMDL
