MODEL 1
REMARK VINA RESULT:      -9.1      0.000      0.000
REMARK  Name = 
REMARK  9 active torsions:
REMARK  status: ('A' for Active; 'I' for Inactive)
REMARK    1  A    between atoms: C_1  and  C_2
REMARK    2  A    between atoms: C_2  and  C_3
REMARK    3  A    between atoms: C_2  and  C_4
REMARK    4  A    between atoms: C_6  and  N_7
REMARK    5  A    between atoms: C_9  and  C_10
REMARK    6  A    between atoms: C_14  and  C_15
REMARK    7  A    between atoms: C_19  and  N_20
REMARK    8  A    between atoms: N_23  and  C_24
REMARK    9  A    between atoms: C_24  and  C_25
REMARK                            x       y       z     vdW  Elec       q    Type
REMARK                         _______ _______ _______ _____ _____    ______ ____
ROOT
ATOM      1  C   UNL     1       4.934   5.348  16.044  0.00  0.00    +0.000 A 
ATOM      2  C   UNL     1       4.555   6.754  16.253  0.00  0.00    +0.000 A 
ATOM      3  C   UNL     1       3.846   7.110  17.335  0.00  0.00    +0.000 A 
ATOM      4  N   UNL     1       3.427   6.137  18.244  0.00  0.00    +0.000 N 
ATOM      5  C   UNL     1       2.669   6.233  19.409  0.00  0.00    +0.000 A 
ATOM      6  C   UNL     1       2.641   4.936  19.896  0.00  0.00    +0.000 A 
ATOM      7  N   UNL     1       3.308   4.061  19.082  0.00  0.00    +0.000 NA
ATOM      8  C   UNL     1       3.760   4.791  18.089  0.00  0.00    +0.000 A 
ATOM      9  C   UNL     1       4.531   4.424  16.948  0.00  0.00    +0.000 A 
ENDROOT
BRANCH   1  14
ATOM     10  C   UNL     1       6.027   3.659  13.000  0.00  0.00    +0.000 A 
ATOM     11  C   UNL     1       7.226   4.283  12.719  0.00  0.00    +0.000 A 
ATOM     12  C   UNL     1       7.655   5.233  13.621  0.00  0.00    +0.000 A 
ATOM     13  N   UNL     1       6.959   5.570  14.709  0.00  0.00    +0.000 NA
ATOM     14  C   UNL     1       5.794   4.928  14.903  0.00  0.00    +0.000 A 
ATOM     15  N   UNL     1       5.306   3.968  14.095  0.00  0.00    +0.000 NA
BRANCH  10  17
ATOM     16  C   UNL     1       4.337   3.206  11.205  0.00  0.00    +0.000 C 
ATOM     17  C   UNL     1       5.458   2.614  12.061  0.00  0.00    +0.000 C 
ATOM     18  C   UNL     1       6.555   2.024  11.172  0.00  0.00    +0.000 C 
ENDBRANCH  10  17
BRANCH  12  19
ATOM     19  N   UNL     1       8.827   5.952  13.392  0.00  0.00    +0.000 N 
ATOM     20  H   UNL     1       8.672   6.785  12.837  0.00  0.00    +0.000 HD
ATOM     21  H   UNL     1       9.492   5.320  12.953  0.00  0.00    +0.000 HD
ENDBRANCH  12  19
ENDBRANCH   1  14
BRANCH   5  22
ATOM     22  C   UNL     1       2.051   7.449  19.950  0.00  0.00    +0.000 A 
ATOM     23  C   UNL     1       2.055   7.692  21.328  0.00  0.00    +0.000 A 
ATOM     24  C   UNL     1       1.433   8.818  21.852  0.00  0.00    +0.000 A 
ATOM     25  C   UNL     1       0.843   9.746  20.999  0.00  0.00    +0.000 A 
ATOM     26  C   UNL     1       0.870   9.571  19.613  0.00  0.00    +0.000 A 
ATOM     27  C   UNL     1       1.470   8.414  19.098  0.00  0.00    +0.000 A 
BRANCH  26  28
ATOM     28  N   UNL     1       0.301  10.506  18.714  0.00  0.00    +0.000 N 
ATOM     29  C   UNL     1      -1.017  10.535  18.307  0.00  0.00    +0.000 C 
ATOM     30  O   UNL     1      -1.927   9.807  18.687  0.00  0.00    +0.000 OA
ATOM     31  N   UNL     1      -1.255  11.478  17.330  0.00  0.00    +0.000 N 
ATOM     32  H   UNL     1       0.920  11.195  18.315  0.00  0.00    +0.000 HD
ATOM     33  H   UNL     1      -0.701  12.322  17.364  0.00  0.00    +0.000 HD
BRANCH  31  34
ATOM     34  C   UNL     1      -2.629  11.593  16.821  0.00  0.00    +0.000 C 
BRANCH  34  35
ATOM     35  C   UNL     1      -3.061  10.536  15.790  0.00  0.00    +0.000 C 
ATOM     36  F   UNL     1      -2.078   9.645  15.529  0.00  0.00    +0.000 F 
ATOM     37  F   UNL     1      -4.113   9.825  16.273  0.00  0.00    +0.000 F 
ATOM     38  F   UNL     1      -3.457  11.086  14.622  0.00  0.00    +0.000 F 
ENDBRANCH  34  35
ENDBRANCH  31  34
ENDBRANCH  26  28
ENDBRANCH   5  22
TORSDOF 7
ENDMDL
MODEL 2
REMARK VINA RESULT:      -9.0      3.874      9.177
REMARK  Name = 
REMARK  9 active torsions:
REMARK  status: ('A' for Active; 'I' for Inactive)
REMARK    1  A    between atoms: C_1  and  C_2
REMARK    2  A    between atoms: C_2  and  C_3
REMARK    3  A    between atoms: C_2  and  C_4
REMARK    4  A    between atoms: C_6  and  N_7
REMARK    5  A    between atoms: C_9  and  C_10
REMARK    6  A    between atoms: C_14  and  C_15
REMARK    7  A    between atoms: C_19  and  N_20
REMARK    8  A    between atoms: N_23  and  C_24
REMARK    9  A    between atoms: C_24  and  C_25
REMARK                            x       y       z     vdW  Elec       q    Type
REMARK                         _______ _______ _______ _____ _____    ______ ____
ROOT
ATOM      1  C   UNL     1       1.345   9.116  18.693  0.00  0.00    +0.000 A 
ATOM      2  C   UNL     1       2.545   9.029  17.848  0.00  0.00    +0.000 A 
ATOM      3  C   UNL     1       3.373   7.977  17.956  0.00  0.00    +0.000 A 
ATOM      4  N   UNL     1       3.118   6.985  18.904  0.00  0.00    +0.000 N 
ATOM      5  C   UNL     1       3.820   5.828  19.235  0.00  0.00    +0.000 A 
ATOM      6  C   UNL     1       3.037   5.230  20.209  0.00  0.00    +0.000 A 
ATOM      7  N   UNL     1       1.924   5.969  20.507  0.00  0.00    +0.000 NA
ATOM      8  C   UNL     1       1.993   7.024  19.729  0.00  0.00    +0.000 A 
ATOM      9  C   UNL     1       1.109   8.134  19.594  0.00  0.00    +0.000 A 
ENDROOT
BRANCH   1  14
ATOM     10  C   UNL     1      -1.664  10.932  17.709  0.00  0.00    +0.000 A 
ATOM     11  C   UNL     1      -1.545  12.118  18.406  0.00  0.00    +0.000 A 
ATOM     12  C   UNL     1      -0.399  12.284  19.153  0.00  0.00    +0.000 A 
ATOM     13  N   UNL     1       0.555  11.355  19.238  0.00  0.00    +0.000 NA
ATOM     14  C   UNL     1       0.358  10.222  18.543  0.00  0.00    +0.000 A 
ATOM     15  N   UNL     1      -0.713   9.979  17.764  0.00  0.00    +0.000 NA
BRANCH  10  17
ATOM     16  C   UNL     1      -2.554   9.717  15.705  0.00  0.00    +0.000 C 
ATOM     17  C   UNL     1      -2.895  10.643  16.874  0.00  0.00    +0.000 C 
ATOM     18  C   UNL     1      -4.006  10.033  17.732  0.00  0.00    +0.000 C 
ENDBRANCH  10  17
BRANCH  12  19
ATOM     19  N   UNL     1      -0.218  13.427  19.930  0.00  0.00    +0.000 N 
ATOM     20  H   UNL     1      -0.388  13.260  20.915  0.00  0.00    +0.000 HD
ATOM     21  H   UNL     1      -0.826  14.151  19.556  0.00  0.00    +0.000 HD
ENDBRANCH  12  19
ENDBRANCH   1  14
BRANCH   5  22
ATOM     22  C   UNL     1       5.100   5.391  18.665  0.00  0.00    +0.000 A 
ATOM     23  C   UNL     1       6.300   5.662  19.332  0.00  0.00    +0.000 A 
ATOM     24  C   UNL     1       7.520   5.292  18.777  0.00  0.00    +0.000 A 
ATOM     25  C   UNL     1       7.551   4.598  17.571  0.00  0.00    +0.000 A 
ATOM     26  C   UNL     1       6.373   4.257  16.903  0.00  0.00    +0.000 A 
ATOM     27  C   UNL     1       5.151   4.665  17.455  0.00  0.00    +0.000 A 
BRANCH  26  28
ATOM     28  N   UNL     1       6.367   3.532  15.687  0.00  0.00    +0.000 N 
ATOM     29  C   UNL     1       6.205   4.071  14.427  0.00  0.00    +0.000 C 
ATOM     30  O   UNL     1       6.097   5.256  14.135  0.00  0.00    +0.000 OA
ATOM     31  N   UNL     1       6.115   3.111  13.442  0.00  0.00    +0.000 N 
ATOM     32  H   UNL     1       6.462   2.529  15.748  0.00  0.00    +0.000 HD
ATOM     33  H   UNL     1       6.642   2.260  13.581  0.00  0.00    +0.000 HD
BRANCH  31  34
ATOM     34  C   UNL     1       5.938   3.576  12.059  0.00  0.00    +0.000 C 
BRANCH  34  35
ATOM     35  C   UNL     1       4.612   3.193  11.379  0.00  0.00    +0.000 C 
ATOM     36  F   UNL     1       4.663   1.966  10.812  0.00  0.00    +0.000 F 
ATOM     37  F   UNL     1       3.617   3.154  12.302  0.00  0.00    +0.000 F 
ATOM     38  F   UNL     1       4.241   4.082  10.433  0.00  0.00    +0.000 F 
ENDBRANCH  34  35
ENDBRANCH  31  34
ENDBRANCH  26  28
ENDBRANCH   5  22
TORSDOF 7
ENDMDL
MODEL 3
REMARK VINA RESULT:      -8.9      4.940     11.474
REMARK  Name = 
REMARK  9 active torsions:
REMARK  status: ('A' for Active; 'I' for Inactive)
REMARK    1  A    between atoms: C_1  and  C_2
REMARK    2  A    between atoms: C_2  and  C_3
REMARK    3  A    between atoms: C_2  and  C_4
REMARK    4  A    between atoms: C_6  and  N_7
REMARK    5  A    between atoms: C_9  and  C_10
REMARK    6  A    between atoms: C_14  and  C_15
REMARK    7  A    between atoms: C_19  and  N_20
REMARK    8  A    between atoms: N_23  and  C_24
REMARK    9  A    between atoms: C_24  and  C_25
REMARK                            x       y       z     vdW  Elec       q    Type
REMARK                         _______ _______ _______ _____ _____    ______ ____
ROOT
ATOM      1  C   UNL     1      -0.796  10.919  22.220  0.00  0.00    +0.000 A 
ATOM      2  C   UNL     1      -0.361   9.637  22.792  0.00  0.00    +0.000 A 
ATOM      3  C   UNL     1       0.398   8.796  22.072  0.00  0.00    +0.000 A 
ATOM      4  N   UNL     1       0.739   9.120  20.757  0.00  0.00    +0.000 N 
ATOM      5  C   UNL     1       1.475   8.424  19.800  0.00  0.00    +0.000 A 
ATOM      6  C   UNL     1       1.512   9.287  18.717  0.00  0.00    +0.000 A 
ATOM      7  N   UNL     1       0.819  10.444  18.949  0.00  0.00    +0.000 NA
ATOM      8  C   UNL     1       0.349  10.324  20.169  0.00  0.00    +0.000 A 
ATOM      9  C   UNL     1      -0.440  11.219  20.949  0.00  0.00    +0.000 A 
ENDROOT
BRANCH   1  14
ATOM     10  C   UNL     1      -1.702  14.047  23.866  0.00  0.00    +0.000 A 
ATOM     11  C   UNL     1      -2.997  13.809  24.280  0.00  0.00    +0.000 A 
ATOM     12  C   UNL     1      -3.506  12.552  24.031  0.00  0.00    +0.000 A 
ATOM     13  N   UNL     1      -2.813  11.600  23.403  0.00  0.00    +0.000 NA
ATOM     14  C   UNL     1      -1.565  11.915  23.017  0.00  0.00    +0.000 A 
ATOM     15  N   UNL     1      -0.973  13.103  23.240  0.00  0.00    +0.000 NA
BRANCH  10  17
ATOM     16  C   UNL     1      -1.599  16.423  23.072  0.00  0.00    +0.000 C 
ATOM     17  C   UNL     1      -1.058  15.403  24.076  0.00  0.00    +0.000 C 
ATOM     18  C   UNL     1      -1.275  15.895  25.508  0.00  0.00    +0.000 C 
ENDBRANCH  10  17
BRANCH  12  19
ATOM     19  N   UNL     1      -4.822  12.240  24.366  0.00  0.00    +0.000 N 
ATOM     20  H   UNL     1      -5.251  11.601  23.707  0.00  0.00    +0.000 HD
ATOM     21  H   UNL     1      -5.335  13.115  24.438  0.00  0.00    +0.000 HD
ENDBRANCH  12  19
ENDBRANCH   1  14
BRANCH   5  22
ATOM     22  C   UNL     1       2.049   7.082  19.948  0.00  0.00    +0.000 A 
ATOM     23  C   UNL     1       1.466   6.156  20.821  0.00  0.00    +0.000 A 
ATOM     24  C   UNL     1       2.028   4.898  21.001  0.00  0.00    +0.000 A 
ATOM     25  C   UNL     1       3.154   4.530  20.269  0.00  0.00    +0.000 A 
ATOM     26  C   UNL     1       3.731   5.403  19.344  0.00  0.00    +0.000 A 
ATOM     27  C   UNL     1       3.175   6.682  19.197  0.00  0.00    +0.000 A 
BRANCH  26  28
ATOM     28  N   UNL     1       4.861   5.055  18.567  0.00  0.00    +0.000 N 
ATOM     29  C   UNL     1       4.832   4.474  17.314  0.00  0.00    +0.000 C 
ATOM     30  O   UNL     1       3.842   4.214  16.641  0.00  0.00    +0.000 OA
ATOM     31  N   UNL     1       6.085   4.132  16.853  0.00  0.00    +0.000 N 
ATOM     32  H   UNL     1       5.769   5.220  18.974  0.00  0.00    +0.000 HD
ATOM     33  H   UNL     1       6.854   4.723  17.136  0.00  0.00    +0.000 HD
BRANCH  31  34
ATOM     34  C   UNL     1       6.169   3.503  15.528  0.00  0.00    +0.000 C 
BRANCH  34  35
ATOM     35  C   UNL     1       6.392   4.453  14.339  0.00  0.00    +0.000 C 
ATOM     36  F   UNL     1       7.574   5.104  14.419  0.00  0.00    +0.000 F 
ATOM     37  F   UNL     1       6.417   3.742  13.181  0.00  0.00    +0.000 F 
ATOM     38  F   UNL     1       5.409   5.370  14.219  0.00  0.00    +0.000 F 
ENDBRANCH  34  35
ENDBRANCH  31  34
ENDBRANCH  26  28
ENDBRANCH   5  22
TORSDOF 7
ENDMDL
MODEL 4
REMARK VINA RESULT:      -8.9      3.102      3.428
REMARK  Name = 
REMARK  9 active torsions:
REMARK  status: ('A' for Active; 'I' for Inactive)
REMARK    1  A    between atoms: C_1  and  C_2
REMARK    2  A    between atoms: C_2  and  C_3
REMARK    3  A    between atoms: C_2  and  C_4
REMARK    4  A    between atoms: C_6  and  N_7
REMARK    5  A    between atoms: C_9  and  C_10
REMARK    6  A    between atoms: C_14  and  C_15
REMARK    7  A    between atoms: C_19  and  N_20
REMARK    8  A    between atoms: N_23  and  C_24
REMARK    9  A    between atoms: C_24  and  C_25
REMARK                            x       y       z     vdW  Elec       q    Type
REMARK                         _______ _______ _______ _____ _____    ______ ____
ROOT
ATOM      1  C   UNL     1       4.982   5.353  15.931  0.00  0.00    +0.000 A 
ATOM      2  C   UNL     1       4.542   6.749  16.073  0.00  0.00    +0.000 A 
ATOM      3  C   UNL     1       3.821   7.126  17.142  0.00  0.00    +0.000 A 
ATOM      4  N   UNL     1       3.450   6.180  18.099  0.00  0.00    +0.000 N 
ATOM      5  C   UNL     1       2.693   6.299  19.263  0.00  0.00    +0.000 A 
ATOM      6  C   UNL     1       2.724   5.028  19.812  0.00  0.00    +0.000 A 
ATOM      7  N   UNL     1       3.426   4.144  19.037  0.00  0.00    +0.000 NA
ATOM      8  C   UNL     1       3.842   4.844  18.007  0.00  0.00    +0.000 A 
ATOM      9  C   UNL     1       4.623   4.457  16.880  0.00  0.00    +0.000 A 
ENDROOT
BRANCH   1  14
ATOM     10  C   UNL     1       6.111   3.615  12.927  0.00  0.00    +0.000 A 
ATOM     11  C   UNL     1       7.311   4.240  12.648  0.00  0.00    +0.000 A 
ATOM     12  C   UNL     1       7.728   5.206  13.538  0.00  0.00    +0.000 A 
ATOM     13  N   UNL     1       7.019   5.560  14.612  0.00  0.00    +0.000 NA
ATOM     14  C   UNL     1       5.855   4.916  14.806  0.00  0.00    +0.000 A 
ATOM     15  N   UNL     1       5.378   3.941  14.010  0.00  0.00    +0.000 NA
BRANCH  10  17
ATOM     16  C   UNL     1       4.368   3.094  11.203  0.00  0.00    +0.000 C 
ATOM     17  C   UNL     1       5.556   2.552  12.001  0.00  0.00    +0.000 C 
ATOM     18  C   UNL     1       6.641   2.031  11.056  0.00  0.00    +0.000 C 
ENDBRANCH  10  17
BRANCH  12  19
ATOM     19  N   UNL     1       8.899   5.925  13.308  0.00  0.00    +0.000 N 
ATOM     20  H   UNL     1       9.135   5.983  12.324  0.00  0.00    +0.000 HD
ATOM     21  H   UNL     1       9.639   5.487  13.852  0.00  0.00    +0.000 HD
ENDBRANCH  12  19
ENDBRANCH   1  14
BRANCH   5  22
ATOM     22  C   UNL     1       2.024   7.512  19.748  0.00  0.00    +0.000 A 
ATOM     23  C   UNL     1       1.423   7.530  21.012  0.00  0.00    +0.000 A 
ATOM     24  C   UNL     1       0.749   8.659  21.461  0.00  0.00    +0.000 A 
ATOM     25  C   UNL     1       0.712   9.805  20.672  0.00  0.00    +0.000 A 
ATOM     26  C   UNL     1       1.350   9.848  19.430  0.00  0.00    +0.000 A 
ATOM     27  C   UNL     1       1.998   8.691  18.973  0.00  0.00    +0.000 A 
BRANCH  26  28
ATOM     28  N   UNL     1       1.353  11.003  18.611  0.00  0.00    +0.000 N 
ATOM     29  C   UNL     1       1.712  12.274  19.011  0.00  0.00    +0.000 C 
ATOM     30  O   UNL     1       2.138  12.614  20.108  0.00  0.00    +0.000 OA
ATOM     31  N   UNL     1       1.496  13.223  18.034  0.00  0.00    +0.000 N 
ATOM     32  H   UNL     1       1.040  10.893  17.659  0.00  0.00    +0.000 HD
ATOM     33  H   UNL     1       1.608  12.927  17.075  0.00  0.00    +0.000 HD
BRANCH  31  34
ATOM     34  C   UNL     1       1.842  14.615  18.356  0.00  0.00    +0.000 C 
BRANCH  34  35
ATOM     35  C   UNL     1       3.267  15.062  17.986  0.00  0.00    +0.000 C 
ATOM     36  F   UNL     1       3.298  15.772  16.836  0.00  0.00    +0.000 F 
ATOM     37  F   UNL     1       3.760  15.874  18.958  0.00  0.00    +0.000 F 
ATOM     38  F   UNL     1       4.120  14.023  17.867  0.00  0.00    +0.000 F 
ENDBRANCH  34  35
ENDBRANCH  31  34
ENDBRANCH  26  28
ENDBRANCH   5  22
TORSDOF 7
ENDMDL
MODEL 5
REMARK VINA RESULT:      -8.9      4.535     10.682
REMARK  Name = 
REMARK  9 active torsions:
REMARK  status: ('A' for Active; 'I' for Inactive)
REMARK    1  A    between atoms: C_1  and  C_2
REMARK    2  A    between atoms: C_2  and  C_3
REMARK    3  A    between atoms: C_2  and  C_4
REMARK    4  A    between atoms: C_6  and  N_7
REMARK    5  A    between atoms: C_9  and  C_10
REMARK    6  A    between atoms: C_14  and  C_15
REMARK    7  A    between atoms: C_19  and  N_20
REMARK    8  A    between atoms: N_23  and  C_24
REMARK    9  A    between atoms: C_24  and  C_25
REMARK                            x       y       z     vdW  Elec       q    Type
REMARK                         _______ _______ _______ _____ _____    ______ ____
ROOT
ATOM      1  C   UNL     1       0.359  10.343  21.082  0.00  0.00    +0.000 A 
ATOM      2  C   UNL     1       0.697   9.051  21.696  0.00  0.00    +0.000 A 
ATOM      3  C   UNL     1       1.354   8.117  20.990  0.00  0.00    +0.000 A 
ATOM      4  N   UNL     1       1.678   8.357  19.653  0.00  0.00    +0.000 N 
ATOM      5  C   UNL     1       2.317   7.560  18.705  0.00  0.00    +0.000 A 
ATOM      6  C   UNL     1       2.394   8.371  17.585  0.00  0.00    +0.000 A 
ATOM      7  N   UNL     1       1.815   9.594  17.789  0.00  0.00    +0.000 NA
ATOM      8  C   UNL     1       1.377   9.566  19.026  0.00  0.00    +0.000 A 
ATOM      9  C   UNL     1       0.697  10.559  19.790  0.00  0.00    +0.000 A 
ENDROOT
BRANCH   1  14
ATOM     10  C   UNL     1      -0.347  13.665  22.419  0.00  0.00    +0.000 A 
ATOM     11  C   UNL     1      -1.542  13.477  23.084  0.00  0.00    +0.000 A 
ATOM     12  C   UNL     1      -2.045  12.194  23.104  0.00  0.00    +0.000 A 
ATOM     13  N   UNL     1      -1.442  11.168  22.500  0.00  0.00    +0.000 NA
ATOM     14  C   UNL     1      -0.291  11.435  21.860  0.00  0.00    +0.000 A 
ATOM     15  N   UNL     1       0.292  12.648  21.809  0.00  0.00    +0.000 NA
BRANCH  10  17
ATOM     16  C   UNL     1       1.640  14.972  21.627  0.00  0.00    +0.000 C 
ATOM     17  C   UNL     1       0.279  15.042  22.323  0.00  0.00    +0.000 C 
ATOM     18  C   UNL     1      -0.648  16.013  21.589  0.00  0.00    +0.000 C 
ENDBRANCH  10  17
BRANCH  12  19
ATOM     19  N   UNL     1      -3.271  11.921  23.706  0.00  0.00    +0.000 N 
ATOM     20  H   UNL     1      -3.637  11.010  23.454  0.00  0.00    +0.000 HD
ATOM     21  H   UNL     1      -3.910  12.671  23.453  0.00  0.00    +0.000 HD
ENDBRANCH  12  19
ENDBRANCH   1  14
BRANCH   5  22
ATOM     22  C   UNL     1       2.774   6.178  18.893  0.00  0.00    +0.000 A 
ATOM     23  C   UNL     1       2.421   5.467  20.046  0.00  0.00    +0.000 A 
ATOM     24  C   UNL     1       2.886   4.174  20.253  0.00  0.00    +0.000 A 
ATOM     25  C   UNL     1       3.668   3.554  19.283  0.00  0.00    +0.000 A 
ATOM     26  C   UNL     1       3.993   4.207  18.092  0.00  0.00    +0.000 A 
ATOM     27  C   UNL     1       3.547   5.524  17.910  0.00  0.00    +0.000 A 
BRANCH  26  28
ATOM     28  N   UNL     1       4.767   3.600  17.073  0.00  0.00    +0.000 N 
ATOM     29  C   UNL     1       5.371   4.254  16.019  0.00  0.00    +0.000 C 
ATOM     30  O   UNL     1       5.393   5.462  15.811  0.00  0.00    +0.000 OA
ATOM     31  N   UNL     1       5.952   3.391  15.115  0.00  0.00    +0.000 N 
ATOM     32  H   UNL     1       4.863   2.596  17.106  0.00  0.00    +0.000 HD
ATOM     33  H   UNL     1       6.334   2.532  15.483  0.00  0.00    +0.000 HD
BRANCH  31  34
ATOM     34  C   UNL     1       6.622   3.984  13.949  0.00  0.00    +0.000 C 
BRANCH  34  35
ATOM     35  C   UNL     1       6.057   3.595  12.572  0.00  0.00    +0.000 C 
ATOM     36  F   UNL     1       6.717   4.203  11.559  0.00  0.00    +0.000 F 
ATOM     37  F   UNL     1       6.196   2.258  12.379  0.00  0.00    +0.000 F 
ATOM     38  F   UNL     1       4.743   3.879  12.454  0.00  0.00    +0.000 F 
ENDBRANCH  34  35
ENDBRANCH  31  34
ENDBRANCH  26  28
ENDBRANCH   5  22
TORSDOF 7
ENDMDL
MODEL 6
REMARK VINA RESULT:      -8.8      4.246      5.978
REMARK  Name = 
REMARK  9 active torsions:
REMARK  status: ('A' for Active; 'I' for Inactive)
REMARK    1  A    between atoms: C_1  and  C_2
REMARK    2  A    between atoms: C_2  and  C_3
REMARK    3  A    between atoms: C_2  and  C_4
REMARK    4  A    between atoms: C_6  and  N_7
REMARK    5  A    between atoms: C_9  and  C_10
REMARK    6  A    between atoms: C_14  and  C_15
REMARK    7  A    between atoms: C_19  and  N_20
REMARK    8  A    between atoms: N_23  and  C_24
REMARK    9  A    between atoms: C_24  and  C_25
REMARK                            x       y       z     vdW  Elec       q    Type
REMARK                         _______ _______ _______ _____ _____    ______ ____
ROOT
ATOM      1  C   UNL     1       2.591   7.395  18.569  0.00  0.00    +0.000 A 
ATOM      2  C   UNL     1       2.121   8.595  17.861  0.00  0.00    +0.000 A 
ATOM      3  C   UNL     1       1.410   9.530  18.512  0.00  0.00    +0.000 A 
ATOM      4  N   UNL     1       1.077   9.341  19.854  0.00  0.00    +0.000 N 
ATOM      5  C   UNL     1       0.337  10.126  20.737  0.00  0.00    +0.000 A 
ATOM      6  C   UNL     1       0.408   9.435  21.936  0.00  0.00    +0.000 A 
ATOM      7  N   UNL     1       1.117   8.270  21.824  0.00  0.00    +0.000 NA
ATOM      8  C   UNL     1       1.499   8.219  20.569  0.00  0.00    +0.000 A 
ATOM      9  C   UNL     1       2.270   7.242  19.875  0.00  0.00    +0.000 A 
ENDROOT
BRANCH   1  14
ATOM     10  C   UNL     1       3.976   4.161  17.598  0.00  0.00    +0.000 A 
ATOM     11  C   UNL     1       4.853   4.498  16.586  0.00  0.00    +0.000 A 
ATOM     12  C   UNL     1       4.987   5.841  16.304  0.00  0.00    +0.000 A 
ATOM     13  N   UNL     1       4.301   6.790  16.944  0.00  0.00    +0.000 NA
ATOM     14  C   UNL     1       3.455   6.380  17.905  0.00  0.00    +0.000 A 
ATOM     15  N   UNL     1       3.277   5.097  18.270  0.00  0.00    +0.000 NA
BRANCH  10  17
ATOM     16  C   UNL     1       4.172   2.446  19.416  0.00  0.00    +0.000 C 
ATOM     17  C   UNL     1       3.742   2.711  17.971  0.00  0.00    +0.000 C 
ATOM     18  C   UNL     1       2.275   2.326  17.771  0.00  0.00    +0.000 C 
ENDBRANCH  10  17
BRANCH  12  19
ATOM     19  N   UNL     1       5.810   6.269  15.264  0.00  0.00    +0.000 N 
ATOM     20  H   UNL     1       6.611   5.664  15.125  0.00  0.00    +0.000 HD
ATOM     21  H   UNL     1       6.087   7.226  15.467  0.00  0.00    +0.000 HD
ENDBRANCH  12  19
ENDBRANCH   1  14
BRANCH   5  22
ATOM     22  C   UNL     1      -0.352  11.381  20.419  0.00  0.00    +0.000 A 
ATOM     23  C   UNL     1      -0.027  12.093  19.259  0.00  0.00    +0.000 A 
ATOM     24  C   UNL     1      -0.642  13.305  18.973  0.00  0.00    +0.000 A 
ATOM     25  C   UNL     1      -1.631  13.798  19.820  0.00  0.00    +0.000 A 
ATOM     26  C   UNL     1      -2.027  13.090  20.957  0.00  0.00    +0.000 A 
ATOM     27  C   UNL     1      -1.375  11.885  21.252  0.00  0.00    +0.000 A 
BRANCH  26  28
ATOM     28  N   UNL     1      -3.045  13.549  21.827  0.00  0.00    +0.000 N 
ATOM     29  C   UNL     1      -4.374  13.181  21.779  0.00  0.00    +0.000 C 
ATOM     30  O   UNL     1      -4.892  12.364  21.026  0.00  0.00    +0.000 OA
ATOM     31  N   UNL     1      -5.157  13.884  22.670  0.00  0.00    +0.000 N 
ATOM     32  H   UNL     1      -2.781  14.224  22.528  0.00  0.00    +0.000 HD
ATOM     33  H   UNL     1      -4.724  14.161  23.540  0.00  0.00    +0.000 HD
BRANCH  31  34
ATOM     34  C   UNL     1      -6.593  13.573  22.701  0.00  0.00    +0.000 C 
BRANCH  34  35
ATOM     35  C   UNL     1      -7.087  12.769  23.916  0.00  0.00    +0.000 C 
ATOM     36  F   UNL     1      -7.887  11.739  23.556  0.00  0.00    +0.000 F 
ATOM     37  F   UNL     1      -6.027  12.228  24.571  0.00  0.00    +0.000 F 
ATOM     38  F   UNL     1      -7.755  13.534  24.805  0.00  0.00    +0.000 F 
ENDBRANCH  34  35
ENDBRANCH  31  34
ENDBRANCH  26  28
ENDBRANCH   5  22
TORSDOF 7
ENDMDL
MODEL 7
REMARK VINA RESULT:      -8.8      4.733      6.494
REMARK  Name = 
REMARK  9 active torsions:
REMARK  status: ('A' for Active; 'I' for Inactive)
REMARK    1  A    between atoms: C_1  and  C_2
REMARK    2  A    between atoms: C_2  and  C_3
REMARK    3  A    between atoms: C_2  and  C_4
REMARK    4  A    between atoms: C_6  and  N_7
REMARK    5  A    between atoms: C_9  and  C_10
REMARK    6  A    between atoms: C_14  and  C_15
REMARK    7  A    between atoms: C_19  and  N_20
REMARK    8  A    between atoms: N_23  and  C_24
REMARK    9  A    between atoms: C_24  and  C_25
REMARK                            x       y       z     vdW  Elec       q    Type
REMARK                         _______ _______ _______ _____ _____    ______ ____
ROOT
ATOM      1  C   UNL     1       2.403   6.416  18.610  0.00  0.00    +0.000 A 
ATOM      2  C   UNL     1       2.367   7.588  17.723  0.00  0.00    +0.000 A 
ATOM      3  C   UNL     1       1.957   8.778  18.189  0.00  0.00    +0.000 A 
ATOM      4  N   UNL     1       1.521   8.895  19.510  0.00  0.00    +0.000 N 
ATOM      5  C   UNL     1       1.025   9.986  20.221  0.00  0.00    +0.000 A 
ATOM      6  C   UNL     1       0.820   9.487  21.496  0.00  0.00    +0.000 A 
ATOM      7  N   UNL     1       1.131   8.157  21.590  0.00  0.00    +0.000 NA
ATOM      8  C   UNL     1       1.534   7.813  20.390  0.00  0.00    +0.000 A 
ATOM      9  C   UNL     1       1.990   6.557  19.892  0.00  0.00    +0.000 A 
ENDROOT
BRANCH   1  14
ATOM     10  C   UNL     1       4.587   3.939  17.058  0.00  0.00    +0.000 A 
ATOM     11  C   UNL     1       4.037   2.744  17.477  0.00  0.00    +0.000 A 
ATOM     12  C   UNL     1       2.890   2.823  18.238  0.00  0.00    +0.000 A 
ATOM     13  N   UNL     1       2.329   3.982  18.588  0.00  0.00    +0.000 NA
ATOM     14  C   UNL     1       2.933   5.101  18.154  0.00  0.00    +0.000 A 
ATOM     15  N   UNL     1       4.038   5.125  17.385  0.00  0.00    +0.000 NA
BRANCH  10  17
ATOM     16  C   UNL     1       5.634   4.692  14.908  0.00  0.00    +0.000 C 
ATOM     17  C   UNL     1       5.858   3.961  16.233  0.00  0.00    +0.000 C 
ATOM     18  C   UNL     1       7.004   4.610  17.013  0.00  0.00    +0.000 C 
ENDBRANCH  10  17
BRANCH  12  19
ATOM     19  N   UNL     1       2.296   1.671  18.748  0.00  0.00    +0.000 N 
ATOM     20  H   UNL     1       1.898   1.083  18.025  0.00  0.00    +0.000 HD
ATOM     21  H   UNL     1       1.599   1.962  19.430  0.00  0.00    +0.000 HD
ENDBRANCH  12  19
ENDBRANCH   1  14
BRANCH   5  22
ATOM     22  C   UNL     1       0.782  11.333  19.692  0.00  0.00    +0.000 A 
ATOM     23  C   UNL     1      -0.458  11.954  19.882  0.00  0.00    +0.000 A 
ATOM     24  C   UNL     1      -0.713  13.211  19.347  0.00  0.00    +0.000 A 
ATOM     25  C   UNL     1       0.290  13.888  18.658  0.00  0.00    +0.000 A 
ATOM     26  C   UNL     1       1.560  13.329  18.498  0.00  0.00    +0.000 A 
ATOM     27  C   UNL     1       1.793  12.046  19.013  0.00  0.00    +0.000 A 
BRANCH  26  28
ATOM     28  N   UNL     1       2.610  13.998  17.825  0.00  0.00    +0.000 N 
ATOM     29  C   UNL     1       3.748  14.511  18.413  0.00  0.00    +0.000 C 
ATOM     30  O   UNL     1       4.075  14.431  19.591  0.00  0.00    +0.000 OA
ATOM     31  N   UNL     1       4.534  15.220  17.529  0.00  0.00    +0.000 N 
ATOM     32  H   UNL     1       2.505  14.136  16.831  0.00  0.00    +0.000 HD
ATOM     33  H   UNL     1       4.539  14.907  16.568  0.00  0.00    +0.000 HD
BRANCH  31  34
ATOM     34  C   UNL     1       5.773  15.813  18.052  0.00  0.00    +0.000 C 
BRANCH  34  35
ATOM     35  C   UNL     1       7.029  14.928  17.987  0.00  0.00    +0.000 C 
ATOM     36  F   UNL     1       6.829  13.809  17.254  0.00  0.00    +0.000 F 
ATOM     37  F   UNL     1       8.041  15.609  17.389  0.00  0.00    +0.000 F 
ATOM     38  F   UNL     1       7.467  14.562  19.210  0.00  0.00    +0.000 F 
ENDBRANCH  34  35
ENDBRANCH  31  34
ENDBRANCH  26  28
ENDBRANCH   5  22
TORSDOF 7
ENDMDL
MODEL 8
REMARK VINA RESULT:      -8.8      2.641      2.834
REMARK  Name = 
REMARK  9 active torsions:
REMARK  status: ('A' for Active; 'I' for Inactive)
REMARK    1  A    between atoms: C_1  and  C_2
REMARK    2  A    between atoms: C_2  and  C_3
REMARK    3  A    between atoms: C_2  and  C_4
REMARK    4  A    between atoms: C_6  and  N_7
REMARK    5  A    between atoms: C_9  and  C_10
REMARK    6  A    between atoms: C_14  and  C_15
REMARK    7  A    between atoms: C_19  and  N_20
REMARK    8  A    between atoms: N_23  and  C_24
REMARK    9  A    between atoms: C_24  and  C_25
REMARK                            x       y       z     vdW  Elec       q    Type
REMARK                         _______ _______ _______ _____ _____    ______ ____
ROOT
ATOM      1  C   UNL     1       4.964   5.297  15.900  0.00  0.00    +0.000 A 
ATOM      2  C   UNL     1       4.646   6.709  16.160  0.00  0.00    +0.000 A 
ATOM      3  C   UNL     1       3.911   7.052  17.229  0.00  0.00    +0.000 A 
ATOM      4  N   UNL     1       3.408   6.061  18.075  0.00  0.00    +0.000 N 
ATOM      5  C   UNL     1       2.608   6.143  19.213  0.00  0.00    +0.000 A 
ATOM      6  C   UNL     1       2.496   4.829  19.636  0.00  0.00    +0.000 A 
ATOM      7  N   UNL     1       3.152   3.958  18.808  0.00  0.00    +0.000 NA
ATOM      8  C   UNL     1       3.680   4.708  17.869  0.00  0.00    +0.000 A 
ATOM      9  C   UNL     1       4.479   4.355  16.743  0.00  0.00    +0.000 A 
ENDROOT
BRANCH   1  14
ATOM     10  C   UNL     1       6.138   3.597  12.892  0.00  0.00    +0.000 A 
ATOM     11  C   UNL     1       7.322   4.251  12.616  0.00  0.00    +0.000 A 
ATOM     12  C   UNL     1       7.714   5.225  13.509  0.00  0.00    +0.000 A 
ATOM     13  N   UNL     1       6.996   5.557  14.584  0.00  0.00    +0.000 NA
ATOM     14  C   UNL     1       5.848   4.885  14.775  0.00  0.00    +0.000 A 
ATOM     15  N   UNL     1       5.396   3.901  13.975  0.00  0.00    +0.000 NA
BRANCH  10  17
ATOM     16  C   UNL     1       4.418   3.044  11.155  0.00  0.00    +0.000 C 
ATOM     17  C   UNL     1       5.610   2.524  11.962  0.00  0.00    +0.000 C 
ATOM     18  C   UNL     1       6.711   2.023  11.025  0.00  0.00    +0.000 C 
ENDBRANCH  10  17
BRANCH  12  19
ATOM     19  N   UNL     1       8.868   5.973  13.283  0.00  0.00    +0.000 N 
ATOM     20  H   UNL     1       8.746   6.956  13.499  0.00  0.00    +0.000 HD
ATOM     21  H   UNL     1       9.142   5.828  12.314  0.00  0.00    +0.000 HD
ENDBRANCH  12  19
ENDBRANCH   1  14
BRANCH   5  22
ATOM     22  C   UNL     1       2.029   7.364  19.786  0.00  0.00    +0.000 A 
ATOM     23  C   UNL     1       1.643   7.399  21.130  0.00  0.00    +0.000 A 
ATOM     24  C   UNL     1       1.053   8.536  21.670  0.00  0.00    +0.000 A 
ATOM     25  C   UNL     1       0.889   9.672  20.883  0.00  0.00    +0.000 A 
ATOM     26  C   UNL     1       1.315   9.698  19.553  0.00  0.00    +0.000 A 
ATOM     27  C   UNL     1       1.878   8.534  19.011  0.00  0.00    +0.000 A 
BRANCH  26  28
ATOM     28  N   UNL     1       1.185  10.843  18.731  0.00  0.00    +0.000 N 
ATOM     29  C   UNL     1       1.426  12.146  19.118  0.00  0.00    +0.000 C 
ATOM     30  O   UNL     1       1.841  12.533  20.204  0.00  0.00    +0.000 OA
ATOM     31  N   UNL     1       1.095  13.063  18.143  0.00  0.00    +0.000 N 
ATOM     32  H   UNL     1       0.863  10.697  17.786  0.00  0.00    +0.000 HD
ATOM     33  H   UNL     1       1.215  12.774  17.183  0.00  0.00    +0.000 HD
BRANCH  31  34
ATOM     34  C   UNL     1       1.309  14.484  18.452  0.00  0.00    +0.000 C 
BRANCH  34  35
ATOM     35  C   UNL     1       0.088  15.254  18.983  0.00  0.00    +0.000 C 
ATOM     36  F   UNL     1      -0.338  16.200  18.114  0.00  0.00    +0.000 F 
ATOM     37  F   UNL     1      -0.951  14.399  19.166  0.00  0.00    +0.000 F 
ATOM     38  F   UNL     1       0.328  15.847  20.172  0.00  0.00    +0.000 F 
ENDBRANCH  34  35
ENDBRANCH  31  34
ENDBRANCH  26  28
ENDBRANCH   5  22
TORSDOF 7
ENDMDL
MODEL 9
REMARK VINA RESULT:      -8.7      3.256      5.185
REMARK  Name = 
REMARK  9 active torsions:
REMARK  status: ('A' for Active; 'I' for Inactive)
REMARK    1  A    between atoms: C_1  and  C_2
REMARK    2  A    between atoms: C_2  and  C_3
REMARK    3  A    between atoms: C_2  and  C_4
REMARK    4  A    between atoms: C_6  and  N_7
REMARK    5  A    between atoms: C_9  and  C_10
REMARK    6  A    between atoms: C_14  and  C_15
REMARK    7  A    between atoms: C_19  and  N_20
REMARK    8  A    between atoms: N_23  and  C_24
REMARK    9  A    between atoms: C_24  and  C_25
REMARK                            x       y       z     vdW  Elec       q    Type
REMARK                         _______ _______ _______ _____ _____    ______ ____
ROOT
ATOM      1  C   UNL     1       2.392   6.528  18.504  0.00  0.00    +0.000 A 
ATOM      2  C   UNL     1       2.108   7.683  17.640  0.00  0.00    +0.000 A 
ATOM      3  C   UNL     1       1.661   8.832  18.171  0.00  0.00    +0.000 A 
ATOM      4  N   UNL     1       1.421   8.917  19.544  0.00  0.00    +0.000 N 
ATOM      5  C   UNL     1       0.936   9.961  20.330  0.00  0.00    +0.000 A 
ATOM      6  C   UNL     1       0.977   9.454  21.618  0.00  0.00    +0.000 A 
ATOM      7  N   UNL     1       1.426   8.162  21.655  0.00  0.00    +0.000 NA
ATOM      8  C   UNL     1       1.673   7.848  20.405  0.00  0.00    +0.000 A 
ATOM      9  C   UNL     1       2.168   6.639  19.834  0.00  0.00    +0.000 A 
ENDROOT
BRANCH   1  14
ATOM     10  C   UNL     1       4.721   4.225  16.893  0.00  0.00    +0.000 A 
ATOM     11  C   UNL     1       4.153   2.993  17.146  0.00  0.00    +0.000 A 
ATOM     12  C   UNL     1       2.948   2.992  17.817  0.00  0.00    +0.000 A 
ATOM     13  N   UNL     1       2.348   4.108  18.234  0.00  0.00    +0.000 NA
ATOM     14  C   UNL     1       2.972   5.267  17.963  0.00  0.00    +0.000 A 
ATOM     15  N   UNL     1       4.134   5.371  17.291  0.00  0.00    +0.000 NA
BRANCH  10  17
ATOM     16  C   UNL     1       5.976   5.347  15.035  0.00  0.00    +0.000 C 
ATOM     17  C   UNL     1       6.053   4.334  16.180  0.00  0.00    +0.000 C 
ATOM     18  C   UNL     1       7.166   4.717  17.157  0.00  0.00    +0.000 C 
ENDBRANCH  10  17
BRANCH  12  19
ATOM     19  N   UNL     1       2.329   1.792  18.161  0.00  0.00    +0.000 N 
ATOM     20  H   UNL     1       1.637   1.905  18.893  0.00  0.00    +0.000 HD
ATOM     21  H   UNL     1       3.059   1.135  18.425  0.00  0.00    +0.000 HD
ENDBRANCH  12  19
ENDBRANCH   1  14
BRANCH   5  22
ATOM     22  C   UNL     1       0.485  11.273  19.854  0.00  0.00    +0.000 A 
ATOM     23  C   UNL     1       1.401  12.181  19.308  0.00  0.00    +0.000 A 
ATOM     24  C   UNL     1       0.991  13.443  18.896  0.00  0.00    +0.000 A 
ATOM     25  C   UNL     1      -0.353  13.796  18.977  0.00  0.00    +0.000 A 
ATOM     26  C   UNL     1      -1.308  12.898  19.460  0.00  0.00    +0.000 A 
ATOM     27  C   UNL     1      -0.877  11.641  19.904  0.00  0.00    +0.000 A 
BRANCH  26  28
ATOM     28  N   UNL     1      -2.686  13.215  19.533  0.00  0.00    +0.000 N 
ATOM     29  C   UNL     1      -3.520  12.949  20.601  0.00  0.00    +0.000 C 
ATOM     30  O   UNL     1      -3.210  12.451  21.678  0.00  0.00    +0.000 OA
ATOM     31  N   UNL     1      -4.838  13.255  20.340  0.00  0.00    +0.000 N 
ATOM     32  H   UNL     1      -3.103  13.650  18.724  0.00  0.00    +0.000 HD
ATOM     33  H   UNL     1      -5.013  14.037  19.724  0.00  0.00    +0.000 HD
BRANCH  31  34
ATOM     34  C   UNL     1      -5.814  13.008  21.411  0.00  0.00    +0.000 C 
BRANCH  34  35
ATOM     35  C   UNL     1      -6.994  12.087  21.053  0.00  0.00    +0.000 C 
ATOM     36  F   UNL     1      -6.582  10.899  20.556  0.00  0.00    +0.000 F 
ATOM     37  F   UNL     1      -7.717  11.812  22.170  0.00  0.00    +0.000 F 
ATOM     38  F   UNL     1      -7.838  12.650  20.163  0.00  0.00    +0.000 F 
ENDBRANCH  34  35
ENDBRANCH  31  34
ENDBRANCH  26  28
ENDBRANCH   5  22
TORSDOF 7
ENDMDL
