MODEL 1
REMARK VINA RESULT:      -5.9      0.000      0.000
REMARK  Name = 
REMARK  6 active torsions:
REMARK  status: ('A' for Active; 'I' for Inactive)
REMARK    1  A    between atoms: C_1  and  C_2
REMARK    2  A    between atoms: C_2  and  O_3
REMARK    3  A    between atoms: O_3  and  C_4
REMARK    4  A    between atoms: C_4  and  C_6
REMARK    5  A    between atoms: C_7  and  C_8
REMARK    6  A    between atoms: C_13  and  C_14
REMARK                            x       y       z     vdW  Elec       q    Type
REMARK                         _______ _______ _______ _____ _____    ______ ____
ROOT
ATOM      1  C   UNL     1       5.641   4.718  17.852  0.00  0.00    +0.000 A 
ATOM      2  C   UNL     1       4.986   4.412  16.576  0.00  0.00    +0.000 A 
ATOM      3  C   UNL     1       3.560   3.929  16.484  0.00  0.00    +0.000 C 
ATOM      4  C   UNL     1       5.649   4.606  15.424  0.00  0.00    +0.000 A 
ATOM      5  C   UNL     1       7.020   5.118  15.383  0.00  0.00    +0.000 A 
ATOM      6  O   UNL     1       7.604   5.266  14.320  0.00  0.00    +0.000 OA
ATOM      7  O   UNL     1       7.576   5.435  16.584  0.00  0.00    +0.000 OA
ATOM      8  C   UNL     1       6.893   5.234  17.815  0.00  0.00    +0.000 A 
ATOM      9  C   UNL     1       7.748   5.644  18.982  0.00  0.00    +0.000 C 
ENDROOT
BRANCH   1  10
ATOM     10  C   UNL     1       4.927   4.514  19.161  0.00  0.00    +0.000 C 
ATOM     11  O   UNL     1       4.326   5.386  19.769  0.00  0.00    +0.000 OA
BRANCH  10  12
ATOM     12  O   UNL     1       5.167   3.260  19.618  0.00  0.00    +0.000 OA
BRANCH  12  14
ATOM     13  C   UNL     1       3.723   1.540  18.906  0.00  0.00    +0.000 C 
ATOM     14  C   UNL     1       4.046   2.481  20.051  0.00  0.00    +0.000 C 
ENDBRANCH  12  14
ENDBRANCH  10  12
ENDBRANCH   1  10
TORSDOF 3
ENDMDL
MODEL 2
REMARK VINA RESULT:      -5.9      1.020      1.679
REMARK  Name = 
REMARK  6 active torsions:
REMARK  status: ('A' for Active; 'I' for Inactive)
REMARK    1  A    between atoms: C_1  and  C_2
REMARK    2  A    between atoms: C_2  and  O_3
REMARK    3  A    between atoms: O_3  and  C_4
REMARK    4  A    between atoms: C_4  and  C_6
REMARK    5  A    between atoms: C_7  and  C_8
REMARK    6  A    between atoms: C_13  and  C_14
REMARK                            x       y       z     vdW  Elec       q    Type
REMARK                         _______ _______ _______ _____ _____    ______ ____
ROOT
ATOM      1  C   UNL     1       5.728   4.540  17.946  0.00  0.00    +0.000 A 
ATOM      2  C   UNL     1       5.084   4.162  16.683  0.00  0.00    +0.000 A 
ATOM      3  C   UNL     1       3.718   3.524  16.621  0.00  0.00    +0.000 C 
ATOM      4  C   UNL     1       5.696   4.427  15.517  0.00  0.00    +0.000 A 
ATOM      5  C   UNL     1       7.002   5.088  15.449  0.00  0.00    +0.000 A 
ATOM      6  O   UNL     1       7.543   5.299  14.374  0.00  0.00    +0.000 OA
ATOM      7  O   UNL     1       7.544   5.465  16.638  0.00  0.00    +0.000 OA
ATOM      8  C   UNL     1       6.914   5.191  17.883  0.00  0.00    +0.000 A 
ATOM      9  C   UNL     1       7.742   5.694  19.032  0.00  0.00    +0.000 C 
ENDROOT
BRANCH   1  10
ATOM     10  C   UNL     1       5.069   4.259  19.269  0.00  0.00    +0.000 C 
ATOM     11  O   UNL     1       4.982   3.154  19.783  0.00  0.00    +0.000 OA
BRANCH  10  12
ATOM     12  O   UNL     1       4.477   5.388  19.730  0.00  0.00    +0.000 OA
BRANCH  12  14
ATOM     13  C   UNL     1       2.286   5.094  20.545  0.00  0.00    +0.000 C 
ATOM     14  C   UNL     1       3.107   5.615  19.382  0.00  0.00    +0.000 C 
ENDBRANCH  12  14
ENDBRANCH  10  12
ENDBRANCH   1  10
TORSDOF 3
ENDMDL
MODEL 3
REMARK VINA RESULT:      -5.9      2.389      3.591
REMARK  Name = 
REMARK  6 active torsions:
REMARK  status: ('A' for Active; 'I' for Inactive)
REMARK    1  A    between atoms: C_1  and  C_2
REMARK    2  A    between atoms: C_2  and  O_3
REMARK    3  A    between atoms: O_3  and  C_4
REMARK    4  A    between atoms: C_4  and  C_6
REMARK    5  A    between atoms: C_7  and  C_8
REMARK    6  A    between atoms: C_13  and  C_14
REMARK                            x       y       z     vdW  Elec       q    Type
REMARK                         _______ _______ _______ _____ _____    ______ ____
ROOT
ATOM      1  C   UNL     1       3.377   4.417  18.360  0.00  0.00    +0.000 A 
ATOM      2  C   UNL     1       4.000   5.731  18.163  0.00  0.00    +0.000 A 
ATOM      3  C   UNL     1       3.199   6.994  17.969  0.00  0.00    +0.000 C 
ATOM      4  C   UNL     1       5.338   5.845  18.199  0.00  0.00    +0.000 A 
ATOM      5  C   UNL     1       6.218   4.697  18.430  0.00  0.00    +0.000 A 
ATOM      6  O   UNL     1       7.433   4.830  18.438  0.00  0.00    +0.000 OA
ATOM      7  O   UNL     1       5.602   3.506  18.656  0.00  0.00    +0.000 OA
ATOM      8  C   UNL     1       4.187   3.362  18.618  0.00  0.00    +0.000 A 
ATOM      9  C   UNL     1       3.779   1.939  18.876  0.00  0.00    +0.000 C 
ENDROOT
BRANCH   1  10
ATOM     10  C   UNL     1       1.881   4.254  18.328  0.00  0.00    +0.000 C 
ATOM     11  O   UNL     1       1.223   4.070  17.315  0.00  0.00    +0.000 OA
BRANCH  10  12
ATOM     12  O   UNL     1       1.373   4.473  19.565  0.00  0.00    +0.000 OA
BRANCH  12  14
ATOM     13  C   UNL     1       1.587   3.119  21.481  0.00  0.00    +0.000 C 
ATOM     14  C   UNL     1       0.754   3.372  20.239  0.00  0.00    +0.000 C 
ENDBRANCH  12  14
ENDBRANCH  10  12
ENDBRANCH   1  10
TORSDOF 3
ENDMDL
MODEL 4
REMARK VINA RESULT:      -5.8      2.278      4.628
REMARK  Name = 
REMARK  6 active torsions:
REMARK  status: ('A' for Active; 'I' for Inactive)
REMARK    1  A    between atoms: C_1  and  C_2
REMARK    2  A    between atoms: C_2  and  O_3
REMARK    3  A    between atoms: O_3  and  C_4
REMARK    4  A    between atoms: C_4  and  C_6
REMARK    5  A    between atoms: C_7  and  C_8
REMARK    6  A    between atoms: C_13  and  C_14
REMARK                            x       y       z     vdW  Elec       q    Type
REMARK                         _______ _______ _______ _____ _____    ______ ____
ROOT
ATOM      1  C   UNL     1       4.337   5.510  16.993  0.00  0.00    +0.000 A 
ATOM      2  C   UNL     1       3.158   5.776  17.824  0.00  0.00    +0.000 A 
ATOM      3  C   UNL     1       2.676   7.170  18.136  0.00  0.00    +0.000 C 
ATOM      4  C   UNL     1       2.434   4.749  18.301  0.00  0.00    +0.000 A 
ATOM      5  C   UNL     1       2.775   3.352  18.024  0.00  0.00    +0.000 A 
ATOM      6  O   UNL     1       2.109   2.439  18.489  0.00  0.00    +0.000 OA
ATOM      7  O   UNL     1       3.846   3.147  17.211  0.00  0.00    +0.000 OA
ATOM      8  C   UNL     1       4.628   4.219  16.698  0.00  0.00    +0.000 A 
ATOM      9  C   UNL     1       5.761   3.709  15.852  0.00  0.00    +0.000 C 
ENDROOT
BRANCH   1  10
ATOM     10  C   UNL     1       5.169   6.636  16.440  0.00  0.00    +0.000 C 
ATOM     11  O   UNL     1       5.177   6.985  15.270  0.00  0.00    +0.000 OA
BRANCH  10  12
ATOM     12  O   UNL     1       5.995   7.106  17.406  0.00  0.00    +0.000 OA
BRANCH  12  14
ATOM     13  C   UNL     1       7.704   6.130  18.701  0.00  0.00    +0.000 C 
ATOM     14  C   UNL     1       7.375   6.729  17.348  0.00  0.00    +0.000 C 
ENDBRANCH  12  14
ENDBRANCH  10  12
ENDBRANCH   1  10
TORSDOF 3
ENDMDL
MODEL 5
REMARK VINA RESULT:      -5.8      1.475      1.812
REMARK  Name = 
REMARK  6 active torsions:
REMARK  status: ('A' for Active; 'I' for Inactive)
REMARK    1  A    between atoms: C_1  and  C_2
REMARK    2  A    between atoms: C_2  and  O_3
REMARK    3  A    between atoms: O_3  and  C_4
REMARK    4  A    between atoms: C_4  and  C_6
REMARK    5  A    between atoms: C_7  and  C_8
REMARK    6  A    between atoms: C_13  and  C_14
REMARK                            x       y       z     vdW  Elec       q    Type
REMARK                         _______ _______ _______ _____ _____    ______ ____
ROOT
ATOM      1  C   UNL     1       6.024   5.202  17.468  0.00  0.00    +0.000 A 
ATOM      2  C   UNL     1       5.474   4.245  16.501  0.00  0.00    +0.000 A 
ATOM      3  C   UNL     1       4.359   3.288  16.843  0.00  0.00    +0.000 C 
ATOM      4  C   UNL     1       5.935   4.234  15.240  0.00  0.00    +0.000 A 
ATOM      5  C   UNL     1       6.980   5.150  14.777  0.00  0.00    +0.000 A 
ATOM      6  O   UNL     1       7.392   5.103  13.628  0.00  0.00    +0.000 OA
ATOM      7  O   UNL     1       7.431   6.053  15.689  0.00  0.00    +0.000 OA
ATOM      8  C   UNL     1       6.960   6.079  17.031  0.00  0.00    +0.000 A 
ATOM      9  C   UNL     1       7.643   7.157  17.825  0.00  0.00    +0.000 C 
ENDROOT
BRANCH   1  10
ATOM     10  C   UNL     1       5.530   5.242  18.889  0.00  0.00    +0.000 C 
ATOM     11  O   UNL     1       6.060   4.665  19.826  0.00  0.00    +0.000 OA
BRANCH  10  12
ATOM     12  O   UNL     1       4.347   5.901  18.940  0.00  0.00    +0.000 OA
BRANCH  12  14
ATOM     13  C   UNL     1       2.145   5.064  18.983  0.00  0.00    +0.000 C 
ATOM     14  C   UNL     1       3.347   5.412  19.840  0.00  0.00    +0.000 C 
ENDBRANCH  12  14
ENDBRANCH  10  12
ENDBRANCH   1  10
TORSDOF 3
ENDMDL
MODEL 6
REMARK VINA RESULT:      -5.8      2.213      4.674
REMARK  Name = 
REMARK  6 active torsions:
REMARK  status: ('A' for Active; 'I' for Inactive)
REMARK    1  A    between atoms: C_1  and  C_2
REMARK    2  A    between atoms: C_2  and  O_3
REMARK    3  A    between atoms: O_3  and  C_4
REMARK    4  A    between atoms: C_4  and  C_6
REMARK    5  A    between atoms: C_7  and  C_8
REMARK    6  A    between atoms: C_13  and  C_14
REMARK                            x       y       z     vdW  Elec       q    Type
REMARK                         _______ _______ _______ _____ _____    ______ ____
ROOT
ATOM      1  C   UNL     1       4.299   5.577  17.032  0.00  0.00    +0.000 A 
ATOM      2  C   UNL     1       4.594   4.159  16.800  0.00  0.00    +0.000 A 
ATOM      3  C   UNL     1       5.786   3.691  16.002  0.00  0.00    +0.000 C 
ATOM      4  C   UNL     1       3.810   3.217  17.350  0.00  0.00    +0.000 A 
ATOM      5  C   UNL     1       2.653   3.548  18.186  0.00  0.00    +0.000 A 
ATOM      6  O   UNL     1       1.947   2.669  18.656  0.00  0.00    +0.000 OA
ATOM      7  O   UNL     1       2.441   4.872  18.416  0.00  0.00    +0.000 OA
ATOM      8  C   UNL     1       3.256   5.885  17.840  0.00  0.00    +0.000 A 
ATOM      9  C   UNL     1       2.783   7.254  18.239  0.00  0.00    +0.000 C 
ENDROOT
BRANCH   1  10
ATOM     10  C   UNL     1       5.158   6.657  16.432  0.00  0.00    +0.000 C 
ATOM     11  O   UNL     1       5.174   6.956  15.247  0.00  0.00    +0.000 OA
BRANCH  10  12
ATOM     12  O   UNL     1       5.996   7.148  17.377  0.00  0.00    +0.000 OA
BRANCH  12  14
ATOM     13  C   UNL     1       7.672   6.085  18.646  0.00  0.00    +0.000 C 
ATOM     14  C   UNL     1       7.372   6.756  17.320  0.00  0.00    +0.000 C 
ENDBRANCH  12  14
ENDBRANCH  10  12
ENDBRANCH   1  10
TORSDOF 3
ENDMDL
MODEL 7
REMARK VINA RESULT:      -5.7      2.737      3.977
REMARK  Name = 
REMARK  6 active torsions:
REMARK  status: ('A' for Active; 'I' for Inactive)
REMARK    1  A    between atoms: C_1  and  C_2
REMARK    2  A    between atoms: C_2  and  O_3
REMARK    3  A    between atoms: O_3  and  C_4
REMARK    4  A    between atoms: C_4  and  C_6
REMARK    5  A    between atoms: C_7  and  C_8
REMARK    6  A    between atoms: C_13  and  C_14
REMARK                            x       y       z     vdW  Elec       q    Type
REMARK                         _______ _______ _______ _____ _____    ______ ____
ROOT
ATOM      1  C   UNL     1       2.910   4.228  18.538  0.00  0.00    +0.000 A 
ATOM      2  C   UNL     1       3.935   3.195  18.721  0.00  0.00    +0.000 A 
ATOM      3  C   UNL     1       3.671   1.730  18.475  0.00  0.00    +0.000 C 
ATOM      4  C   UNL     1       5.180   3.548  19.077  0.00  0.00    +0.000 A 
ATOM      5  C   UNL     1       5.569   4.944  19.296  0.00  0.00    +0.000 A 
ATOM      6  O   UNL     1       6.705   5.232  19.639  0.00  0.00    +0.000 OA
ATOM      7  O   UNL     1       4.604   5.875  19.071  0.00  0.00    +0.000 OA
ATOM      8  C   UNL     1       3.278   5.522  18.696  0.00  0.00    +0.000 A 
ATOM      9  C   UNL     1       2.415   6.743  18.538  0.00  0.00    +0.000 C 
ENDROOT
BRANCH   1  10
ATOM     10  C   UNL     1       1.505   3.867  18.137  0.00  0.00    +0.000 C 
ATOM     11  O   UNL     1       0.972   4.203  17.090  0.00  0.00    +0.000 OA
BRANCH  10  12
ATOM     12  O   UNL     1       0.888   3.233  19.164  0.00  0.00    +0.000 OA
BRANCH  12  14
ATOM     13  C   UNL     1       1.345   2.801  21.434  0.00  0.00    +0.000 C 
ATOM     14  C   UNL     1       0.907   3.866  20.448  0.00  0.00    +0.000 C 
ENDBRANCH  12  14
ENDBRANCH  10  12
ENDBRANCH   1  10
TORSDOF 3
ENDMDL
MODEL 8
REMARK VINA RESULT:      -5.6      2.665      3.827
REMARK  Name = 
REMARK  6 active torsions:
REMARK  status: ('A' for Active; 'I' for Inactive)
REMARK    1  A    between atoms: C_1  and  C_2
REMARK    2  A    between atoms: C_2  and  O_3
REMARK    3  A    between atoms: O_3  and  C_4
REMARK    4  A    between atoms: C_4  and  C_6
REMARK    5  A    between atoms: C_7  and  C_8
REMARK    6  A    between atoms: C_13  and  C_14
REMARK                            x       y       z     vdW  Elec       q    Type
REMARK                         _______ _______ _______ _____ _____    ______ ____
ROOT
ATOM      1  C   UNL     1       3.886   5.332  18.350  0.00  0.00    +0.000 A 
ATOM      2  C   UNL     1       2.865   5.927  19.219  0.00  0.00    +0.000 A 
ATOM      3  C   UNL     1       2.348   5.243  20.460  0.00  0.00    +0.000 C 
ATOM      4  C   UNL     1       2.388   7.152  18.943  0.00  0.00    +0.000 A 
ATOM      5  C   UNL     1       2.849   7.934  17.794  0.00  0.00    +0.000 A 
ATOM      6  O   UNL     1       2.381   9.038  17.558  0.00  0.00    +0.000 OA
ATOM      7  O   UNL     1       3.830   7.369  17.041  0.00  0.00    +0.000 OA
ATOM      8  C   UNL     1       4.347   6.072  17.313  0.00  0.00    +0.000 A 
ATOM      9  C   UNL     1       5.399   5.686  16.311  0.00  0.00    +0.000 C 
ENDROOT
BRANCH   1  10
ATOM     10  C   UNL     1       4.444   3.962  18.631  0.00  0.00    +0.000 C 
ATOM     11  O   UNL     1       5.400   3.736  19.357  0.00  0.00    +0.000 OA
BRANCH  10  12
ATOM     12  O   UNL     1       3.812   3.047  17.856  0.00  0.00    +0.000 OA
BRANCH  12  14
ATOM     13  C   UNL     1       1.711   2.199  18.500  0.00  0.00    +0.000 C 
ATOM     14  C   UNL     1       3.202   1.927  18.507  0.00  0.00    +0.000 C 
ENDBRANCH  12  14
ENDBRANCH  10  12
ENDBRANCH   1  10
TORSDOF 3
ENDMDL
MODEL 9
REMARK VINA RESULT:      -5.6      2.623      4.295
REMARK  Name = 
REMARK  6 active torsions:
REMARK  status: ('A' for Active; 'I' for Inactive)
REMARK    1  A    between atoms: C_1  and  C_2
REMARK    2  A    between atoms: C_2  and  O_3
REMARK    3  A    between atoms: O_3  and  C_4
REMARK    4  A    between atoms: C_4  and  C_6
REMARK    5  A    between atoms: C_7  and  C_8
REMARK    6  A    between atoms: C_13  and  C_14
REMARK                            x       y       z     vdW  Elec       q    Type
REMARK                         _______ _______ _______ _____ _____    ______ ____
ROOT
ATOM      1  C   UNL     1       3.731   5.381  18.708  0.00  0.00    +0.000 A 
ATOM      2  C   UNL     1       3.964   6.389  17.669  0.00  0.00    +0.000 A 
ATOM      3  C   UNL     1       4.900   6.165  16.508  0.00  0.00    +0.000 C 
ATOM      4  C   UNL     1       3.292   7.552  17.706  0.00  0.00    +0.000 A 
ATOM      5  C   UNL     1       2.320   7.863  18.757  0.00  0.00    +0.000 A 
ATOM      6  O   UNL     1       1.738   8.938  18.775  0.00  0.00    +0.000 OA
ATOM      7  O   UNL     1       2.097   6.885  19.675  0.00  0.00    +0.000 OA
ATOM      8  C   UNL     1       2.800   5.649  19.656  0.00  0.00    +0.000 A 
ATOM      9  C   UNL     1       2.377   4.766  20.796  0.00  0.00    +0.000 C 
ENDROOT
BRANCH   1  10
ATOM     10  C   UNL     1       4.466   4.067  18.696  0.00  0.00    +0.000 C 
ATOM     11  O   UNL     1       5.502   3.844  19.303  0.00  0.00    +0.000 OA
BRANCH  10  12
ATOM     12  O   UNL     1       3.877   3.226  17.811  0.00  0.00    +0.000 OA
BRANCH  12  14
ATOM     13  C   UNL     1       1.856   2.138  18.340  0.00  0.00    +0.000 C 
ATOM     14  C   UNL     1       3.364   1.985  18.308  0.00  0.00    +0.000 C 
ENDBRANCH  12  14
ENDBRANCH  10  12
ENDBRANCH   1  10
TORSDOF 3
ENDMDL
