MODEL 1
REMARK VINA RESULT:      -7.4      0.000      0.000
REMARK  Name = 
REMARK  9 active torsions:
REMARK  status: ('A' for Active; 'I' for Inactive)
REMARK    1  A    between atoms: C_1  and  C_2
REMARK    2  A    between atoms: C_6  and  N_7
REMARK    3  A    between atoms: N_7  and  C_8
REMARK    4  A    between atoms: C_8  and  C_9
REMARK    5  A    between atoms: C_10  and  C_11
REMARK    6  A    between atoms: C_11  and  C_12
REMARK    7  A    between atoms: C_11  and  C_13
REMARK    8  A    between atoms: N_15  and  C_16
REMARK    9  A    between atoms: C_17  and  N_18
REMARK                            x       y       z     vdW  Elec       q    Type
REMARK                         _______ _______ _______ _____ _____    ______ ____
ROOT
ATOM      1  C   UNL     1       3.235   5.130  18.943  0.00  0.00    +0.000 A 
ATOM      2  C   UNL     1       2.452   3.976  18.609  0.00  0.00    +0.000 A 
ATOM      3  N   UNL     1       3.060   3.219  17.689  0.00  0.00    +0.000 NA
ATOM      4  N   UNL     1       4.225   3.845  17.462  0.00  0.00    +0.000 N 
ATOM      5  C   UNL     1       5.044   3.378  16.365  0.00  0.00    +0.000 C 
ATOM      6  C   UNL     1       4.432   4.955  18.253  0.00  0.00    +0.000 A 
ENDROOT
BRANCH   6   7
ATOM      7  N   UNL     1       5.612   5.647  18.191  0.00  0.00    +0.000 N 
ATOM      8  C   UNL     1       5.686   6.967  17.532  0.00  0.00    +0.000 C 
ATOM      9  C   UNL     1       7.153   7.264  17.163  0.00  0.00    +0.000 C 
ATOM     10  O   UNL     1       8.032   7.181  18.302  0.00  0.00    +0.000 OA
ATOM     11  C   UNL     1       7.933   5.887  18.921  0.00  0.00    +0.000 C 
ATOM     12  C   UNL     1       6.495   5.614  19.381  0.00  0.00    +0.000 C 
ENDBRANCH   6   7
BRANCH   2  13
ATOM     13  C   UNL     1       1.108   3.550  19.147  0.00  0.00    +0.000 C 
ATOM     14  C   UNL     1       0.686   2.181  18.612  0.00  0.00    +0.000 C 
ATOM     15  C   UNL     1       1.066   3.548  20.681  0.00  0.00    +0.000 C 
ENDBRANCH   2  13
BRANCH   1  16
ATOM     16  C   UNL     1       2.829   6.227  19.879  0.00  0.00    +0.000 C 
BRANCH  16  17
ATOM     17  N   UNL     1       2.464   7.482  19.219  0.00  0.00    +0.000 N 
ATOM     18  H   UNL     1       2.329   7.373  18.218  0.00  0.00    +0.000 HD
BRANCH  17  24
ATOM     19  C   UNL     1       0.062   9.400  23.142  0.00  0.00    +0.000 C 
ATOM     20  C   UNL     1       0.441   9.415  21.695  0.00  0.00    +0.000 A 
ATOM     21  C   UNL     1       0.017  10.425  20.844  0.00  0.00    +0.000 A 
ATOM     22  N   UNL     1       0.339  10.487  19.537  0.00  0.00    +0.000 NA
ATOM     23  C   UNL     1       1.120   9.486  19.061  0.00  0.00    +0.000 A 
ATOM     24  C   UNL     1       1.593   8.397  19.803  0.00  0.00    +0.000 A 
ATOM     25  C   UNL     1       1.252   8.403  21.157  0.00  0.00    +0.000 A 
ENDBRANCH  17  24
ENDBRANCH  16  17
ENDBRANCH   1  16
TORSDOF 5
ENDMDL
MODEL 2
REMARK VINA RESULT:      -7.1      0.399      1.045
REMARK  Name = 
REMARK  9 active torsions:
REMARK  status: ('A' for Active; 'I' for Inactive)
REMARK    1  A    between atoms: C_1  and  C_2
REMARK    2  A    between atoms: C_6  and  N_7
REMARK    3  A    between atoms: N_7  and  C_8
REMARK    4  A    between atoms: C_8  and  C_9
REMARK    5  A    between atoms: C_10  and  C_11
REMARK    6  A    between atoms: C_11  and  C_12
REMARK    7  A    between atoms: C_11  and  C_13
REMARK    8  A    between atoms: N_15  and  C_16
REMARK    9  A    between atoms: C_17  and  N_18
REMARK                            x       y       z     vdW  Elec       q    Type
REMARK                         _______ _______ _______ _____ _____    ______ ____
ROOT
ATOM      1  C   UNL     1       3.196   5.167  19.124  0.00  0.00    +0.000 A 
ATOM      2  C   UNL     1       2.465   3.954  18.899  0.00  0.00    +0.000 A 
ATOM      3  N   UNL     1       3.071   3.175  17.997  0.00  0.00    +0.000 NA
ATOM      4  N   UNL     1       4.186   3.846  17.675  0.00  0.00    +0.000 N 
ATOM      5  C   UNL     1       4.978   3.356  16.568  0.00  0.00    +0.000 C 
ATOM      6  C   UNL     1       4.367   5.013  18.387  0.00  0.00    +0.000 A 
ENDROOT
BRANCH   6   7
ATOM      7  N   UNL     1       5.502   5.762  18.224  0.00  0.00    +0.000 N 
ATOM      8  C   UNL     1       6.832   5.208  18.552  0.00  0.00    +0.000 C 
ATOM      9  C   UNL     1       7.822   6.370  18.765  0.00  0.00    +0.000 C 
ATOM     10  O   UNL     1       7.874   7.259  17.632  0.00  0.00    +0.000 OA
ATOM     11  C   UNL     1       6.566   7.776  17.339  0.00  0.00    +0.000 C 
ATOM     12  C   UNL     1       5.587   6.636  17.030  0.00  0.00    +0.000 C 
ENDBRANCH   6   7
BRANCH   2  13
ATOM     13  C   UNL     1       1.172   3.492  19.528  0.00  0.00    +0.000 C 
ATOM     14  C   UNL     1       0.576   2.291  18.791  0.00  0.00    +0.000 C 
ATOM     15  C   UNL     1       1.333   3.162  21.019  0.00  0.00    +0.000 C 
ENDBRANCH   2  13
BRANCH   1  16
ATOM     16  C   UNL     1       2.772   6.297  20.012  0.00  0.00    +0.000 C 
BRANCH  16  17
ATOM     17  N   UNL     1       2.341   7.499  19.297  0.00  0.00    +0.000 N 
ATOM     18  H   UNL     1       2.122   7.317  18.321  0.00  0.00    +0.000 HD
BRANCH  17  24
ATOM     19  C   UNL     1      -0.032   9.461  23.216  0.00  0.00    +0.000 C 
ATOM     20  C   UNL     1       0.381   9.489  21.778  0.00  0.00    +0.000 A 
ATOM     21  C   UNL     1       0.040  10.545  20.946  0.00  0.00    +0.000 A 
ATOM     22  N   UNL     1       0.395  10.620  19.648  0.00  0.00    +0.000 NA
ATOM     23  C   UNL     1       1.125   9.586  19.163  0.00  0.00    +0.000 A 
ATOM     24  C   UNL     1       1.513   8.451  19.886  0.00  0.00    +0.000 A 
ATOM     25  C   UNL     1       1.141   8.444  21.231  0.00  0.00    +0.000 A 
ENDBRANCH  17  24
ENDBRANCH  16  17
ENDBRANCH   1  16
TORSDOF 5
ENDMDL
MODEL 3
REMARK VINA RESULT:      -7.0      0.771      1.379
REMARK  Name = 
REMARK  9 active torsions:
REMARK  status: ('A' for Active; 'I' for Inactive)
REMARK    1  A    between atoms: C_1  and  C_2
REMARK    2  A    between atoms: C_6  and  N_7
REMARK    3  A    between atoms: N_7  and  C_8
REMARK    4  A    between atoms: C_8  and  C_9
REMARK    5  A    between atoms: C_10  and  C_11
REMARK    6  A    between atoms: C_11  and  C_12
REMARK    7  A    between atoms: C_11  and  C_13
REMARK    8  A    between atoms: N_15  and  C_16
REMARK    9  A    between atoms: C_17  and  N_18
REMARK                            x       y       z     vdW  Elec       q    Type
REMARK                         _______ _______ _______ _____ _____    ______ ____
ROOT
ATOM      1  C   UNL     1       3.205   5.024  19.065  0.00  0.00    +0.000 A 
ATOM      2  C   UNL     1       2.444   3.840  18.791  0.00  0.00    +0.000 A 
ATOM      3  N   UNL     1       3.046   3.069  17.877  0.00  0.00    +0.000 NA
ATOM      4  N   UNL     1       4.185   3.718  17.596  0.00  0.00    +0.000 N 
ATOM      5  C   UNL     1       4.985   3.238  16.490  0.00  0.00    +0.000 C 
ATOM      6  C   UNL     1       4.385   4.858  18.345  0.00  0.00    +0.000 A 
ENDROOT
BRANCH   6   7
ATOM      7  N   UNL     1       5.544   5.578  18.225  0.00  0.00    +0.000 N 
ATOM      8  C   UNL     1       5.562   6.880  17.526  0.00  0.00    +0.000 C 
ATOM      9  C   UNL     1       7.009   7.203  17.102  0.00  0.00    +0.000 C 
ATOM     10  O   UNL     1       7.923   7.177  18.215  0.00  0.00    +0.000 OA
ATOM     11  C   UNL     1       7.878   5.901  18.875  0.00  0.00    +0.000 C 
ATOM     12  C   UNL     1       6.463   5.605  19.388  0.00  0.00    +0.000 C 
ENDBRANCH   6   7
BRANCH   2  13
ATOM     13  C   UNL     1       1.128   3.396  19.382  0.00  0.00    +0.000 C 
ATOM     14  C   UNL     1       0.574   2.157  18.677  0.00  0.00    +0.000 C 
ATOM     15  C   UNL     1       1.223   3.140  20.892  0.00  0.00    +0.000 C 
ENDBRANCH   2  13
BRANCH   1  16
ATOM     16  C   UNL     1       2.797   6.139  19.977  0.00  0.00    +0.000 C 
BRANCH  16  17
ATOM     17  N   UNL     1       2.486   7.397  19.295  0.00  0.00    +0.000 N 
ATOM     18  H   UNL     1       2.360   7.278  18.294  0.00  0.00    +0.000 HD
BRANCH  17  24
ATOM     19  C   UNL     1      -0.396  11.452  18.998  0.00  0.00    +0.000 C 
ATOM     20  C   UNL     1       0.169  10.292  19.755  0.00  0.00    +0.000 A 
ATOM     21  C   UNL     1      -0.202  10.031  21.066  0.00  0.00    +0.000 A 
ATOM     22  N   UNL     1       0.273   8.995  21.786  0.00  0.00    +0.000 NA
ATOM     23  C   UNL     1       1.163   8.185  21.160  0.00  0.00    +0.000 A 
ATOM     24  C   UNL     1       1.640   8.351  19.855  0.00  0.00    +0.000 A 
ATOM     25  C   UNL     1       1.090   9.423  19.150  0.00  0.00    +0.000 A 
ENDBRANCH  17  24
ENDBRANCH  16  17
ENDBRANCH   1  16
TORSDOF 5
ENDMDL
MODEL 4
REMARK VINA RESULT:      -7.0      1.624      1.934
REMARK  Name = 
REMARK  9 active torsions:
REMARK  status: ('A' for Active; 'I' for Inactive)
REMARK    1  A    between atoms: C_1  and  C_2
REMARK    2  A    between atoms: C_6  and  N_7
REMARK    3  A    between atoms: N_7  and  C_8
REMARK    4  A    between atoms: C_8  and  C_9
REMARK    5  A    between atoms: C_10  and  C_11
REMARK    6  A    between atoms: C_11  and  C_12
REMARK    7  A    between atoms: C_11  and  C_13
REMARK    8  A    between atoms: N_15  and  C_16
REMARK    9  A    between atoms: C_17  and  N_18
REMARK                            x       y       z     vdW  Elec       q    Type
REMARK                         _______ _______ _______ _____ _____    ______ ____
ROOT
ATOM      1  C   UNL     1       3.602   4.594  19.218  0.00  0.00    +0.000 A 
ATOM      2  C   UNL     1       2.787   3.656  19.933  0.00  0.00    +0.000 A 
ATOM      3  N   UNL     1       2.936   2.414  19.461  0.00  0.00    +0.000 NA
ATOM      4  N   UNL     1       3.853   2.537  18.490  0.00  0.00    +0.000 N 
ATOM      5  C   UNL     1       4.102   1.391  17.642  0.00  0.00    +0.000 C 
ATOM      6  C   UNL     1       4.363   3.810  18.353  0.00  0.00    +0.000 A 
ENDROOT
BRANCH   6   7
ATOM      7  N   UNL     1       5.367   4.069  17.459  0.00  0.00    +0.000 N 
ATOM      8  C   UNL     1       5.064   4.404  16.052  0.00  0.00    +0.000 C 
ATOM      9  C   UNL     1       6.317   4.143  15.192  0.00  0.00    +0.000 C 
ATOM     10  O   UNL     1       7.472   4.854  15.679  0.00  0.00    +0.000 OA
ATOM     11  C   UNL     1       7.736   4.508  17.049  0.00  0.00    +0.000 C 
ATOM     12  C   UNL     1       6.533   4.850  17.936  0.00  0.00    +0.000 C 
ENDBRANCH   6   7
BRANCH   2  13
ATOM     13  C   UNL     1       1.843   3.902  21.086  0.00  0.00    +0.000 C 
ATOM     14  C   UNL     1       0.544   4.568  20.629  0.00  0.00    +0.000 C 
ATOM     15  C   UNL     1       1.526   2.617  21.865  0.00  0.00    +0.000 C 
ENDBRANCH   2  13
BRANCH   1  16
ATOM     16  C   UNL     1       3.630   6.076  19.431  0.00  0.00    +0.000 C 
BRANCH  16  17
ATOM     17  N   UNL     1       2.670   6.823  18.617  0.00  0.00    +0.000 N 
ATOM     18  H   UNL     1       2.116   6.221  18.014  0.00  0.00    +0.000 HD
BRANCH  17  24
ATOM     19  C   UNL     1       0.488   9.323  22.336  0.00  0.00    +0.000 C 
ATOM     20  C   UNL     1       0.935   9.206  20.913  0.00  0.00    +0.000 A 
ATOM     21  C   UNL     1       0.756  10.243  20.008  0.00  0.00    +0.000 A 
ATOM     22  N   UNL     1       1.147  10.188  18.720  0.00  0.00    +0.000 NA
ATOM     23  C   UNL     1       1.745   9.038  18.321  0.00  0.00    +0.000 A 
ATOM     24  C   UNL     1       1.963   7.911  19.122  0.00  0.00    +0.000 A 
ATOM     25  C   UNL     1       1.562   8.038  20.453  0.00  0.00    +0.000 A 
ENDBRANCH  17  24
ENDBRANCH  16  17
ENDBRANCH   1  16
TORSDOF 5
ENDMDL
MODEL 5
REMARK VINA RESULT:      -6.8      1.123      1.414
REMARK  Name = 
REMARK  9 active torsions:
REMARK  status: ('A' for Active; 'I' for Inactive)
REMARK    1  A    between atoms: C_1  and  C_2
REMARK    2  A    between atoms: C_6  and  N_7
REMARK    3  A    between atoms: N_7  and  C_8
REMARK    4  A    between atoms: C_8  and  C_9
REMARK    5  A    between atoms: C_10  and  C_11
REMARK    6  A    between atoms: C_11  and  C_12
REMARK    7  A    between atoms: C_11  and  C_13
REMARK    8  A    between atoms: N_15  and  C_16
REMARK    9  A    between atoms: C_17  and  N_18
REMARK                            x       y       z     vdW  Elec       q    Type
REMARK                         _______ _______ _______ _____ _____    ______ ____
ROOT
ATOM      1  C   UNL     1       3.389   4.967  19.249  0.00  0.00    +0.000 A 
ATOM      2  C   UNL     1       2.549   3.869  18.869  0.00  0.00    +0.000 A 
ATOM      3  N   UNL     1       3.031   3.228  17.798  0.00  0.00    +0.000 NA
ATOM      4  N   UNL     1       4.174   3.871  17.515  0.00  0.00    +0.000 N 
ATOM      5  C   UNL     1       4.851   3.539  16.281  0.00  0.00    +0.000 C 
ATOM      6  C   UNL     1       4.494   4.873  18.407  0.00  0.00    +0.000 A 
ENDROOT
BRANCH   6   7
ATOM      7  N   UNL     1       5.673   5.559  18.292  0.00  0.00    +0.000 N 
ATOM      8  C   UNL     1       5.728   6.865  17.604  0.00  0.00    +0.000 C 
ATOM      9  C   UNL     1       7.184   7.150  17.181  0.00  0.00    +0.000 C 
ATOM     10  O   UNL     1       8.098   7.088  18.293  0.00  0.00    +0.000 OA
ATOM     11  C   UNL     1       8.016   5.808  18.942  0.00  0.00    +0.000 C 
ATOM     12  C   UNL     1       6.593   5.549  19.454  0.00  0.00    +0.000 C 
ENDBRANCH   6   7
BRANCH   2  13
ATOM     13  C   UNL     1       1.267   3.387  19.504  0.00  0.00    +0.000 C 
ATOM     14  C   UNL     1       0.626   2.250  18.707  0.00  0.00    +0.000 C 
ATOM     15  C   UNL     1       1.464   2.955  20.964  0.00  0.00    +0.000 C 
ENDBRANCH   2  13
BRANCH   1  16
ATOM     16  C   UNL     1       3.115   5.941  20.353  0.00  0.00    +0.000 C 
BRANCH  16  17
ATOM     17  N   UNL     1       1.823   6.623  20.254  0.00  0.00    +0.000 N 
ATOM     18  H   UNL     1       1.281   6.559  21.111  0.00  0.00    +0.000 HD
BRANCH  17  24
ATOM     19  C   UNL     1       0.493  11.423  20.085  0.00  0.00    +0.000 C 
ATOM     20  C   UNL     1       1.103  10.203  19.469  0.00  0.00    +0.000 A 
ATOM     21  C   UNL     1       1.668  10.236  18.202  0.00  0.00    +0.000 A 
ATOM     22  N   UNL     1       2.236   9.168  17.608  0.00  0.00    +0.000 NA
ATOM     23  C   UNL     1       2.236   8.013  18.319  0.00  0.00    +0.000 A 
ATOM     24  C   UNL     1       1.678   7.838  19.591  0.00  0.00    +0.000 A 
ATOM     25  C   UNL     1       1.131   8.986  20.166  0.00  0.00    +0.000 A 
ENDBRANCH  17  24
ENDBRANCH  16  17
ENDBRANCH   1  16
TORSDOF 5
ENDMDL
MODEL 6
REMARK VINA RESULT:      -6.7      0.857      1.766
REMARK  Name = 
REMARK  9 active torsions:
REMARK  status: ('A' for Active; 'I' for Inactive)
REMARK    1  A    between atoms: C_1  and  C_2
REMARK    2  A    between atoms: C_6  and  N_7
REMARK    3  A    between atoms: N_7  and  C_8
REMARK    4  A    between atoms: C_8  and  C_9
REMARK    5  A    between atoms: C_10  and  C_11
REMARK    6  A    between atoms: C_11  and  C_12
REMARK    7  A    between atoms: C_11  and  C_13
REMARK    8  A    between atoms: N_15  and  C_16
REMARK    9  A    between atoms: C_17  and  N_18
REMARK                            x       y       z     vdW  Elec       q    Type
REMARK                         _______ _______ _______ _____ _____    ______ ____
ROOT
ATOM      1  C   UNL     1       3.197   5.248  18.950  0.00  0.00    +0.000 A 
ATOM      2  C   UNL     1       2.465   4.043  18.683  0.00  0.00    +0.000 A 
ATOM      3  N   UNL     1       3.104   3.264  17.804  0.00  0.00    +0.000 NA
ATOM      4  N   UNL     1       4.238   3.928  17.537  0.00  0.00    +0.000 N 
ATOM      5  C   UNL     1       5.075   3.438  16.463  0.00  0.00    +0.000 C 
ATOM      6  C   UNL     1       4.398   5.088  18.264  0.00  0.00    +0.000 A 
ENDROOT
BRANCH   6   7
ATOM      7  N   UNL     1       5.546   5.827  18.158  0.00  0.00    +0.000 N 
ATOM      8  C   UNL     1       6.855   5.258  18.539  0.00  0.00    +0.000 C 
ATOM      9  C   UNL     1       7.846   6.409  18.805  0.00  0.00    +0.000 C 
ATOM     10  O   UNL     1       7.956   7.306  17.683  0.00  0.00    +0.000 OA
ATOM     11  C   UNL     1       6.666   7.838  17.336  0.00  0.00    +0.000 C 
ATOM     12  C   UNL     1       5.692   6.709  16.975  0.00  0.00    +0.000 C 
ENDBRANCH   6   7
BRANCH   2  13
ATOM     13  C   UNL     1       1.142   3.589  19.251  0.00  0.00    +0.000 C 
ATOM     14  C   UNL     1       0.698   2.249  18.662  0.00  0.00    +0.000 C 
ATOM     15  C   UNL     1       1.161   3.505  20.783  0.00  0.00    +0.000 C 
ENDBRANCH   2  13
BRANCH   1  16
ATOM     16  C   UNL     1       2.744   6.375  19.825  0.00  0.00    +0.000 C 
BRANCH  16  17
ATOM     17  N   UNL     1       2.465   7.622  19.111  0.00  0.00    +0.000 N 
ATOM     18  H   UNL     1       2.405   7.492  18.105  0.00  0.00    +0.000 HD
BRANCH  17  24
ATOM     19  C   UNL     1      -0.675  11.449  18.526  0.00  0.00    +0.000 C 
ATOM     20  C   UNL     1      -0.017  10.403  19.370  0.00  0.00    +0.000 A 
ATOM     21  C   UNL     1      -0.335  10.248  20.711  0.00  0.00    +0.000 A 
ATOM     22  N   UNL     1       0.224   9.317  21.510  0.00  0.00    +0.000 NA
ATOM     23  C   UNL     1       1.146   8.506  20.936  0.00  0.00    +0.000 A 
ATOM     24  C   UNL     1       1.576   8.573  19.605  0.00  0.00    +0.000 A 
ATOM     25  C   UNL     1       0.941   9.537  18.820  0.00  0.00    +0.000 A 
ENDBRANCH  17  24
ENDBRANCH  16  17
ENDBRANCH   1  16
TORSDOF 5
ENDMDL
MODEL 7
REMARK VINA RESULT:      -6.6      1.763      2.358
REMARK  Name = 
REMARK  9 active torsions:
REMARK  status: ('A' for Active; 'I' for Inactive)
REMARK    1  A    between atoms: C_1  and  C_2
REMARK    2  A    between atoms: C_6  and  N_7
REMARK    3  A    between atoms: N_7  and  C_8
REMARK    4  A    between atoms: C_8  and  C_9
REMARK    5  A    between atoms: C_10  and  C_11
REMARK    6  A    between atoms: C_11  and  C_12
REMARK    7  A    between atoms: C_11  and  C_13
REMARK    8  A    between atoms: N_15  and  C_16
REMARK    9  A    between atoms: C_17  and  N_18
REMARK                            x       y       z     vdW  Elec       q    Type
REMARK                         _______ _______ _______ _____ _____    ______ ____
ROOT
ATOM      1  C   UNL     1       3.637   4.652  19.119  0.00  0.00    +0.000 A 
ATOM      2  C   UNL     1       2.835   3.728  19.866  0.00  0.00    +0.000 A 
ATOM      3  N   UNL     1       2.982   2.476  19.418  0.00  0.00    +0.000 NA
ATOM      4  N   UNL     1       3.885   2.580  18.433  0.00  0.00    +0.000 N 
ATOM      5  C   UNL     1       4.127   1.417  17.607  0.00  0.00    +0.000 C 
ATOM      6  C   UNL     1       4.389   3.852  18.261  0.00  0.00    +0.000 A 
ENDROOT
BRANCH   6   7
ATOM      7  N   UNL     1       5.379   4.094  17.348  0.00  0.00    +0.000 N 
ATOM      8  C   UNL     1       5.056   4.448  15.950  0.00  0.00    +0.000 C 
ATOM      9  C   UNL     1       6.284   4.165  15.062  0.00  0.00    +0.000 C 
ATOM     10  O   UNL     1       7.465   4.844  15.530  0.00  0.00    +0.000 OA
ATOM     11  C   UNL     1       7.750   4.481  16.891  0.00  0.00    +0.000 C 
ATOM     12  C   UNL     1       6.573   4.844  17.807  0.00  0.00    +0.000 C 
ENDBRANCH   6   7
BRANCH   2  13
ATOM     13  C   UNL     1       1.906   3.995  21.025  0.00  0.00    +0.000 C 
ATOM     14  C   UNL     1       0.548   4.525  20.559  0.00  0.00    +0.000 C 
ATOM     15  C   UNL     1       1.707   2.758  21.912  0.00  0.00    +0.000 C 
ENDBRANCH   2  13
BRANCH   1  16
ATOM     16  C   UNL     1       3.663   6.139  19.299  0.00  0.00    +0.000 C 
BRANCH  16  17
ATOM     17  N   UNL     1       2.499   6.836  18.749  0.00  0.00    +0.000 N 
ATOM     18  H   UNL     1       1.813   6.199  18.352  0.00  0.00    +0.000 HD
BRANCH  17  24
ATOM     19  C   UNL     1       0.467  11.386  18.687  0.00  0.00    +0.000 C 
ATOM     20  C   UNL     1       0.878  10.138  19.402  0.00  0.00    +0.000 A 
ATOM     21  C   UNL     1       0.626   9.961  20.755  0.00  0.00    +0.000 A 
ATOM     22  N   UNL     1       0.970   8.852  21.441  0.00  0.00    +0.000 NA
ATOM     23  C   UNL     1       1.598   7.879  20.736  0.00  0.00    +0.000 A 
ATOM     24  C   UNL     1       1.935   7.941  19.379  0.00  0.00    +0.000 A 
ATOM     25  C   UNL     1       1.527   9.100  18.715  0.00  0.00    +0.000 A 
ENDBRANCH  17  24
ENDBRANCH  16  17
ENDBRANCH   1  16
TORSDOF 5
ENDMDL
MODEL 8
REMARK VINA RESULT:      -6.6      2.487      4.583
REMARK  Name = 
REMARK  9 active torsions:
REMARK  status: ('A' for Active; 'I' for Inactive)
REMARK    1  A    between atoms: C_1  and  C_2
REMARK    2  A    between atoms: C_6  and  N_7
REMARK    3  A    between atoms: N_7  and  C_8
REMARK    4  A    between atoms: C_8  and  C_9
REMARK    5  A    between atoms: C_10  and  C_11
REMARK    6  A    between atoms: C_11  and  C_12
REMARK    7  A    between atoms: C_11  and  C_13
REMARK    8  A    between atoms: N_15  and  C_16
REMARK    9  A    between atoms: C_17  and  N_18
REMARK                            x       y       z     vdW  Elec       q    Type
REMARK                         _______ _______ _______ _____ _____    ______ ____
ROOT
ATOM      1  C   UNL     1       4.285   4.960  17.582  0.00  0.00    +0.000 A 
ATOM      2  C   UNL     1       4.942   4.375  16.449  0.00  0.00    +0.000 A 
ATOM      3  N   UNL     1       4.802   3.045  16.432  0.00  0.00    +0.000 NA
ATOM      4  N   UNL     1       4.041   2.779  17.504  0.00  0.00    +0.000 N 
ATOM      5  C   UNL     1       3.862   1.394  17.882  0.00  0.00    +0.000 C 
ATOM      6  C   UNL     1       3.620   3.899  18.190  0.00  0.00    +0.000 A 
ENDROOT
BRANCH   6   7
ATOM      7  N   UNL     1       2.770   3.786  19.257  0.00  0.00    +0.000 N 
ATOM      8  C   UNL     1       1.328   3.531  19.057  0.00  0.00    +0.000 C 
ATOM      9  C   UNL     1       0.563   3.951  20.328  0.00  0.00    +0.000 C 
ATOM     10  O   UNL     1       1.066   3.300  21.511  0.00  0.00    +0.000 OA
ATOM     11  C   UNL     1       2.470   3.565  21.673  0.00  0.00    +0.000 C 
ATOM     12  C   UNL     1       3.260   3.066  20.457  0.00  0.00    +0.000 C 
ENDBRANCH   6   7
BRANCH   2  13
ATOM     13  C   UNL     1       5.720   5.052  15.346  0.00  0.00    +0.000 C 
ATOM     14  C   UNL     1       7.154   5.370  15.771  0.00  0.00    +0.000 C 
ATOM     15  C   UNL     1       5.730   4.230  14.049  0.00  0.00    +0.000 C 
ENDBRANCH   2  13
BRANCH   1  16
ATOM     16  C   UNL     1       4.300   6.411  17.953  0.00  0.00    +0.000 C 
BRANCH  16  17
ATOM     17  N   UNL     1       3.082   7.140  17.595  0.00  0.00    +0.000 N 
ATOM     18  H   UNL     1       2.493   6.624  16.947  0.00  0.00    +0.000 HD
BRANCH  17  24
ATOM     19  C   UNL     1       0.167  10.974  18.880  0.00  0.00    +0.000 C 
ATOM     20  C   UNL     1       0.890   9.704  19.202  0.00  0.00    +0.000 A 
ATOM     21  C   UNL     1       0.808   9.121  20.459  0.00  0.00    +0.000 A 
ATOM     22  N   UNL     1       1.434   7.976  20.794  0.00  0.00    +0.000 NA
ATOM     23  C   UNL     1       2.178   7.389  19.825  0.00  0.00    +0.000 A 
ATOM     24  C   UNL     1       2.365   7.884  18.528  0.00  0.00    +0.000 A 
ATOM     25  C   UNL     1       1.670   9.057  18.231  0.00  0.00    +0.000 A 
ENDBRANCH  17  24
ENDBRANCH  16  17
ENDBRANCH   1  16
TORSDOF 5
ENDMDL
MODEL 9
REMARK VINA RESULT:      -6.6      2.369      4.507
REMARK  Name = 
REMARK  9 active torsions:
REMARK  status: ('A' for Active; 'I' for Inactive)
REMARK    1  A    between atoms: C_1  and  C_2
REMARK    2  A    between atoms: C_6  and  N_7
REMARK    3  A    between atoms: N_7  and  C_8
REMARK    4  A    between atoms: C_8  and  C_9
REMARK    5  A    between atoms: C_10  and  C_11
REMARK    6  A    between atoms: C_11  and  C_12
REMARK    7  A    between atoms: C_11  and  C_13
REMARK    8  A    between atoms: N_15  and  C_16
REMARK    9  A    between atoms: C_17  and  N_18
REMARK                            x       y       z     vdW  Elec       q    Type
REMARK                         _______ _______ _______ _____ _____    ______ ____
ROOT
ATOM      1  C   UNL     1       4.219   4.994  17.899  0.00  0.00    +0.000 A 
ATOM      2  C   UNL     1       4.929   4.604  16.716  0.00  0.00    +0.000 A 
ATOM      3  N   UNL     1       4.888   3.280  16.533  0.00  0.00    +0.000 NA
ATOM      4  N   UNL     1       4.137   2.828  17.549  0.00  0.00    +0.000 N 
ATOM      5  C   UNL     1       4.056   1.397  17.749  0.00  0.00    +0.000 C 
ATOM      6  C   UNL     1       3.627   3.821  18.358  0.00  0.00    +0.000 A 
ENDROOT
BRANCH   6   7
ATOM      7  N   UNL     1       2.776   3.515  19.386  0.00  0.00    +0.000 N 
ATOM      8  C   UNL     1       3.255   3.477  20.784  0.00  0.00    +0.000 C 
ATOM      9  C   UNL     1       2.273   2.640  21.629  0.00  0.00    +0.000 C 
ATOM     10  O   UNL     1       0.920   3.126  21.536  0.00  0.00    +0.000 OA
ATOM     11  C   UNL     1       0.488   3.153  20.165  0.00  0.00    +0.000 C 
ATOM     12  C   UNL     1       1.399   4.059  19.327  0.00  0.00    +0.000 C 
ENDBRANCH   6   7
BRANCH   2  13
ATOM     13  C   UNL     1       5.667   5.466  15.721  0.00  0.00    +0.000 C 
ATOM     14  C   UNL     1       6.980   6.003  16.294  0.00  0.00    +0.000 C 
ATOM     15  C   UNL     1       5.936   4.734  14.399  0.00  0.00    +0.000 C 
ENDBRANCH   2  13
BRANCH   1  16
ATOM     16  C   UNL     1       4.123   6.385  18.447  0.00  0.00    +0.000 C 
BRANCH  16  17
ATOM     17  N   UNL     1       3.163   7.245  17.752  0.00  0.00    +0.000 N 
ATOM     18  H   UNL     1       2.747   6.792  16.943  0.00  0.00    +0.000 HD
BRANCH  17  24
ATOM     19  C   UNL     1       0.770   8.682  21.881  0.00  0.00    +0.000 C 
ATOM     20  C   UNL     1       1.135   8.862  20.441  0.00  0.00    +0.000 A 
ATOM     21  C   UNL     1       0.688   9.953  19.710  0.00  0.00    +0.000 A 
ATOM     22  N   UNL     1       0.996  10.163  18.415  0.00  0.00    +0.000 NA
ATOM     23  C   UNL     1       1.788   9.233  17.826  0.00  0.00    +0.000 A 
ATOM     24  C   UNL     1       2.284   8.076  18.440  0.00  0.00    +0.000 A 
ATOM     25  C   UNL     1       1.956   7.929  19.789  0.00  0.00    +0.000 A 
ENDBRANCH  17  24
ENDBRANCH  16  17
ENDBRANCH   1  16
TORSDOF 5
ENDMDL
