MODEL 1
REMARK VINA RESULT:      -7.4      0.000      0.000
REMARK  Name = 
REMARK  7 active torsions:
REMARK  status: ('A' for Active; 'I' for Inactive)
REMARK    1  A    between atoms: C_1  and  N_2
REMARK    2  A    between atoms: N_2  and  C_3
REMARK    3  A    between atoms: N_6  and  C_7
REMARK    4  A    between atoms: C_10  and  C_11
REMARK    5  A    between atoms: C_20  and  O_21
REMARK    6  A    between atoms: O_21  and  C_22
REMARK    7  A    between atoms: C_25  and  C_26
REMARK                            x       y       z     vdW  Elec       q    Type
REMARK                         _______ _______ _______ _____ _____    ______ ____
ROOT
ATOM      1  C   UNL     1       1.347   9.065  19.587  0.00  0.00    +0.000 A 
ATOM      2  C   UNL     1       1.598   7.848  20.265  0.00  0.00    +0.000 A 
ATOM      3  C   UNL     1       2.370   6.822  19.713  0.00  0.00    +0.000 A 
ATOM      4  C   UNL     1       2.905   6.972  18.438  0.00  0.00    +0.000 A 
ATOM      5  C   UNL     1       2.714   8.189  17.780  0.00  0.00    +0.000 A 
ATOM      6  C   UNL     1       1.964   9.245  18.338  0.00  0.00    +0.000 A 
ENDROOT
BRANCH   1  10
ATOM      7  C   UNL     1      -2.418  10.387  18.088  0.00  0.00    +0.000 A 
ATOM      8  N   UNL     1      -1.239   9.937  18.555  0.00  0.00    +0.000 NA
ATOM      9  C   UNL     1      -0.635  10.581  19.566  0.00  0.00    +0.000 A 
ATOM     10  N   UNL     1       0.456   9.971  20.205  0.00  0.00    +0.000 N 
ATOM     11  N   UNL     1      -1.106  11.716  20.086  0.00  0.00    +0.000 NA
ATOM     12  C   UNL     1      -2.313  12.129  19.647  0.00  0.00    +0.000 A 
ATOM     13  C   UNL     1      -3.026  11.487  18.660  0.00  0.00    +0.000 A 
ATOM     14  H   UNL     1       0.883  10.637  20.838  0.00  0.00    +0.000 HD
BRANCH   7  16
ATOM     15  C   UNL     1      -2.696  10.147  15.697  0.00  0.00    +0.000 C 
ATOM     16  N   UNL     1      -3.015   9.657  17.042  0.00  0.00    +0.000 N 
ATOM     17  H   UNL     1      -2.720   8.687  17.144  0.00  0.00    +0.000 HD
ENDBRANCH   7  16
BRANCH  13  18
ATOM     18  C   UNL     1      -4.347  11.950  18.353  0.00  0.00    +0.000 C 
ATOM     19  N   UNL     1      -5.428  12.269  18.129  0.00  0.00    +0.000 NA
ENDBRANCH  13  18
ENDBRANCH   1  10
BRANCH   4  20
ATOM     20  C   UNL     1       3.490   5.794  17.726  0.00  0.00    +0.000 C 
ATOM     21  O   UNL     1       2.885   4.725  17.740  0.00  0.00    +0.000 OA
ATOM     22  N   UNL     1       4.651   5.985  16.981  0.00  0.00    +0.000 N 
ATOM     23  C   UNL     1       5.120   4.924  16.105  0.00  0.00    +0.000 C 
ATOM     24  C   UNL     1       6.547   5.304  15.745  0.00  0.00    +0.000 C 
ATOM     25  C   UNL     1       7.021   6.031  16.990  0.00  0.00    +0.000 C 
ATOM     26  F   UNL     1       7.392   5.115  17.925  0.00  0.00    +0.000 F 
ATOM     27  C   UNL     1       5.779   6.776  17.468  0.00  0.00    +0.000 C 
ENDBRANCH   4  20
BRANCH   6  28
ATOM     28  O   UNL     1       2.007  10.315  17.486  0.00  0.00    +0.000 OA
ATOM     29  C   UNL     1       2.496  11.576  17.882  0.00  0.00    +0.000 C 
ENDBRANCH   6  28
TORSDOF 5
ENDMDL
MODEL 2
REMARK VINA RESULT:      -7.4      2.251      3.360
REMARK  Name = 
REMARK  7 active torsions:
REMARK  status: ('A' for Active; 'I' for Inactive)
REMARK    1  A    between atoms: C_1  and  N_2
REMARK    2  A    between atoms: N_2  and  C_3
REMARK    3  A    between atoms: N_6  and  C_7
REMARK    4  A    between atoms: C_10  and  C_11
REMARK    5  A    between atoms: C_20  and  O_21
REMARK    6  A    between atoms: O_21  and  C_22
REMARK    7  A    between atoms: C_25  and  C_26
REMARK                            x       y       z     vdW  Elec       q    Type
REMARK                         _______ _______ _______ _____ _____    ______ ____
ROOT
ATOM      1  C   UNL     1       2.014   6.783  20.052  0.00  0.00    +0.000 A 
ATOM      2  C   UNL     1       2.516   7.252  18.814  0.00  0.00    +0.000 A 
ATOM      3  C   UNL     1       3.068   6.400  17.853  0.00  0.00    +0.000 A 
ATOM      4  C   UNL     1       3.156   5.036  18.111  0.00  0.00    +0.000 A 
ATOM      5  C   UNL     1       2.613   4.552  19.303  0.00  0.00    +0.000 A 
ATOM      6  C   UNL     1       2.025   5.395  20.268  0.00  0.00    +0.000 A 
ENDROOT
BRANCH   1  10
ATOM      7  C   UNL     1       0.029  10.457  19.195  0.00  0.00    +0.000 A 
ATOM      8  N   UNL     1       0.632   9.280  19.446  0.00  0.00    +0.000 NA
ATOM      9  C   UNL     1       1.189   9.062  20.647  0.00  0.00    +0.000 A 
ATOM     10  N   UNL     1       1.592   7.760  20.982  0.00  0.00    +0.000 N 
ATOM     11  N   UNL     1       1.254   9.998  21.596  0.00  0.00    +0.000 NA
ATOM     12  C   UNL     1       0.601  11.153  21.354  0.00  0.00    +0.000 A 
ATOM     13  C   UNL     1      -0.050  11.428  20.172  0.00  0.00    +0.000 A 
ATOM     14  H   UNL     1       2.117   7.790  21.850  0.00  0.00    +0.000 HD
BRANCH   7  16
ATOM     15  C   UNL     1      -1.880  10.003  17.779  0.00  0.00    +0.000 C 
ATOM     16  N   UNL     1      -0.557  10.619  17.925  0.00  0.00    +0.000 N 
ATOM     17  H   UNL     1      -0.611  11.620  17.742  0.00  0.00    +0.000 HD
ENDBRANCH   7  16
BRANCH  13  18
ATOM     18  C   UNL     1      -0.804  12.642  20.069  0.00  0.00    +0.000 C 
ATOM     19  N   UNL     1      -1.427  13.608  20.044  0.00  0.00    +0.000 NA
ENDBRANCH  13  18
ENDBRANCH   1  10
BRANCH   4  20
ATOM     20  C   UNL     1       3.984   4.157  17.228  0.00  0.00    +0.000 C 
ATOM     21  O   UNL     1       3.620   3.002  17.021  0.00  0.00    +0.000 OA
ATOM     22  N   UNL     1       5.084   4.720  16.585  0.00  0.00    +0.000 N 
ATOM     23  C   UNL     1       5.775   3.960  15.556  0.00  0.00    +0.000 C 
ATOM     24  C   UNL     1       7.092   4.689  15.338  0.00  0.00    +0.000 C 
ATOM     25  C   UNL     1       7.389   5.255  16.714  0.00  0.00    +0.000 C 
ATOM     26  F   UNL     1       7.939   4.280  17.486  0.00  0.00    +0.000 F 
ATOM     27  C   UNL     1       6.014   5.625  17.259  0.00  0.00    +0.000 C 
ENDBRANCH   4  20
BRANCH   6  28
ATOM     28  O   UNL     1       1.538   4.626  21.289  0.00  0.00    +0.000 OA
ATOM     29  C   UNL     1       2.123   3.397  21.653  0.00  0.00    +0.000 C 
ENDBRANCH   6  28
TORSDOF 5
ENDMDL
MODEL 3
REMARK VINA RESULT:      -7.0      1.924      2.432
REMARK  Name = 
REMARK  7 active torsions:
REMARK  status: ('A' for Active; 'I' for Inactive)
REMARK    1  A    between atoms: C_1  and  N_2
REMARK    2  A    between atoms: N_2  and  C_3
REMARK    3  A    between atoms: N_6  and  C_7
REMARK    4  A    between atoms: C_10  and  C_11
REMARK    5  A    between atoms: C_20  and  O_21
REMARK    6  A    between atoms: O_21  and  C_22
REMARK    7  A    between atoms: C_25  and  C_26
REMARK                            x       y       z     vdW  Elec       q    Type
REMARK                         _______ _______ _______ _____ _____    ______ ____
ROOT
ATOM      1  C   UNL     1       1.138   9.088  19.698  0.00  0.00    +0.000 A 
ATOM      2  C   UNL     1       1.392   7.923  20.461  0.00  0.00    +0.000 A 
ATOM      3  C   UNL     1       2.208   6.885  20.004  0.00  0.00    +0.000 A 
ATOM      4  C   UNL     1       2.788   6.969  18.743  0.00  0.00    +0.000 A 
ATOM      5  C   UNL     1       2.592   8.136  18.002  0.00  0.00    +0.000 A 
ATOM      6  C   UNL     1       1.797   9.205  18.464  0.00  0.00    +0.000 A 
ENDROOT
BRANCH   1  10
ATOM      7  C   UNL     1      -2.531  10.323  17.912  0.00  0.00    +0.000 A 
ATOM      8  N   UNL     1      -1.381   9.900  18.471  0.00  0.00    +0.000 NA
ATOM      9  C   UNL     1      -0.849  10.584  19.495  0.00  0.00    +0.000 A 
ATOM     10  N   UNL     1       0.202  10.006  20.225  0.00  0.00    +0.000 N 
ATOM     11  N   UNL     1      -1.360  11.732  19.943  0.00  0.00    +0.000 NA
ATOM     12  C   UNL     1      -2.538  12.119  19.412  0.00  0.00    +0.000 A 
ATOM     13  C   UNL     1      -3.182  11.436  18.404  0.00  0.00    +0.000 A 
ATOM     14  H   UNL     1       0.582  10.699  20.860  0.00  0.00    +0.000 HD
BRANCH   7  16
ATOM     15  C   UNL     1      -2.688  10.025  15.517  0.00  0.00    +0.000 C 
ATOM     16  N   UNL     1      -3.053   9.552  16.856  0.00  0.00    +0.000 N 
ATOM     17  H   UNL     1      -2.731   8.594  16.993  0.00  0.00    +0.000 HD
ENDBRANCH   7  16
BRANCH  13  18
ATOM     18  C   UNL     1      -4.482  11.877  17.996  0.00  0.00    +0.000 C 
ATOM     19  N   UNL     1      -5.506  12.231  17.610  0.00  0.00    +0.000 NA
ENDBRANCH  13  18
ENDBRANCH   1  10
BRANCH   4  20
ATOM     20  C   UNL     1       3.428   5.764  18.129  0.00  0.00    +0.000 C 
ATOM     21  O   UNL     1       4.104   5.898  17.111  0.00  0.00    +0.000 OA
ATOM     22  N   UNL     1       3.320   4.548  18.799  0.00  0.00    +0.000 N 
ATOM     23  C   UNL     1       4.108   3.413  18.349  0.00  0.00    +0.000 C 
ATOM     24  C   UNL     1       3.495   2.203  19.037  0.00  0.00    +0.000 C 
ATOM     25  C   UNL     1       2.031   2.588  19.144  0.00  0.00    +0.000 C 
ATOM     26  F   UNL     1       1.421   2.348  17.952  0.00  0.00    +0.000 F 
ATOM     27  C   UNL     1       2.071   4.090  19.405  0.00  0.00    +0.000 C 
ENDBRANCH   4  20
BRANCH   6  28
ATOM     28  O   UNL     1       1.846  10.221  17.548  0.00  0.00    +0.000 OA
ATOM     29  C   UNL     1       2.433  11.469  17.836  0.00  0.00    +0.000 C 
ENDBRANCH   6  28
TORSDOF 5
ENDMDL
MODEL 4
REMARK VINA RESULT:      -7.0      3.158      4.693
REMARK  Name = 
REMARK  7 active torsions:
REMARK  status: ('A' for Active; 'I' for Inactive)
REMARK    1  A    between atoms: C_1  and  N_2
REMARK    2  A    between atoms: N_2  and  C_3
REMARK    3  A    between atoms: N_6  and  C_7
REMARK    4  A    between atoms: C_10  and  C_11
REMARK    5  A    between atoms: C_20  and  O_21
REMARK    6  A    between atoms: O_21  and  C_22
REMARK    7  A    between atoms: C_25  and  C_26
REMARK                            x       y       z     vdW  Elec       q    Type
REMARK                         _______ _______ _______ _____ _____    ______ ____
ROOT
ATOM      1  C   UNL     1       0.786   9.923  19.243  0.00  0.00    +0.000 A 
ATOM      2  C   UNL     1       1.129   9.601  17.907  0.00  0.00    +0.000 A 
ATOM      3  C   UNL     1       1.903   8.485  17.577  0.00  0.00    +0.000 A 
ATOM      4  C   UNL     1       2.383   7.656  18.585  0.00  0.00    +0.000 A 
ATOM      5  C   UNL     1       2.006   7.929  19.901  0.00  0.00    +0.000 A 
ATOM      6  C   UNL     1       1.200   9.033  20.247  0.00  0.00    +0.000 A 
ENDROOT
BRANCH   1  10
ATOM      7  C   UNL     1       2.222  13.852  18.417  0.00  0.00    +0.000 A 
ATOM      8  N   UNL     1       1.777  12.602  18.645  0.00  0.00    +0.000 NA
ATOM      9  C   UNL     1       0.698  12.411  19.419  0.00  0.00    +0.000 A 
ATOM     10  N   UNL     1       0.100  11.141  19.450  0.00  0.00    +0.000 N 
ATOM     11  N   UNL     1       0.080  13.407  20.057  0.00  0.00    +0.000 NA
ATOM     12  C   UNL     1       0.499  14.658  19.780  0.00  0.00    +0.000 A 
ATOM     13  C   UNL     1       1.558  14.940  18.946  0.00  0.00    +0.000 A 
ATOM     14  H   UNL     1      -0.603  11.125  20.181  0.00  0.00    +0.000 HD
BRANCH   7  16
ATOM     15  C   UNL     1       4.578  14.381  18.271  0.00  0.00    +0.000 C 
ATOM     16  N   UNL     1       3.345  13.990  17.579  0.00  0.00    +0.000 N 
ATOM     17  H   UNL     1       3.476  13.100  17.099  0.00  0.00    +0.000 HD
ENDBRANCH   7  16
BRANCH  13  18
ATOM     18  C   UNL     1       1.844  16.309  18.636  0.00  0.00    +0.000 C 
ATOM     19  N   UNL     1       2.106  17.411  18.439  0.00  0.00    +0.000 NA
ENDBRANCH  13  18
ENDBRANCH   1  10
BRANCH   4  20
ATOM     20  C   UNL     1       3.430   6.632  18.279  0.00  0.00    +0.000 C 
ATOM     21  O   UNL     1       4.505   6.996  17.807  0.00  0.00    +0.000 OA
ATOM     22  N   UNL     1       3.184   5.311  18.644  0.00  0.00    +0.000 N 
ATOM     23  C   UNL     1       4.260   4.336  18.563  0.00  0.00    +0.000 C 
ATOM     24  C   UNL     1       3.579   2.981  18.672  0.00  0.00    +0.000 C 
ATOM     25  C   UNL     1       2.234   3.231  18.019  0.00  0.00    +0.000 C 
ATOM     26  F   UNL     1       2.377   3.165  16.668  0.00  0.00    +0.000 F 
ATOM     27  C   UNL     1       1.893   4.660  18.428  0.00  0.00    +0.000 C 
ENDBRANCH   4  20
BRANCH   6  28
ATOM     28  O   UNL     1       0.958   8.999  21.593  0.00  0.00    +0.000 OA
ATOM     29  C   UNL     1      -0.325   8.756  22.124  0.00  0.00    +0.000 C 
ENDBRANCH   6  28
TORSDOF 5
ENDMDL
MODEL 5
REMARK VINA RESULT:      -7.0      3.048      4.123
REMARK  Name = 
REMARK  7 active torsions:
REMARK  status: ('A' for Active; 'I' for Inactive)
REMARK    1  A    between atoms: C_1  and  N_2
REMARK    2  A    between atoms: N_2  and  C_3
REMARK    3  A    between atoms: N_6  and  C_7
REMARK    4  A    between atoms: C_10  and  C_11
REMARK    5  A    between atoms: C_20  and  O_21
REMARK    6  A    between atoms: O_21  and  C_22
REMARK    7  A    between atoms: C_25  and  C_26
REMARK                            x       y       z     vdW  Elec       q    Type
REMARK                         _______ _______ _______ _____ _____    ______ ____
ROOT
ATOM      1  C   UNL     1       1.907   6.009  20.338  0.00  0.00    +0.000 A 
ATOM      2  C   UNL     1       2.144   6.480  19.024  0.00  0.00    +0.000 A 
ATOM      3  C   UNL     1       2.785   5.708  18.051  0.00  0.00    +0.000 A 
ATOM      4  C   UNL     1       3.234   4.431  18.370  0.00  0.00    +0.000 A 
ATOM      5  C   UNL     1       2.957   3.932  19.644  0.00  0.00    +0.000 A 
ATOM      6  C   UNL     1       2.284   4.687  20.627  0.00  0.00    +0.000 A 
ENDROOT
BRANCH   1  10
ATOM      7  C   UNL     1       1.021  10.119  19.638  0.00  0.00    +0.000 A 
ATOM      8  N   UNL     1       1.283   8.813  19.830  0.00  0.00    +0.000 NA
ATOM      9  C   UNL     1       1.330   8.322  21.077  0.00  0.00    +0.000 A 
ATOM     10  N   UNL     1       1.357   6.930  21.259  0.00  0.00    +0.000 N 
ATOM     11  N   UNL     1       1.214   9.089  22.163  0.00  0.00    +0.000 NA
ATOM     12  C   UNL     1       0.900  10.384  21.959  0.00  0.00    +0.000 A 
ATOM     13  C   UNL     1       0.768  10.950  20.711  0.00  0.00    +0.000 A 
ATOM     14  H   UNL     1       1.536   6.727  22.236  0.00  0.00    +0.000 HD
BRANCH   7  16
ATOM     15  C   UNL     1       2.212  11.149  17.801  0.00  0.00    +0.000 C 
ATOM     16  N   UNL     1       0.962  10.572  18.306  0.00  0.00    +0.000 N 
ATOM     17  H   UNL     1       0.679   9.781  17.729  0.00  0.00    +0.000 HD
ENDBRANCH   7  16
BRANCH  13  18
ATOM     18  C   UNL     1       0.322  12.308  20.614  0.00  0.00    +0.000 C 
ATOM     19  N   UNL     1      -0.018  13.398  20.478  0.00  0.00    +0.000 NA
ENDBRANCH  13  18
ENDBRANCH   1  10
BRANCH   4  20
ATOM     20  C   UNL     1       4.156   3.707  17.441  0.00  0.00    +0.000 C 
ATOM     21  O   UNL     1       3.942   2.524  17.186  0.00  0.00    +0.000 OA
ATOM     22  N   UNL     1       5.165   4.434  16.814  0.00  0.00    +0.000 N 
ATOM     23  C   UNL     1       5.934   3.816  15.747  0.00  0.00    +0.000 C 
ATOM     24  C   UNL     1       7.142   4.718  15.551  0.00  0.00    +0.000 C 
ATOM     25  C   UNL     1       7.383   5.258  16.947  0.00  0.00    +0.000 C 
ATOM     26  F   UNL     1       8.066   4.330  17.670  0.00  0.00    +0.000 F 
ATOM     27  C   UNL     1       5.980   5.422  17.520  0.00  0.00    +0.000 C 
ENDBRANCH   4  20
BRANCH   6  28
ATOM     28  O   UNL     1       2.113   3.911  21.740  0.00  0.00    +0.000 OA
ATOM     29  C   UNL     1       1.691   2.568  21.666  0.00  0.00    +0.000 C 
ENDBRANCH   6  28
TORSDOF 5
ENDMDL
MODEL 6
REMARK VINA RESULT:      -6.8      3.334      8.646
REMARK  Name = 
REMARK  7 active torsions:
REMARK  status: ('A' for Active; 'I' for Inactive)
REMARK    1  A    between atoms: C_1  and  N_2
REMARK    2  A    between atoms: N_2  and  C_3
REMARK    3  A    between atoms: N_6  and  C_7
REMARK    4  A    between atoms: C_10  and  C_11
REMARK    5  A    between atoms: C_20  and  O_21
REMARK    6  A    between atoms: O_21  and  C_22
REMARK    7  A    between atoms: C_25  and  C_26
REMARK                            x       y       z     vdW  Elec       q    Type
REMARK                         _______ _______ _______ _____ _____    ______ ____
ROOT
ATOM      1  C   UNL     1       1.975   7.871  19.617  0.00  0.00    +0.000 A 
ATOM      2  C   UNL     1       1.966   8.340  18.282  0.00  0.00    +0.000 A 
ATOM      3  C   UNL     1       1.236   9.464  17.882  0.00  0.00    +0.000 A 
ATOM      4  C   UNL     1       0.464  10.150  18.813  0.00  0.00    +0.000 A 
ATOM      5  C   UNL     1       0.507   9.733  20.144  0.00  0.00    +0.000 A 
ATOM      6  C   UNL     1       1.264   8.621  20.569  0.00  0.00    +0.000 A 
ENDROOT
BRANCH   1  10
ATOM      7  C   UNL     1       5.468   6.442  17.636  0.00  0.00    +0.000 A 
ATOM      8  N   UNL     1       4.381   6.924  18.267  0.00  0.00    +0.000 NA
ATOM      9  C   UNL     1       3.633   6.104  19.022  0.00  0.00    +0.000 A 
ATOM     10  N   UNL     1       2.658   6.659  19.865  0.00  0.00    +0.000 N 
ATOM     11  N   UNL     1       3.863   4.793  19.114  0.00  0.00    +0.000 NA
ATOM     12  C   UNL     1       4.983   4.331  18.521  0.00  0.00    +0.000 A 
ATOM     13  C   UNL     1       5.838   5.120  17.784  0.00  0.00    +0.000 A 
ATOM     14  H   UNL     1       2.091   5.912  20.251  0.00  0.00    +0.000 HD
BRANCH   7  16
ATOM     15  C   UNL     1       7.419   7.870  17.556  0.00  0.00    +0.000 C 
ATOM     16  N   UNL     1       6.226   7.354  16.877  0.00  0.00    +0.000 N 
ATOM     17  H   UNL     1       6.488   6.884  16.012  0.00  0.00    +0.000 HD
ENDBRANCH   7  16
BRANCH  13  18
ATOM     18  C   UNL     1       7.056   4.546  17.295  0.00  0.00    +0.000 C 
ATOM     19  N   UNL     1       8.037   4.131  16.863  0.00  0.00    +0.000 NA
ENDBRANCH  13  18
ENDBRANCH   1  10
BRANCH   4  20
ATOM     20  C   UNL     1      -0.530  11.171  18.356  0.00  0.00    +0.000 C 
ATOM     21  O   UNL     1      -0.335  12.356  18.617  0.00  0.00    +0.000 OA
ATOM     22  N   UNL     1      -1.588  10.747  17.556  0.00  0.00    +0.000 N 
ATOM     23  C   UNL     1      -2.441  11.736  16.918  0.00  0.00    +0.000 C 
ATOM     24  C   UNL     1      -3.663  10.964  16.446  0.00  0.00    +0.000 C 
ATOM     25  C   UNL     1      -3.790   9.872  17.491  0.00  0.00    +0.000 C 
ATOM     26  F   UNL     1      -4.409  10.379  18.591  0.00  0.00    +0.000 F 
ATOM     27  C   UNL     1      -2.344   9.526  17.830  0.00  0.00    +0.000 C 
ENDBRANCH   4  20
BRANCH   6  28
ATOM     28  O   UNL     1       1.150   8.501  21.927  0.00  0.00    +0.000 OA
ATOM     29  C   UNL     1       0.354   9.372  22.697  0.00  0.00    +0.000 C 
ENDBRANCH   6  28
TORSDOF 5
ENDMDL
MODEL 7
REMARK VINA RESULT:      -6.7      4.022      8.767
REMARK  Name = 
REMARK  7 active torsions:
REMARK  status: ('A' for Active; 'I' for Inactive)
REMARK    1  A    between atoms: C_1  and  N_2
REMARK    2  A    between atoms: N_2  and  C_3
REMARK    3  A    between atoms: N_6  and  C_7
REMARK    4  A    between atoms: C_10  and  C_11
REMARK    5  A    between atoms: C_20  and  O_21
REMARK    6  A    between atoms: O_21  and  C_22
REMARK    7  A    between atoms: C_25  and  C_26
REMARK                            x       y       z     vdW  Elec       q    Type
REMARK                         _______ _______ _______ _____ _____    ______ ____
ROOT
ATOM      1  C   UNL     1       1.241   9.879  18.530  0.00  0.00    +0.000 A 
ATOM      2  C   UNL     1       0.180   9.307  19.273  0.00  0.00    +0.000 A 
ATOM      3  C   UNL     1      -0.566  10.034  20.205  0.00  0.00    +0.000 A 
ATOM      4  C   UNL     1      -0.259  11.370  20.442  0.00  0.00    +0.000 A 
ATOM      5  C   UNL     1       0.747  11.963  19.676  0.00  0.00    +0.000 A 
ATOM      6  C   UNL     1       1.487  11.250  18.710  0.00  0.00    +0.000 A 
ENDROOT
BRANCH   1  10
ATOM      7  C   UNL     1       2.950   6.138  19.649  0.00  0.00    +0.000 A 
ATOM      8  N   UNL     1       2.380   7.309  19.309  0.00  0.00    +0.000 NA
ATOM      9  C   UNL     1       2.755   7.927  18.178  0.00  0.00    +0.000 A 
ATOM     10  N   UNL     1       1.990   9.007  17.709  0.00  0.00    +0.000 N 
ATOM     11  N   UNL     1       3.743   7.480  17.402  0.00  0.00    +0.000 NA
ATOM     12  C   UNL     1       4.271   6.281  17.722  0.00  0.00    +0.000 A 
ATOM     13  C   UNL     1       3.894   5.553  18.829  0.00  0.00    +0.000 A 
ATOM     14  H   UNL     1       2.480   9.448  16.939  0.00  0.00    +0.000 HD
BRANCH   7  16
ATOM     15  C   UNL     1       1.342   4.642  20.662  0.00  0.00    +0.000 C 
ATOM     16  N   UNL     1       2.500   5.525  20.834  0.00  0.00    +0.000 N 
ATOM     17  H   UNL     1       3.286   5.007  21.224  0.00  0.00    +0.000 HD
ENDBRANCH   7  16
BRANCH  13  18
ATOM     18  C   UNL     1       4.442   4.241  19.009  0.00  0.00    +0.000 C 
ATOM     19  N   UNL     1       4.910   3.209  19.203  0.00  0.00    +0.000 NA
ENDBRANCH  13  18
ENDBRANCH   1  10
BRANCH   4  20
ATOM     20  C   UNL     1      -0.852  12.079  21.618  0.00  0.00    +0.000 C 
ATOM     21  O   UNL     1      -0.362  11.905  22.732  0.00  0.00    +0.000 OA
ATOM     22  N   UNL     1      -1.874  12.996  21.387  0.00  0.00    +0.000 N 
ATOM     23  C   UNL     1      -2.319  13.857  22.470  0.00  0.00    +0.000 C 
ATOM     24  C   UNL     1      -3.639  14.445  21.996  0.00  0.00    +0.000 C 
ATOM     25  C   UNL     1      -4.207  13.334  21.133  0.00  0.00    +0.000 C 
ATOM     26  F   UNL     1      -4.792  12.404  21.935  0.00  0.00    +0.000 F 
ATOM     27  C   UNL     1      -2.976  12.732  20.463  0.00  0.00    +0.000 C 
ENDBRANCH   4  20
BRANCH   6  28
ATOM     28  O   UNL     1       2.351  12.112  18.092  0.00  0.00    +0.000 OA
ATOM     29  C   UNL     1       2.709  13.354  18.653  0.00  0.00    +0.000 C 
ENDBRANCH   6  28
TORSDOF 5
ENDMDL
MODEL 8
REMARK VINA RESULT:      -6.7      3.317      8.753
REMARK  Name = 
REMARK  7 active torsions:
REMARK  status: ('A' for Active; 'I' for Inactive)
REMARK    1  A    between atoms: C_1  and  N_2
REMARK    2  A    between atoms: N_2  and  C_3
REMARK    3  A    between atoms: N_6  and  C_7
REMARK    4  A    between atoms: C_10  and  C_11
REMARK    5  A    between atoms: C_20  and  O_21
REMARK    6  A    between atoms: O_21  and  C_22
REMARK    7  A    between atoms: C_25  and  C_26
REMARK                            x       y       z     vdW  Elec       q    Type
REMARK                         _______ _______ _______ _____ _____    ______ ____
ROOT
ATOM      1  C   UNL     1       2.628   5.747  19.219  0.00  0.00    +0.000 A 
ATOM      2  C   UNL     1       2.652   7.074  18.727  0.00  0.00    +0.000 A 
ATOM      3  C   UNL     1       2.022   8.134  19.385  0.00  0.00    +0.000 A 
ATOM      4  C   UNL     1       1.319   7.895  20.561  0.00  0.00    +0.000 A 
ATOM      5  C   UNL     1       1.334   6.603  21.088  0.00  0.00    +0.000 A 
ATOM      6  C   UNL     1       1.992   5.529  20.452  0.00  0.00    +0.000 A 
ENDROOT
BRANCH   1  10
ATOM      7  C   UNL     1       5.898   6.211  16.524  0.00  0.00    +0.000 A 
ATOM      8  N   UNL     1       4.884   6.079  17.400  0.00  0.00    +0.000 NA
ATOM      9  C   UNL     1       4.091   4.999  17.341  0.00  0.00    +0.000 A 
ATOM     10  N   UNL     1       3.203   4.750  18.399  0.00  0.00    +0.000 N 
ATOM     11  N   UNL     1       4.200   4.071  16.388  0.00  0.00    +0.000 NA
ATOM     12  C   UNL     1       5.250   4.185  15.549  0.00  0.00    +0.000 A 
ATOM     13  C   UNL     1       6.147   5.229  15.586  0.00  0.00    +0.000 A 
ATOM     14  H   UNL     1       2.583   3.991  18.139  0.00  0.00    +0.000 HD
BRANCH   7  16
ATOM     15  C   UNL     1       7.620   7.334  17.799  0.00  0.00    +0.000 C 
ATOM     16  N   UNL     1       6.710   7.354  16.649  0.00  0.00    +0.000 N 
ATOM     17  H   UNL     1       7.238   7.447  15.782  0.00  0.00    +0.000 HD
ENDBRANCH   7  16
BRANCH  13  18
ATOM     18  C   UNL     1       7.287   5.187  14.720  0.00  0.00    +0.000 C 
ATOM     19  N   UNL     1       8.172   5.192  13.986  0.00  0.00    +0.000 NA
ENDBRANCH  13  18
ENDBRANCH   1  10
BRANCH   4  20
ATOM     20  C   UNL     1       0.416   8.947  21.123  0.00  0.00    +0.000 C 
ATOM     21  O   UNL     1      -0.030   8.809  22.259  0.00  0.00    +0.000 OA
ATOM     22  N   UNL     1       0.203  10.100  20.372  0.00  0.00    +0.000 N 
ATOM     23  C   UNL     1      -0.485  11.229  20.977  0.00  0.00    +0.000 C 
ATOM     24  C   UNL     1      -0.863  12.136  19.817  0.00  0.00    +0.000 C 
ATOM     25  C   UNL     1      -1.091  11.150  18.686  0.00  0.00    +0.000 C 
ATOM     26  F   UNL     1      -2.337  10.616  18.807  0.00  0.00    +0.000 F 
ATOM     27  C   UNL     1      -0.045  10.069  18.931  0.00  0.00    +0.000 C 
ENDBRANCH   4  20
BRANCH   6  28
ATOM     28  O   UNL     1       1.877   4.413  21.236  0.00  0.00    +0.000 OA
ATOM     29  C   UNL     1       1.126   3.289  20.842  0.00  0.00    +0.000 C 
ENDBRANCH   6  28
TORSDOF 5
ENDMDL
MODEL 9
REMARK VINA RESULT:      -6.7      3.736      8.231
REMARK  Name = 
REMARK  7 active torsions:
REMARK  status: ('A' for Active; 'I' for Inactive)
REMARK    1  A    between atoms: C_1  and  N_2
REMARK    2  A    between atoms: N_2  and  C_3
REMARK    3  A    between atoms: N_6  and  C_7
REMARK    4  A    between atoms: C_10  and  C_11
REMARK    5  A    between atoms: C_20  and  O_21
REMARK    6  A    between atoms: O_21  and  C_22
REMARK    7  A    between atoms: C_25  and  C_26
REMARK                            x       y       z     vdW  Elec       q    Type
REMARK                         _______ _______ _______ _____ _____    ______ ____
ROOT
ATOM      1  C   UNL     1       1.258   8.030  20.727  0.00  0.00    +0.000 A 
ATOM      2  C   UNL     1       1.680   8.333  19.410  0.00  0.00    +0.000 A 
ATOM      3  C   UNL     1       1.165   9.410  18.683  0.00  0.00    +0.000 A 
ATOM      4  C   UNL     1       0.183  10.217  19.248  0.00  0.00    +0.000 A 
ATOM      5  C   UNL     1      -0.202   9.965  20.566  0.00  0.00    +0.000 A 
ATOM      6  C   UNL     1       0.331   8.901  21.324  0.00  0.00    +0.000 A 
ENDROOT
BRANCH   1  10
ATOM      7  C   UNL     1       2.642   4.559  18.676  0.00  0.00    +0.000 A 
ATOM      8  N   UNL     1       2.225   5.675  19.304  0.00  0.00    +0.000 NA
ATOM      9  C   UNL     1       1.961   5.638  20.619  0.00  0.00    +0.000 A 
ATOM     10  N   UNL     1       1.769   6.847  21.307  0.00  0.00    +0.000 N 
ATOM     11  N   UNL     1       2.007   4.514  21.336  0.00  0.00    +0.000 NA
ATOM     12  C   UNL     1       2.476   3.415  20.711  0.00  0.00    +0.000 A 
ATOM     13  C   UNL     1       2.831   3.387  19.380  0.00  0.00    +0.000 A 
ATOM     14  H   UNL     1       1.441   6.645  22.244  0.00  0.00    +0.000 HD
BRANCH   7  16
ATOM     15  C   UNL     1       4.244   5.224  16.990  0.00  0.00    +0.000 C 
ATOM     16  N   UNL     1       2.925   4.664  17.301  0.00  0.00    +0.000 N 
ATOM     17  H   UNL     1       2.834   3.731  16.902  0.00  0.00    +0.000 HD
ENDBRANCH   7  16
BRANCH  13  18
ATOM     18  C   UNL     1       3.422   2.194  18.851  0.00  0.00    +0.000 C 
ATOM     19  N   UNL     1       3.843   1.207  18.436  0.00  0.00    +0.000 NA
ENDBRANCH  13  18
ENDBRANCH   1  10
BRANCH   4  20
ATOM     20  C   UNL     1      -0.571  11.189  18.397  0.00  0.00    +0.000 C 
ATOM     21  O   UNL     1      -0.213  12.365  18.369  0.00  0.00    +0.000 OA
ATOM     22  N   UNL     1      -1.588  10.699  17.581  0.00  0.00    +0.000 N 
ATOM     23  C   UNL     1      -2.188  11.572  16.586  0.00  0.00    +0.000 C 
ATOM     24  C   UNL     1      -3.460  10.864  16.148  0.00  0.00    +0.000 C 
ATOM     25  C   UNL     1      -3.883  10.131  17.408  0.00  0.00    +0.000 C 
ATOM     26  F   UNL     1      -4.528  11.000  18.231  0.00  0.00    +0.000 F 
ATOM     27  C   UNL     1      -2.561   9.711  18.042  0.00  0.00    +0.000 C 
ENDBRANCH   4  20
BRANCH   6  28
ATOM     28  O   UNL     1      -0.196   8.950  22.585  0.00  0.00    +0.000 OA
ATOM     29  C   UNL     1      -0.761  10.124  23.122  0.00  0.00    +0.000 C 
ENDBRANCH   6  28
TORSDOF 5
ENDMDL
