MODEL 1
REMARK VINA RESULT:      -7.6      0.000      0.000
REMARK  Name = 
REMARK  10 active torsions:
REMARK  status: ('A' for Active; 'I' for Inactive)
REMARK    1  A    between atoms: C_1  and  C_2
REMARK    2  A    between atoms: C_2  and  N_3
REMARK    3  A    between atoms: N_3  and  C_4
REMARK    4  A    between atoms: C_4  and  C_5
REMARK    5  A    between atoms: C_8  and  C_9
REMARK    6  A    between atoms: C_11  and  C_13
REMARK    7  A    between atoms: C_15  and  C_16
REMARK    8  A    between atoms: C_16  and  C_17
REMARK    9  A    between atoms: C_17  and  C_18
REMARK   10  A    between atoms: C_17  and  C_19
REMARK                            x       y       z     vdW  Elec       q    Type
REMARK                         _______ _______ _______ _____ _____    ______ ____
ROOT
ATOM      1  C   UNL     1       5.261   4.579  18.012  0.00  0.00    +0.000 A 
ATOM      2  C   UNL     1       4.902   4.397  16.695  0.00  0.00    +0.000 A 
ATOM      3  C   UNL     1       5.606   5.144  15.776  0.00  0.00    +0.000 A 
ATOM      4  N   UNL     1       6.527   6.057  16.153  0.00  0.00    +0.000 NA
ATOM      5  C   UNL     1       6.778   6.176  17.458  0.00  0.00    +0.000 A 
ATOM      6  N   UNL     1       7.642   7.171  17.852  0.00  0.00    +0.000 N 
ATOM      7  N   UNL     1       6.234   5.421  18.409  0.00  0.00    +0.000 NA
ATOM      8  H   UNL     1       8.278   7.428  17.113  0.00  0.00    +0.000 HD
ATOM      9  H   UNL     1       8.004   7.002  18.778  0.00  0.00    +0.000 HD
ENDROOT
BRANCH   1  11
ATOM     10  N   UNL     1       3.211   3.794  19.289  0.00  0.00    +0.000 N 
ATOM     11  C   UNL     1       4.594   3.734  19.053  0.00  0.00    +0.000 C 
ATOM     12  O   UNL     1       5.325   2.977  19.699  0.00  0.00    +0.000 OA
BRANCH  10  14
ATOM     13  C   UNL     1       1.203   3.073  20.580  0.00  0.00    +0.000 C 
ATOM     14  C   UNL     1       2.719   3.094  20.475  0.00  0.00    +0.000 C 
ENDBRANCH  10  14
BRANCH  10  15
ATOM     15  C   UNL     1       2.246   4.654  18.565  0.00  0.00    +0.000 C 
BRANCH  15  16
ATOM     16  C   UNL     1       2.334   6.117  18.890  0.00  0.00    +0.000 A 
ATOM     17  N   UNL     1       2.046   6.633  20.094  0.00  0.00    +0.000 NA
ATOM     18  O   UNL     1       1.966   8.008  19.838  0.00  0.00    +0.000 OA
ATOM     19  C   UNL     1       2.242   8.171  18.513  0.00  0.00    +0.000 A 
ATOM     20  C   UNL     1       1.951   9.492  17.926  0.00  0.00    +0.000 C 
ATOM     21  N   UNL     1       2.582   7.054  17.913  0.00  0.00    +0.000 NA
ENDBRANCH  15  16
ENDBRANCH  10  15
ENDBRANCH   1  11
BRANCH   3  22
ATOM     22  C   UNL     1       5.427   4.929  14.298  0.00  0.00    +0.000 C 
BRANCH  22  23
ATOM     23  C   UNL     1       6.518   4.083  13.617  0.00  0.00    +0.000 C 
ATOM     24  C   UNL     1       5.983   3.272  12.435  0.00  0.00    +0.000 C 
ATOM     25  C   UNL     1       7.632   5.015  13.133  0.00  0.00    +0.000 C 
ENDBRANCH  22  23
ENDBRANCH   3  22
TORSDOF 6
ENDMDL
MODEL 2
REMARK VINA RESULT:      -7.6      1.624      1.994
REMARK  Name = 
REMARK  10 active torsions:
REMARK  status: ('A' for Active; 'I' for Inactive)
REMARK    1  A    between atoms: C_1  and  C_2
REMARK    2  A    between atoms: C_2  and  N_3
REMARK    3  A    between atoms: N_3  and  C_4
REMARK    4  A    between atoms: C_4  and  C_5
REMARK    5  A    between atoms: C_8  and  C_9
REMARK    6  A    between atoms: C_11  and  C_13
REMARK    7  A    between atoms: C_15  and  C_16
REMARK    8  A    between atoms: C_16  and  C_17
REMARK    9  A    between atoms: C_17  and  C_18
REMARK   10  A    between atoms: C_17  and  C_19
REMARK                            x       y       z     vdW  Elec       q    Type
REMARK                         _______ _______ _______ _____ _____    ______ ____
ROOT
ATOM      1  C   UNL     1       4.845   4.284  16.905  0.00  0.00    +0.000 A 
ATOM      2  C   UNL     1       4.967   4.466  15.545  0.00  0.00    +0.000 A 
ATOM      3  C   UNL     1       6.256   4.577  15.071  0.00  0.00    +0.000 A 
ATOM      4  N   UNL     1       7.322   4.593  15.899  0.00  0.00    +0.000 NA
ATOM      5  C   UNL     1       7.091   4.440  17.205  0.00  0.00    +0.000 A 
ATOM      6  N   UNL     1       8.163   4.553  18.058  0.00  0.00    +0.000 N 
ATOM      7  N   UNL     1       5.897   4.213  17.743  0.00  0.00    +0.000 NA
ATOM      8  H   UNL     1       9.034   4.344  17.595  0.00  0.00    +0.000 HD
ATOM      9  H   UNL     1       7.968   4.135  18.955  0.00  0.00    +0.000 HD
ENDROOT
BRANCH   1  11
ATOM     10  N   UNL     1       2.859   5.015  18.310  0.00  0.00    +0.000 N 
ATOM     11  C   UNL     1       3.476   4.071  17.473  0.00  0.00    +0.000 C 
ATOM     12  O   UNL     1       2.911   3.017  17.166  0.00  0.00    +0.000 OA
BRANCH  10  14
ATOM     13  C   UNL     1       1.759   4.509  20.490  0.00  0.00    +0.000 C 
ATOM     14  C   UNL     1       1.629   4.592  18.978  0.00  0.00    +0.000 C 
ENDBRANCH  10  14
BRANCH  10  15
ATOM     15  C   UNL     1       3.441   6.312  18.728  0.00  0.00    +0.000 C 
BRANCH  15  16
ATOM     16  C   UNL     1       2.625   7.518  18.365  0.00  0.00    +0.000 A 
ATOM     17  N   UNL     1       2.734   8.171  17.198  0.00  0.00    +0.000 NA
ATOM     18  O   UNL     1       2.035   9.361  17.435  0.00  0.00    +0.000 OA
ATOM     19  C   UNL     1       1.559   9.283  18.710  0.00  0.00    +0.000 A 
ATOM     20  C   UNL     1       1.027  10.524  19.303  0.00  0.00    +0.000 C 
ATOM     21  N   UNL     1       1.800   8.127  19.283  0.00  0.00    +0.000 NA
ENDBRANCH  15  16
ENDBRANCH  10  15
ENDBRANCH   1  11
BRANCH   3  22
ATOM     22  C   UNL     1       6.540   4.619  13.595  0.00  0.00    +0.000 C 
BRANCH  22  23
ATOM     23  C   UNL     1       6.091   3.380  12.800  0.00  0.00    +0.000 C 
ATOM     24  C   UNL     1       4.743   3.582  12.105  0.00  0.00    +0.000 C 
ATOM     25  C   UNL     1       7.160   3.052  11.754  0.00  0.00    +0.000 C 
ENDBRANCH  22  23
ENDBRANCH   3  22
TORSDOF 6
ENDMDL
MODEL 3
REMARK VINA RESULT:      -7.5      1.474      1.622
REMARK  Name = 
REMARK  10 active torsions:
REMARK  status: ('A' for Active; 'I' for Inactive)
REMARK    1  A    between atoms: C_1  and  C_2
REMARK    2  A    between atoms: C_2  and  N_3
REMARK    3  A    between atoms: N_3  and  C_4
REMARK    4  A    between atoms: C_4  and  C_5
REMARK    5  A    between atoms: C_8  and  C_9
REMARK    6  A    between atoms: C_11  and  C_13
REMARK    7  A    between atoms: C_15  and  C_16
REMARK    8  A    between atoms: C_16  and  C_17
REMARK    9  A    between atoms: C_17  and  C_18
REMARK   10  A    between atoms: C_17  and  C_19
REMARK                            x       y       z     vdW  Elec       q    Type
REMARK                         _______ _______ _______ _____ _____    ______ ____
ROOT
ATOM      1  C   UNL     1       4.600   4.176  16.914  0.00  0.00    +0.000 A 
ATOM      2  C   UNL     1       4.815   4.375  15.569  0.00  0.00    +0.000 A 
ATOM      3  C   UNL     1       6.126   4.583  15.199  0.00  0.00    +0.000 A 
ATOM      4  N   UNL     1       7.119   4.672  16.110  0.00  0.00    +0.000 NA
ATOM      5  C   UNL     1       6.798   4.494  17.392  0.00  0.00    +0.000 A 
ATOM      6  N   UNL     1       7.787   4.679  18.328  0.00  0.00    +0.000 N 
ATOM      7  N   UNL     1       5.584   4.176  17.834  0.00  0.00    +0.000 NA
ATOM      8  H   UNL     1       8.706   4.538  17.936  0.00  0.00    +0.000 HD
ATOM      9  H   UNL     1       7.553   4.242  19.206  0.00  0.00    +0.000 HD
ENDROOT
BRANCH   1  11
ATOM     10  N   UNL     1       2.662   4.416  18.539  0.00  0.00    +0.000 N 
ATOM     11  C   UNL     1       3.210   3.860  17.372  0.00  0.00    +0.000 C 
ATOM     12  O   UNL     1       2.563   3.079  16.667  0.00  0.00    +0.000 OA
BRANCH  10  14
ATOM     13  C   UNL     1       1.355   3.578  20.491  0.00  0.00    +0.000 C 
ATOM     14  C   UNL     1       1.391   3.857  18.996  0.00  0.00    +0.000 C 
ENDBRANCH  10  14
BRANCH  10  15
ATOM     15  C   UNL     1       3.345   5.369  19.445  0.00  0.00    +0.000 C 
BRANCH  15  16
ATOM     16  C   UNL     1       2.766   6.754  19.460  0.00  0.00    +0.000 A 
ATOM     17  N   UNL     1       2.019   7.241  20.462  0.00  0.00    +0.000 NA
ATOM     18  O   UNL     1       1.465   8.402  19.909  0.00  0.00    +0.000 OA
ATOM     19  C   UNL     1       1.961   8.502  18.643  0.00  0.00    +0.000 A 
ATOM     20  C   UNL     1       1.320   9.482  17.747  0.00  0.00    +0.000 C 
ATOM     21  N   UNL     1       2.848   7.576  18.359  0.00  0.00    +0.000 NA
ENDBRANCH  15  16
ENDBRANCH  10  15
ENDBRANCH   1  11
BRANCH   3  22
ATOM     22  C   UNL     1       6.522   4.656  13.750  0.00  0.00    +0.000 C 
BRANCH  22  23
ATOM     23  C   UNL     1       6.123   3.440  12.895  0.00  0.00    +0.000 C 
ATOM     24  C   UNL     1       4.794   3.644  12.164  0.00  0.00    +0.000 C 
ATOM     25  C   UNL     1       7.231   3.173  11.872  0.00  0.00    +0.000 C 
ENDBRANCH  22  23
ENDBRANCH   3  22
TORSDOF 6
ENDMDL
MODEL 4
REMARK VINA RESULT:      -7.4      1.380      1.566
REMARK  Name = 
REMARK  10 active torsions:
REMARK  status: ('A' for Active; 'I' for Inactive)
REMARK    1  A    between atoms: C_1  and  C_2
REMARK    2  A    between atoms: C_2  and  N_3
REMARK    3  A    between atoms: N_3  and  C_4
REMARK    4  A    between atoms: C_4  and  C_5
REMARK    5  A    between atoms: C_8  and  C_9
REMARK    6  A    between atoms: C_11  and  C_13
REMARK    7  A    between atoms: C_15  and  C_16
REMARK    8  A    between atoms: C_16  and  C_17
REMARK    9  A    between atoms: C_17  and  C_18
REMARK   10  A    between atoms: C_17  and  C_19
REMARK                            x       y       z     vdW  Elec       q    Type
REMARK                         _______ _______ _______ _____ _____    ______ ____
ROOT
ATOM      1  C   UNL     1       4.609   4.193  17.731  0.00  0.00    +0.000 A 
ATOM      2  C   UNL     1       4.522   4.557  16.406  0.00  0.00    +0.000 A 
ATOM      3  C   UNL     1       5.719   4.837  15.784  0.00  0.00    +0.000 A 
ATOM      4  N   UNL     1       6.890   4.836  16.457  0.00  0.00    +0.000 NA
ATOM      5  C   UNL     1       6.860   4.498  17.747  0.00  0.00    +0.000 A 
ATOM      6  N   UNL     1       8.033   4.592  18.457  0.00  0.00    +0.000 N 
ATOM      7  N   UNL     1       5.773   4.103  18.403  0.00  0.00    +0.000 NA
ATOM      8  H   UNL     1       8.841   4.518  17.858  0.00  0.00    +0.000 HD
ATOM      9  H   UNL     1       7.997   4.046  19.305  0.00  0.00    +0.000 HD
ENDROOT
BRANCH   1  11
ATOM     10  N   UNL     1       2.715   4.639  19.363  0.00  0.00    +0.000 N 
ATOM     11  C   UNL     1       3.353   3.793  18.442  0.00  0.00    +0.000 C 
ATOM     12  O   UNL     1       2.902   2.675  18.176  0.00  0.00    +0.000 OA
BRANCH  10  14
ATOM     13  C   UNL     1       2.035   3.729  21.583  0.00  0.00    +0.000 C 
ATOM     14  C   UNL     1       1.634   4.050  20.152  0.00  0.00    +0.000 C 
ENDBRANCH  10  14
BRANCH  10  15
ATOM     15  C   UNL     1       3.162   6.000  19.743  0.00  0.00    +0.000 C 
BRANCH  15  16
ATOM     16  C   UNL     1       2.597   7.109  18.905  0.00  0.00    +0.000 A 
ATOM     17  N   UNL     1       3.022   7.400  17.666  0.00  0.00    +0.000 NA
ATOM     18  O   UNL     1       2.449   8.654  17.421  0.00  0.00    +0.000 OA
ATOM     19  C   UNL     1       1.720   8.969  18.529  0.00  0.00    +0.000 A 
ATOM     20  C   UNL     1       1.243  10.359  18.644  0.00  0.00    +0.000 C 
ATOM     21  N   UNL     1       1.690   8.006  19.421  0.00  0.00    +0.000 NA
ENDBRANCH  15  16
ENDBRANCH  10  15
ENDBRANCH   1  11
BRANCH   3  22
ATOM     22  C   UNL     1       5.785   5.092  14.304  0.00  0.00    +0.000 C 
BRANCH  22  23
ATOM     23  C   UNL     1       6.818   4.249  13.533  0.00  0.00    +0.000 C 
ATOM     24  C   UNL     1       6.177   3.381  12.448  0.00  0.00    +0.000 C 
ATOM     25  C   UNL     1       7.843   5.189  12.895  0.00  0.00    +0.000 C 
ENDBRANCH  22  23
ENDBRANCH   3  22
TORSDOF 6
ENDMDL
MODEL 5
REMARK VINA RESULT:      -7.3      0.796      1.090
REMARK  Name = 
REMARK  10 active torsions:
REMARK  status: ('A' for Active; 'I' for Inactive)
REMARK    1  A    between atoms: C_1  and  C_2
REMARK    2  A    between atoms: C_2  and  N_3
REMARK    3  A    between atoms: N_3  and  C_4
REMARK    4  A    between atoms: C_4  and  C_5
REMARK    5  A    between atoms: C_8  and  C_9
REMARK    6  A    between atoms: C_11  and  C_13
REMARK    7  A    between atoms: C_15  and  C_16
REMARK    8  A    between atoms: C_16  and  C_17
REMARK    9  A    between atoms: C_17  and  C_18
REMARK   10  A    between atoms: C_17  and  C_19
REMARK                            x       y       z     vdW  Elec       q    Type
REMARK                         _______ _______ _______ _____ _____    ______ ____
ROOT
ATOM      1  C   UNL     1       5.482   4.742  17.785  0.00  0.00    +0.000 A 
ATOM      2  C   UNL     1       5.585   4.014  16.621  0.00  0.00    +0.000 A 
ATOM      3  C   UNL     1       6.440   4.527  15.670  0.00  0.00    +0.000 A 
ATOM      4  N   UNL     1       7.065   5.712  15.838  0.00  0.00    +0.000 NA
ATOM      5  C   UNL     1       6.873   6.353  16.992  0.00  0.00    +0.000 A 
ATOM      6  N   UNL     1       7.430   7.602  17.126  0.00  0.00    +0.000 N 
ATOM      7  N   UNL     1       6.160   5.883  18.012  0.00  0.00    +0.000 NA
ATOM      8  H   UNL     1       8.228   7.724  16.522  0.00  0.00    +0.000 HD
ATOM      9  H   UNL     1       7.499   7.875  18.095  0.00  0.00    +0.000 HD
ENDROOT
BRANCH   1  11
ATOM     10  N   UNL     1       3.288   4.551  19.050  0.00  0.00    +0.000 N 
ATOM     11  C   UNL     1       4.636   4.194  18.893  0.00  0.00    +0.000 C 
ATOM     12  O   UNL     1       5.187   3.406  19.668  0.00  0.00    +0.000 OA
BRANCH  10  14
ATOM     13  C   UNL     1       1.328   3.394  20.069  0.00  0.00    +0.000 C 
ATOM     14  C   UNL     1       2.639   4.131  20.291  0.00  0.00    +0.000 C 
ENDBRANCH  10  14
BRANCH  10  15
ATOM     15  C   UNL     1       2.529   5.474  18.172  0.00  0.00    +0.000 C 
BRANCH  15  16
ATOM     16  C   UNL     1       2.384   6.872  18.699  0.00  0.00    +0.000 A 
ATOM     17  N   UNL     1       2.004   7.163  19.952  0.00  0.00    +0.000 NA
ATOM     18  O   UNL     1       1.714   8.531  19.885  0.00  0.00    +0.000 OA
ATOM     19  C   UNL     1       1.977   8.921  18.606  0.00  0.00    +0.000 A 
ATOM     20  C   UNL     1       1.491  10.251  18.197  0.00  0.00    +0.000 C 
ATOM     21  N   UNL     1       2.495   7.965  17.869  0.00  0.00    +0.000 NA
ENDBRANCH  15  16
ENDBRANCH  10  15
ENDBRANCH   1  11
BRANCH   3  22
ATOM     22  C   UNL     1       6.767   3.755  14.422  0.00  0.00    +0.000 C 
BRANCH  22  23
ATOM     23  C   UNL     1       6.320   4.413  13.103  0.00  0.00    +0.000 C 
ATOM     24  C   UNL     1       7.493   4.979  12.299  0.00  0.00    +0.000 C 
ATOM     25  C   UNL     1       5.580   3.370  12.260  0.00  0.00    +0.000 C 
ENDBRANCH  22  23
ENDBRANCH   3  22
TORSDOF 6
ENDMDL
MODEL 6
REMARK VINA RESULT:      -7.3      1.617      3.106
REMARK  Name = 
REMARK  10 active torsions:
REMARK  status: ('A' for Active; 'I' for Inactive)
REMARK    1  A    between atoms: C_1  and  C_2
REMARK    2  A    between atoms: C_2  and  N_3
REMARK    3  A    between atoms: N_3  and  C_4
REMARK    4  A    between atoms: C_4  and  C_5
REMARK    5  A    between atoms: C_8  and  C_9
REMARK    6  A    between atoms: C_11  and  C_13
REMARK    7  A    between atoms: C_15  and  C_16
REMARK    8  A    between atoms: C_16  and  C_17
REMARK    9  A    between atoms: C_17  and  C_18
REMARK   10  A    between atoms: C_17  and  C_19
REMARK                            x       y       z     vdW  Elec       q    Type
REMARK                         _______ _______ _______ _____ _____    ______ ____
ROOT
ATOM      1  C   UNL     1       5.614   4.300  18.287  0.00  0.00    +0.000 A 
ATOM      2  C   UNL     1       6.420   5.217  18.923  0.00  0.00    +0.000 A 
ATOM      3  C   UNL     1       7.320   5.880  18.117  0.00  0.00    +0.000 A 
ATOM      4  N   UNL     1       7.458   5.584  16.807  0.00  0.00    +0.000 NA
ATOM      5  C   UNL     1       6.647   4.656  16.295  0.00  0.00    +0.000 A 
ATOM      6  N   UNL     1       6.850   4.284  14.988  0.00  0.00    +0.000 N 
ATOM      7  N   UNL     1       5.673   4.046  16.965  0.00  0.00    +0.000 NA
ATOM      8  H   UNL     1       7.306   5.011  14.458  0.00  0.00    +0.000 HD
ATOM      9  H   UNL     1       6.037   3.828  14.602  0.00  0.00    +0.000 HD
ENDROOT
BRANCH   1  11
ATOM     10  N   UNL     1       3.192   3.905  18.945  0.00  0.00    +0.000 N 
ATOM     11  C   UNL     1       4.557   3.607  19.089  0.00  0.00    +0.000 C 
ATOM     12  O   UNL     1       4.946   2.753  19.892  0.00  0.00    +0.000 OA
BRANCH  10  14
ATOM     13  C   UNL     1       1.063   2.665  19.328  0.00  0.00    +0.000 C 
ATOM     14  C   UNL     1       2.287   3.329  19.938  0.00  0.00    +0.000 C 
ENDBRANCH  10  14
BRANCH  10  15
ATOM     15  C   UNL     1       2.619   4.898  18.006  0.00  0.00    +0.000 C 
BRANCH  15  16
ATOM     16  C   UNL     1       2.563   6.304  18.528  0.00  0.00    +0.000 A 
ATOM     17  N   UNL     1       2.245   6.620  19.792  0.00  0.00    +0.000 NA
ATOM     18  O   UNL     1       2.021   8.000  19.728  0.00  0.00    +0.000 OA
ATOM     19  C   UNL     1       2.255   8.370  18.436  0.00  0.00    +0.000 A 
ATOM     20  C   UNL     1       1.820   9.721  18.037  0.00  0.00    +0.000 C 
ATOM     21  N   UNL     1       2.697   7.387  17.687  0.00  0.00    +0.000 NA
ENDBRANCH  15  16
ENDBRANCH  10  15
ENDBRANCH   1  11
BRANCH   3  22
ATOM     22  C   UNL     1       8.149   7.017  18.649  0.00  0.00    +0.000 C 
BRANCH  22  23
ATOM     23  C   UNL     1       8.124   8.304  17.805  0.00  0.00    +0.000 C 
ATOM     24  C   UNL     1       6.707   8.711  17.394  0.00  0.00    +0.000 C 
ATOM     25  C   UNL     1       8.766   9.435  18.613  0.00  0.00    +0.000 C 
ENDBRANCH  22  23
ENDBRANCH   3  22
TORSDOF 6
ENDMDL
MODEL 7
REMARK VINA RESULT:      -7.3      1.443      1.895
REMARK  Name = 
REMARK  10 active torsions:
REMARK  status: ('A' for Active; 'I' for Inactive)
REMARK    1  A    between atoms: C_1  and  C_2
REMARK    2  A    between atoms: C_2  and  N_3
REMARK    3  A    between atoms: N_3  and  C_4
REMARK    4  A    between atoms: C_4  and  C_5
REMARK    5  A    between atoms: C_8  and  C_9
REMARK    6  A    between atoms: C_11  and  C_13
REMARK    7  A    between atoms: C_15  and  C_16
REMARK    8  A    between atoms: C_16  and  C_17
REMARK    9  A    between atoms: C_17  and  C_18
REMARK   10  A    between atoms: C_17  and  C_19
REMARK                            x       y       z     vdW  Elec       q    Type
REMARK                         _______ _______ _______ _____ _____    ______ ____
ROOT
ATOM      1  C   UNL     1       5.255   4.288  16.519  0.00  0.00    +0.000 A 
ATOM      2  C   UNL     1       5.277   3.902  15.198  0.00  0.00    +0.000 A 
ATOM      3  C   UNL     1       6.273   4.464  14.429  0.00  0.00    +0.000 A 
ATOM      4  N   UNL     1       7.114   5.398  14.922  0.00  0.00    +0.000 NA
ATOM      5  C   UNL     1       6.987   5.724  16.210  0.00  0.00    +0.000 A 
ATOM      6  N   UNL     1       7.776   6.743  16.689  0.00  0.00    +0.000 N 
ATOM      7  N   UNL     1       6.135   5.155  17.057  0.00  0.00    +0.000 NA
ATOM      8  H   UNL     1       8.617   6.855  16.143  0.00  0.00    +0.000 HD
ATOM      9  H   UNL     1       7.841   6.719  17.695  0.00  0.00    +0.000 HD
ENDROOT
BRANCH   1  11
ATOM     10  N   UNL     1       3.749   4.303  18.565  0.00  0.00    +0.000 N 
ATOM     11  C   UNL     1       4.252   3.649  17.429  0.00  0.00    +0.000 C 
ATOM     12  O   UNL     1       3.886   2.508  17.129  0.00  0.00    +0.000 OA
BRANCH  10  14
ATOM     13  C   UNL     1       1.456   3.681  19.322  0.00  0.00    +0.000 C 
ATOM     14  C   UNL     1       2.956   3.495  19.489  0.00  0.00    +0.000 C 
ENDBRANCH  10  14
BRANCH  10  15
ATOM     15  C   UNL     1       4.111   5.671  19.006  0.00  0.00    +0.000 C 
BRANCH  15  16
ATOM     16  C   UNL     1       3.259   6.767  18.435  0.00  0.00    +0.000 A 
ATOM     17  N   UNL     1       3.525   7.395  17.280  0.00  0.00    +0.000 NA
ATOM     18  O   UNL     1       2.672   8.505  17.319  0.00  0.00    +0.000 OA
ATOM     19  C   UNL     1       1.966   8.409  18.481  0.00  0.00    +0.000 A 
ATOM     20  C   UNL     1       1.199   9.597  18.899  0.00  0.00    +0.000 C 
ATOM     21  N   UNL     1       2.209   7.303  19.146  0.00  0.00    +0.000 NA
ENDBRANCH  15  16
ENDBRANCH  10  15
ENDBRANCH   1  11
BRANCH   3  22
ATOM     22  C   UNL     1       6.511   4.013  13.014  0.00  0.00    +0.000 C 
BRANCH  22  23
ATOM     23  C   UNL     1       5.495   2.994  12.467  0.00  0.00    +0.000 C 
ATOM     24  C   UNL     1       4.399   3.650  11.624  0.00  0.00    +0.000 C 
ATOM     25  C   UNL     1       6.242   1.961  11.618  0.00  0.00    +0.000 C 
ENDBRANCH  22  23
ENDBRANCH   3  22
TORSDOF 6
ENDMDL
MODEL 8
REMARK VINA RESULT:      -7.2      1.991      3.527
REMARK  Name = 
REMARK  10 active torsions:
REMARK  status: ('A' for Active; 'I' for Inactive)
REMARK    1  A    between atoms: C_1  and  C_2
REMARK    2  A    between atoms: C_2  and  N_3
REMARK    3  A    between atoms: N_3  and  C_4
REMARK    4  A    between atoms: C_4  and  C_5
REMARK    5  A    between atoms: C_8  and  C_9
REMARK    6  A    between atoms: C_11  and  C_13
REMARK    7  A    between atoms: C_15  and  C_16
REMARK    8  A    between atoms: C_16  and  C_17
REMARK    9  A    between atoms: C_17  and  C_18
REMARK   10  A    between atoms: C_17  and  C_19
REMARK                            x       y       z     vdW  Elec       q    Type
REMARK                         _______ _______ _______ _____ _____    ______ ____
ROOT
ATOM      1  C   UNL     1       5.460   5.618  16.788  0.00  0.00    +0.000 A 
ATOM      2  C   UNL     1       5.549   5.631  15.414  0.00  0.00    +0.000 A 
ATOM      3  C   UNL     1       6.653   5.001  14.882  0.00  0.00    +0.000 A 
ATOM      4  N   UNL     1       7.626   4.484  15.663  0.00  0.00    +0.000 NA
ATOM      5  C   UNL     1       7.456   4.552  16.985  0.00  0.00    +0.000 A 
ATOM      6  N   UNL     1       8.487   4.114  17.782  0.00  0.00    +0.000 N 
ATOM      7  N   UNL     1       6.373   5.035  17.588  0.00  0.00    +0.000 NA
ATOM      8  H   UNL     1       9.069   3.443  17.307  0.00  0.00    +0.000 HD
ATOM      9  H   UNL     1       8.171   3.917  18.720  0.00  0.00    +0.000 HD
ENDROOT
BRANCH   1  11
ATOM     10  N   UNL     1       3.097   5.445  17.705  0.00  0.00    +0.000 N 
ATOM     11  C   UNL     1       4.241   6.210  17.426  0.00  0.00    +0.000 C 
ATOM     12  O   UNL     1       4.291   7.414  17.696  0.00  0.00    +0.000 OA
BRANCH  10  14
ATOM     13  C   UNL     1       1.917   6.591  19.579  0.00  0.00    +0.000 C 
ATOM     14  C   UNL     1       1.902   6.180  18.115  0.00  0.00    +0.000 C 
ENDBRANCH  10  14
BRANCH  10  15
ATOM     15  C   UNL     1       2.938   3.996  17.435  0.00  0.00    +0.000 C 
BRANCH  15  16
ATOM     16  C   UNL     1       2.186   3.235  18.487  0.00  0.00    +0.000 A 
ATOM     17  N   UNL     1       0.912   2.836  18.353  0.00  0.00    +0.000 NA
ATOM     18  O   UNL     1       0.558   2.464  19.655  0.00  0.00    +0.000 OA
ATOM     19  C   UNL     1       1.666   2.654  20.427  0.00  0.00    +0.000 A 
ATOM     20  C   UNL     1       1.482   2.603  21.888  0.00  0.00    +0.000 C 
ATOM     21  N   UNL     1       2.721   3.020  19.737  0.00  0.00    +0.000 NA
ENDBRANCH  15  16
ENDBRANCH  10  15
ENDBRANCH   1  11
BRANCH   3  22
ATOM     22  C   UNL     1       6.795   4.803  13.398  0.00  0.00    +0.000 C 
BRANCH  22  23
ATOM     23  C   UNL     1       6.221   3.483  12.851  0.00  0.00    +0.000 C 
ATOM     24  C   UNL     1       4.802   3.641  12.302  0.00  0.00    +0.000 C 
ATOM     25  C   UNL     1       7.143   2.969  11.741  0.00  0.00    +0.000 C 
ENDBRANCH  22  23
ENDBRANCH   3  22
TORSDOF 6
ENDMDL
MODEL 9
REMARK VINA RESULT:      -7.2      1.121      1.379
REMARK  Name = 
REMARK  10 active torsions:
REMARK  status: ('A' for Active; 'I' for Inactive)
REMARK    1  A    between atoms: C_1  and  C_2
REMARK    2  A    between atoms: C_2  and  N_3
REMARK    3  A    between atoms: N_3  and  C_4
REMARK    4  A    between atoms: C_4  and  C_5
REMARK    5  A    between atoms: C_8  and  C_9
REMARK    6  A    between atoms: C_11  and  C_13
REMARK    7  A    between atoms: C_15  and  C_16
REMARK    8  A    between atoms: C_16  and  C_17
REMARK    9  A    between atoms: C_17  and  C_18
REMARK   10  A    between atoms: C_17  and  C_19
REMARK                            x       y       z     vdW  Elec       q    Type
REMARK                         _______ _______ _______ _____ _____    ______ ____
ROOT
ATOM      1  C   UNL     1       5.552   4.110  18.760  0.00  0.00    +0.000 A 
ATOM      2  C   UNL     1       5.732   3.989  17.400  0.00  0.00    +0.000 A 
ATOM      3  C   UNL     1       6.853   4.607  16.889  0.00  0.00    +0.000 A 
ATOM      4  N   UNL     1       7.670   5.354  17.662  0.00  0.00    +0.000 NA
ATOM      5  C   UNL     1       7.388   5.431  18.964  0.00  0.00    +0.000 A 
ATOM      6  N   UNL     1       8.161   6.267  19.734  0.00  0.00    +0.000 N 
ATOM      7  N   UNL     1       6.398   4.778  19.566  0.00  0.00    +0.000 NA
ATOM      8  H   UNL     1       9.073   6.414  19.329  0.00  0.00    +0.000 HD
ATOM      9  H   UNL     1       8.087   6.041  20.714  0.00  0.00    +0.000 HD
ENDROOT
BRANCH   1  11
ATOM     10  N   UNL     1       3.067   3.679  19.059  0.00  0.00    +0.000 N 
ATOM     11  C   UNL     1       4.400   3.390  19.390  0.00  0.00    +0.000 C 
ATOM     12  O   UNL     1       4.683   2.522  20.222  0.00  0.00    +0.000 OA
BRANCH  10  14
ATOM     13  C   UNL     1       1.030   2.241  19.123  0.00  0.00    +0.000 C 
ATOM     14  C   UNL     1       2.037   3.073  19.901  0.00  0.00    +0.000 C 
ENDBRANCH  10  14
BRANCH  10  15
ATOM     15  C   UNL     1       2.620   4.688  18.069  0.00  0.00    +0.000 C 
BRANCH  15  16
ATOM     16  C   UNL     1       2.594   6.101  18.573  0.00  0.00    +0.000 A 
ATOM     17  N   UNL     1       2.287   6.438  19.835  0.00  0.00    +0.000 NA
ATOM     18  O   UNL     1       2.090   7.822  19.754  0.00  0.00    +0.000 OA
ATOM     19  C   UNL     1       2.326   8.171  18.457  0.00  0.00    +0.000 A 
ATOM     20  C   UNL     1       1.916   9.525  18.042  0.00  0.00    +0.000 C 
ATOM     21  N   UNL     1       2.746   7.170  17.719  0.00  0.00    +0.000 NA
ENDBRANCH  15  16
ENDBRANCH  10  15
ENDBRANCH   1  11
BRANCH   3  22
ATOM     22  C   UNL     1       7.255   4.423  15.452  0.00  0.00    +0.000 C 
BRANCH  22  23
ATOM     23  C   UNL     1       6.294   5.033  14.415  0.00  0.00    +0.000 C 
ATOM     24  C   UNL     1       5.520   3.970  13.633  0.00  0.00    +0.000 C 
ATOM     25  C   UNL     1       5.308   5.953  15.139  0.00  0.00    +0.000 C 
ENDBRANCH  22  23
ENDBRANCH   3  22
TORSDOF 6
ENDMDL
